data_mof_unit_57500.cif
_audit_creation_date              2013-03-05T16:06:17-0500
_audit_creation_method            fapswitch 2.2
_symmetry_space_group_name_H-M    P1
_symmetry_Int_Tables_number       1
_space_group_crystal_system       triclinic
_cell_length_a                    10.819602
_cell_length_b                    9.508954
_cell_length_c                    27.805941
_cell_angle_alpha                 90.231612
_cell_angle_beta                  90.283497
_cell_angle_gamma                 89.967999
_cell_volume                      2860.70253784

loop_
_atom_site_label
_atom_site_type_symbol
_atom_site_description
_atom_site_fract_x
_atom_site_fract_y
_atom_site_fract_z
_atom_type_partial_charge
O1    O     O_R   0.319640 0.618740 0.500000 -0.587623
O2    O     O_R   0.680360 0.381260 0.500000 -0.587612
O3    O     O_R   0.680360 0.618740 0.500000 -0.588120
O4    O     O_R   0.319640 0.381260 0.500000 -0.588117
C1    C     C_R   0.262044 0.500022 0.499962 0.795805
C2    C     C_R   0.737956 0.499978 0.500037 0.795814
O5    O     O_R   0.500020 0.618770 0.430260 -0.584021
O6    O     O_R   0.499980 0.381230 0.569740 -0.584003
O7    O     O_R   0.499980 0.618770 0.569740 -0.583828
O8    O     O_R   0.500020 0.381230 0.430260 -0.583774
C3    C     C_R   0.499622 0.499678 0.407396 0.804311
C4    C     C_R   0.500371 0.500322 0.592606 0.804312
Cu1   Cu    Cu3+1 0.500000 0.640660 0.500000 0.947524
Cu2   Cu    Cu3+1 0.500000 0.359340 0.500000 0.947569
C5    C     C_R   0.391019 0.466299 0.177418 0.532998
C6    C     C_R   0.608896 0.533717 0.822573 0.533065
O9    O     O_2   0.285304 0.443664 0.201755 -0.534407
O10   O     O_2   0.714574 0.556520 0.798232 -0.534246
N1    N     N_R   0.498280 0.492823 0.202000 -0.469992
N2    N     N_R   0.501655 0.507103 0.797995 -0.470110
C7    C     C_R   0.607414 0.512827 0.178432 0.550304
C8    C     C_R   0.392534 0.486994 0.821554 0.550360
C9    C     C_R   0.486442 0.369111 0.279045 -0.102372
C10   C     C_R   0.511983 0.631047 0.720966 -0.102627
C11   C     C_R   0.487322 0.370608 0.329172 -0.213492
C12   C     C_R   0.511125 0.629563 0.670839 -0.213359
C13   C     C_R   0.508855 0.624655 0.328569 -0.214428
C14   C     C_R   0.492608 0.375155 0.671434 -0.214174
C15   C     C_R   0.508549 0.622743 0.278394 -0.104453
C16   C     C_R   0.492914 0.377047 0.721610 -0.104701
C17   C     C_R   0.497265 0.495026 0.253531 0.358584
C18   C     C_R   0.502674 0.504940 0.746470 0.359247
C19   C     C_R   0.500746 0.489216 0.101803 -0.049018
C20   C     C_R   0.499176 0.510677 0.898186 -0.049000
C21   C     C_R   0.390412 0.463308 0.126936 -0.004937
C22   C     C_R   0.609504 0.536659 0.873055 -0.005018
C23   C     C_R   0.283439 0.429174 0.101276 -0.173624
C24   C     C_R   0.716465 0.570821 0.898719 -0.173621
C25   C     C_R   0.610831 0.509511 0.127946 -0.059543
C26   C     C_R   0.389103 0.490320 0.872039 -0.059596
C27   C     C_R   0.498601 0.498446 0.354422 -0.040254
C28   C     C_R   0.501363 0.501550 0.645582 -0.040274
H1    H     H_    0.517689 0.724652 0.347053 0.157723
H2    H     H_    0.485006 0.275012 0.652950 0.157566
H3    H     H_    0.516983 0.720399 0.258780 0.137759
H4    H     H_    0.485668 0.279247 0.741225 0.137379
H5    H     H_    0.199405 0.399388 0.119654 0.187312
H6    H     H_    0.800490 0.600654 0.880344 0.187309
C29   C     C_R   0.385247 0.488662 0.974108 0.003238
C30   C     C_R   0.614667 0.511197 0.025878 0.003241
C31   C     C_R   0.611637 0.526973 0.974927 0.057313
C32   C     C_R   0.388272 0.472923 0.025062 0.057328
C33   C     C_R   0.498741 0.507310 0.949301 0.014805
C34   C     C_R   0.501173 0.492573 0.050686 0.014804
C35   C     C_R   0.273010 0.492713 0.946600 0.229688
C36   C     C_R   0.726909 0.507093 0.053380 0.229660
C37   C     C_R   0.277164 0.483040 0.896479 -0.208560
C38   C     C_R   0.722770 0.516736 0.103502 -0.208563
O11   O     O_2   0.287537 0.465454 0.796167 -0.531905
O12   O     O_2   0.712446 0.534226 0.203811 -0.532061
C39   C     C_R   0.283678 0.428917 0.051377 -0.176274
C40   C     C_R   0.716225 0.571027 0.948618 -0.176238
H7    H     H_    0.518222 0.728581 0.651925 0.156018
H8    H     H_    0.479006 0.271748 0.348093 0.155857
H9    H     H_    0.519168 0.730229 0.740066 0.137261
H10   H     H_    0.478068 0.270053 0.259953 0.137645
H11   H     H_    0.190956 0.480173 0.876477 0.188861
H12   H     H_    0.808985 0.519557 0.123501 0.188880
H13   H     H_    0.201495 0.388285 0.034352 0.182621
H14   H     H_    0.798399 0.611659 0.965651 0.182593
C41   C     C_R   0.063955 0.372176 0.499965 -0.176707
C42   C     C_R   0.936045 0.627823 0.500034 -0.176711
C43   C     C_R   0.936181 0.372151 0.500021 -0.176711
C44   C     C_R   0.063819 0.627849 0.499978 -0.176715
H15   H     H_    0.112102 0.272257 0.499933 0.149996
H16   H     H_    0.887898 0.727743 0.500066 0.149995
H17   H     H_    0.888142 0.272227 0.500042 0.149983
H18   H     H_    0.111858 0.727773 0.499957 0.149978
C45   C     C_R   0.871775 0.499973 0.500042 -0.018940
C46   C     C_R   0.128225 0.500026 0.499957 -0.018936
C47   C     C_R   0.422722 0.074157 0.470176 -0.025121
C48   C     C_R   0.577277 0.925843 0.529824 -0.025221
C49   C     C_R   0.577288 0.074748 0.529820 -0.024133
C50   C     C_R   0.422711 0.925252 0.470180 -0.024127
H19   H     H_    0.360862 0.130121 0.446292 0.118617
H20   H     H_    0.639137 0.869879 0.553708 0.118753
H21   H     H_    0.639176 0.131182 0.553696 0.120004
H22   H     H_    0.360823 0.868819 0.446305 0.120101
N3    N     N_R   0.500000 0.852070 0.500000 -0.157134
N4    N     N_R   0.500000 0.147930 0.500000 -0.157091
N5    N     N_2   0.156283 0.523236 0.967762 -0.456201
H23   H     H_    0.081228 0.484634 0.948854 0.254299
C51   C     C_3   0.140029 0.668920 0.981566 -0.671876
H24   H     H_    0.049336 0.682155 0.999524 0.223667
H25   H     H_    0.142228 0.737256 0.949245 0.229971
H26   H     H_    0.213645 0.702276 0.007148 0.244786
N6    N     N_2   0.843622 0.476544 0.032211 -0.456185
H27   H     H_    0.918695 0.515084 0.051122 0.254291
C52   C     C_3   0.859822 0.330872 0.018381 -0.671852
H28   H     H_    0.950518 0.317613 0.000428 0.223653
H29   H     H_    0.786205 0.297594 0.992789 0.244784
H30   H     H_    0.857578 0.262488 0.050690 0.229971

loop_
_geom_bond_atom_site_label_1
_geom_bond_atom_site_label_2
_geom_bond_distance
_ccdc_geom_bond_type
C49   H21   1.081755 S    
C51   H24   1.110062 S    
C13   C15   1.395210 A    
C42   H16   1.083304 S    
O3    C2    1.289525 A    
N1    C17   1.433035 S    
N6    H27   1.032057 S    
O5    C3    1.296456 A    
C19   C25   1.405315 A    
C48   N3    1.366751 A    
O1    C1    1.289762 A    
C9    H10   1.082989 S    
C21   C23   1.394417 A    
C10   C12   1.393831 A    
C42   C45   1.400881 A    
C32   C39   1.415056 A    
C40   H14   1.076475 S    
C14   C28   1.406415 A    
O7    Cu1   1.951163 S    
Cu2   N4    2.010289 S    
C35   N5    1.425152 S    
C4    C28   1.473035 S    
C23   H5    1.083556 S    
C24   H6    1.083550 S    
O3    Cu1   1.962408 S    
C6    N2    1.366931 A    
Cu1   N3    2.010288 S    
C51   H25   1.111511 S    
C44   C46   1.400708 A    
Cu1   Cu2   2.675059 S    
O2    C2    1.289761 A    
C31   C40   1.415051 A    
C36   N6    1.425166 S    
C37   H11   1.083909 S    
C5    C21   1.403858 A    
C41   C46   1.400881 A    
N6    C52   1.446870 S    
C32   C34   1.423135 A    
C16   C18   1.400204 A    
C7    O12   1.349802 S    
C42   C44   1.382479 A    
O8    Cu2   1.951163 S    
C11   C27   1.406402 A    
C8    O11   1.349796 S    
C41   C43   1.382478 A    
C48   H20   1.081774 S    
C25   C38   1.393618 A    
C14   H2    1.083248 S    
C30   C36   1.432528 A    
C15   H3    1.082935 S    
C31   C33   1.423118 A    
C11   H8    1.083131 S    
C9    C17   1.399436 A    
C5    N1    1.367013 A    
C12   H7    1.083289 S    
C10   C18   1.399543 A    
N5    C51   1.446864 S    
C13   C27   1.406161 A    
C52   H28   1.110060 S    
C7    C25   1.404706 A    
O6    C4    1.296474 A    
C29   C32   1.425519 A    
C8    C26   1.404693 A    
C30   C31   1.425482 A    
C43   C45   1.400709 A    
C30   C34   1.422914 A    
C1    C46   1.447866 S    
C10   H9    1.083141 S    
C47   N4    1.366753 A    
C38   H12   1.083910 S    
C52   H29   1.110779 S    
N2    C8    1.366950 A    
C51   H26   1.110786 S    
C35   C37   1.397257 A    
C20   C26   1.405329 A    
O1    Cu1   1.962639 S    
C50   N3    1.366828 A    
N5    H23   1.032054 S    
C47   C50   1.415935 A    
C12   C28   1.406637 A    
N2    C18   1.432849 S    
C39   H13   1.076463 S    
C19   C34   1.421855 A    
C5    O9    1.349676 S    
C49   N4    1.366827 A    
O6    Cu2   1.949490 S    
C26   C37   1.393594 A    
N1    C7    1.367035 A    
C16   H4    1.083093 S    
C50   H22   1.081753 S    
O4    C1    1.289525 A    
C23   C39   1.387499 A    
C22   C24   1.394411 A    
C15   C17   1.400114 A    
C29   C35   1.432544 A    
C6    C22   1.403859 A    
C41   H15   1.083305 S    
C2    C45   1.447867 S    
C29   C33   1.422933 A    
C14   C16   1.395213 A    
C19   C21   1.408595 A    
C36   C38   1.397253 A    
C3    C27   1.472953 S    
C20   C22   1.408626 A    
C9    C11   1.393829 A    
O4    Cu2   1.962408 S    
O2    Cu2   1.962639 S    
O7    C4    1.295617 A    
O8    C3    1.295594 A    
C13   H1    1.083096 S    
O5    Cu1   1.949490 S    
C52   H30   1.111502 S    
C20   C33   1.421844 A    
C6    O10   1.349665 S    
C48   C49   1.415935 A    
C44   H18   1.083306 S    
C43   H17   1.083306 S    
C47   H19   1.081774 S    
C24   C40   1.387503 A    
