data_mof_unit_57754.cif
_audit_creation_date              2012-12-10T19:49:22-0500
_audit_creation_method            fapswitch 2.2
_symmetry_space_group_name_H-M    P1
_symmetry_Int_Tables_number       1
_space_group_crystal_system       triclinic
_cell_length_a                    14.916718
_cell_length_b                    14.117785
_cell_length_c                    14.973299
_cell_angle_alpha                 90.16738
_cell_angle_beta                  90.338577
_cell_angle_gamma                 89.99264
_cell_volume                      3153.1737444

loop_
_atom_site_label
_atom_site_type_symbol
_atom_type_description
_atom_site_fract_x
_atom_site_fract_y
_atom_site_fract_z
_atom_type_partial_charge
C1    C     C_R   0.327493 0.499975 0.498562 0.921054
C2    C     C_R   0.808628 0.428237 0.439070 -0.340437
C3    C     C_R   0.817759 0.575876 0.522643 -0.325193
C4    C     C_R   0.182577 0.422223 0.518982 -0.333276
C5    C     C_R   0.231712 0.499610 0.488407 -0.180169
C6    C     C_R   0.767956 0.500485 0.488249 -0.173036
C7    C     C_R   0.048009 0.497033 0.464598 -0.068394
C8    C     C_R   0.951247 0.502814 0.464906 -0.072895
C9    C     C_R   0.566123 0.104054 0.452748 0.434755
C10   C     C_R   0.570021 0.895919 0.542287 0.432838
C11   C     C_R   0.433960 0.104392 0.547515 0.430351
C12   C     C_R   0.672438 0.500037 0.498724 0.921921
C13   C     C_R   0.430073 0.895750 0.457829 0.429266
C14   C     C_R   0.562620 0.204589 0.452058 -0.156572
C15   C     C_R   0.566531 0.795384 0.543246 -0.148225
C16   C     C_R   0.437428 0.204961 0.548056 -0.127644
C17   C     C_R   0.433513 0.795219 0.456764 -0.130750
C18   C     C_R   0.500044 0.053474 0.500132 0.030642
C19   C     C_R   0.500041 0.946615 0.500100 0.034593
C20   C     C_R   0.501421 0.499834 0.326713 0.924809
C21   C     C_R   0.498627 0.500100 0.673318 0.925974
C22   C     C_R   0.542150 0.571266 0.814413 -0.339101
C23   C     C_R   0.408174 0.357762 0.047844 -0.210639
C24   C     C_R   0.457808 0.428638 0.185732 -0.339073
C25   C     C_R   0.495257 0.500532 0.768876 -0.187289
C26   C     C_R   0.505138 0.499041 0.231224 -0.193686
C27   C     C_R   0.446333 0.430735 0.814322 0.478089
C28   C     C_R   0.555537 0.567605 0.185837 0.468198
C29   C     C_R   0.449663 0.429057 0.907436 0.000683
C30   C     C_R   0.552001 0.569577 0.092729 -0.000112
C31   C     C_R   0.498762 0.499904 0.953526 0.017049
C32   C     C_R   0.502396 0.499125 0.046625 0.018601
C33   C     C_R   0.544483 0.571433 0.906612 0.131187
C34   C     C_R   0.593018 0.641240 0.952345 -0.211895
C35   C     C_R   0.456281 0.427881 0.093549 0.128783
C36   C     C_R   0.405073 0.358090 0.955243 -0.180532
C37   C     C_R   0.596855 0.640355 0.044947 -0.180788
C38   C     C_3   0.312524 0.396432 0.748693 -0.352528
C39   C     C_3   0.690649 0.596076 0.251051 -0.301719
C40   C     C_3   0.051460 0.622114 0.292642 -0.339109
C41   C     C_3   0.904693 0.350997 0.289505 -0.342437
C42   C     C_3   0.977276 0.633918 0.639183 -0.347234
C43   C     C_3   0.027786 0.354778 0.632635 -0.349636
C44   C     C_3   0.714501 0.092171 0.408422 -0.267240
C45   C     C_R   0.098208 0.571662 0.428323 0.558983
C46   C     C_3   0.721927 0.908208 0.573880 -0.269877
C47   C     C_3   0.285876 0.093514 0.593282 -0.276650
C48   C     C_3   0.278148 0.908371 0.426774 -0.261654
C49   C     C_R   0.900620 0.430994 0.423592 0.560955
C50   C     C_R   0.910062 0.576097 0.513749 0.533296
C51   C     C_R   0.090077 0.421662 0.509749 0.541910
C52   C     C_R   0.189897 0.574102 0.443132 -0.307012
H1    H     H_    0.578844 0.624830 0.777763 0.176030
H2    H     H_    0.215533 0.363228 0.551701 0.171411
H3    H     H_    0.609532 0.245176 0.412975 0.150634
H4    H     H_    0.616645 0.754850 0.578835 0.147450
H5    H     H_    0.390554 0.245899 0.587095 0.174609
H6    H     H_    0.383379 0.754570 0.421114 0.150466
H7    H     H_    0.275555 0.414159 0.810907 0.157365
H8    H     H_    0.274197 0.340244 0.713360 0.180351
H9    H     H_    0.314993 0.459162 0.703978 0.155778
H10   H     H_    0.727855 0.580896 0.188407 0.143535
H11   H     H_    0.686083 0.530844 0.292323 0.142173
H12   H     H_    0.420444 0.375606 0.222388 0.184602
H13   H     H_    0.729985 0.648849 0.289860 0.206972
H14   H     H_    0.009984 0.557525 0.281694 0.160172
H15   H     H_    0.119259 0.612441 0.263251 0.161265
H16   H     H_    0.018353 0.681276 0.256713 0.197423
H17   H     H_    0.889577 0.420761 0.258120 0.134955
H18   H     H_    0.843353 0.306560 0.292390 0.163850
H19   H     H_    0.953077 0.313960 0.245586 0.200254
H20   H     H_    0.026255 0.575207 0.646979 0.150980
H21   H     H_    0.915154 0.619054 0.677600 0.149429
H22   H     H_    0.008335 0.698381 0.668441 0.202189
H23   H     H_    0.367523 0.302850 0.921413 0.192265
H24   H     H_    0.981126 0.414259 0.646645 0.153917
H25   H     H_    0.091906 0.364253 0.670080 0.140760
H26   H     H_    0.995878 0.289131 0.657662 0.204321
H27   H     H_    0.731641 0.115692 0.477562 0.168574
H28   H     H_    0.763662 0.036722 0.389680 0.190118
H29   H     H_    0.722227 0.151277 0.360291 0.151939
H30   H     H_    0.732274 0.885487 0.503333 0.172798
H31   H     H_    0.734667 0.848633 0.620533 0.154095
H32   H     H_    0.772461 0.963752 0.588827 0.188087
H33   H     H_    0.268130 0.117525 0.524571 0.166718
H34   H     H_    0.634840 0.695232 0.078827 0.192472
H35   H     H_    0.236540 0.038367 0.612013 0.187270
H36   H     H_    0.279150 0.152409 0.642124 0.162556
H37   H     H_    0.268011 0.886568 0.497485 0.165996
H38   H     H_    0.264991 0.848274 0.380505 0.163246
H39   H     H_    0.227761 0.963961 0.411744 0.190984
H40   H     H_    0.372797 0.302822 0.083748 0.152664
H41   H     H_    0.628272 0.696278 0.916453 0.149346
H42   H     H_    0.228407 0.633032 0.417403 0.172819
H43   H     H_    0.768702 0.370706 0.412115 0.165222
H44   H     H_    0.785501 0.633167 0.558575 0.171891
N1    N     N_R   0.500000 0.252470 0.500000 -0.129744
N2    N     N_R   0.500000 0.747530 0.500000 -0.123534
O1    O     O_R   0.369060 0.579480 0.500010 -0.630946
O2    O     O_3   0.605199 0.634511 0.232562 -0.589064
O3    O     O_3   0.057145 0.645776 0.383993 -0.566889
O4    O     O_3   0.943807 0.360608 0.375157 -0.564145
O5    O     O_3   0.959255 0.651005 0.548151 -0.562620
O6    O     O_3   0.041449 0.344832 0.540026 -0.560232
O7    O     O_3   0.627576 0.052965 0.402259 -0.591914
O8    O     O_3   0.635796 0.946823 0.587940 -0.595414
O9    O     O_3   0.372571 0.053569 0.598056 -0.590768
O10   O     O_3   0.364356 0.946429 0.412154 -0.595619
O11   O     O_R   0.630940 0.420520 0.499990 -0.625351
O12   O     O_R   0.630940 0.579480 0.499990 -0.621241
O13   O     O_R   0.369060 0.420520 0.500010 -0.621244
O14   O     O_R   0.499980 0.579490 0.367850 -0.565753
O15   O     O_R   0.500020 0.420510 0.632150 -0.565769
O16   O     O_R   0.500020 0.579490 0.632150 -0.631504
O17   O     O_R   0.499980 0.420510 0.367850 -0.634256
O18   O     O_3   0.399206 0.361677 0.767761 -0.594467
Zn1   Zn    Zn3+2 0.500000 0.606140 0.500000 0.966702
Zn2   Zn    Zn3+2 0.500000 0.393860 0.500000 0.964689

loop_
_geom_bond_atom_site_label_1
_geom_bond_atom_site_label_2
_ccdc_geom_bond_type
C11   C18   A    
C8    C50   A    
C27   C29   A    
C34   C37   A    
C34   H41   S    
C3    C6    A    
C42   O5    S    
C1    O1    A    
C12   O12   A    
C7    C8    S    
C20   O14   A    
C44   O7    S    
C43   H26   S    
C29   C36   A    
N2    Zn1   S    
O13   Zn2   S    
C1    C5    S    
C47   H33   S    
O15   Zn2   S    
C2    H43   S    
C36   H23   S    
C24   C26   A    
C10   C15   A    
C6    C12   S    
O14   Zn1   S    
C16   N1    A    
C9    O7    S    
C41   O4    S    
C22   C25   A    
C18   C19   S    
N1    Zn2   S    
C22   C33   A    
C43   O6    S    
C40   O3    S    
C46   H30   S    
C48   H39   S    
C31   C33   A    
C5    C52   A    
C52   H42   S    
C3    H44   S    
C17   N2    A    
C17   H6    S    
C41   H19   S    
C38   H9    S    
C27   O18   S    
C28   O2    S    
C14   H3    S    
C50   O5    S    
C24   H12   S    
C40   H14   S    
C39   H13   S    
C2    C6    A    
C13   O10   S    
O12   Zn1   S    
C12   O11   A    
C3    C50   A    
O11   Zn2   S    
C22   H1    S    
C42   H22   S    
C24   C35   A    
C13   C19   A    
C4    C51   A    
C32   C35   A    
C37   H34   S    
C44   H28   S    
C21   O15   A    
C44   H29   S    
C49   O4    S    
C21   O16   A    
C45   C52   A    
C51   O6    S    
C40   H15   S    
C38   H7    S    
C30   C37   A    
C47   H35   S    
C9    C14   A    
C2    C49   A    
O1    Zn1   S    
C38   O18   S    
C11   C16   A    
C31   C32   A    
C10   C19   A    
O17   Zn2   S    
C42   H20   S    
C33   C34   A    
C45   O3    S    
C38   H8    S    
C47   O9    S    
C48   H37   S    
C11   O9    S    
C46   H32   S    
C10   O8    S    
C43   H25   S    
C15   N2    A    
C7    C45   A    
C14   N1    A    
C41   H17   S    
C43   H24   S    
C39   H10   S    
C21   C25   S    
C42   H21   S    
C4    H2    S    
C26   C28   A    
C44   H27   S    
C4    C5    A    
C20   O17   A    
C25   C27   A    
C39   H11   S    
C23   C35   A    
C13   C17   A    
C47   H36   S    
C28   C30   A    
C7    C51   A    
C29   C31   A    
C15   H4    S    
C30   C32   A    
C39   O2    S    
C48   O10   S    
C20   C26   S    
C46   O8    S    
C16   H5    S    
O16   Zn1   S    
C46   H31   S    
C9    C18   A    
C23   C36   A    
C40   H16   S    
C23   H40   S    
C48   H38   S    
C8    C49   A    
C1    O13   A    
C41   H18   S    
