data_mof_unit_48033.cif
_audit_creation_date              2012-12-10T17:18:17-0500
_audit_creation_method            fapswitch 2.2
_symmetry_space_group_name_H-M    P1
_symmetry_Int_Tables_number       1
_space_group_crystal_system       triclinic
_cell_length_a                    10.248184
_cell_length_b                    10.63775
_cell_length_c                    14.959401
_cell_angle_alpha                 90.842146
_cell_angle_beta                  82.347233
_cell_angle_gamma                 95.118126
_cell_volume                      1609.86195389

loop_
_atom_site_label
_atom_site_type_symbol
_atom_type_description
_atom_site_fract_x
_atom_site_fract_y
_atom_site_fract_z
_atom_type_partial_charge
C1    C     C_R   0.555176 0.733549 0.497681 0.926088
C2    C     C_R   0.445672 0.266336 0.511135 0.949678
C3    C     C_R   0.568143 0.719804 0.944611 0.376965
C4    C     C_R   0.415678 0.271717 0.054411 0.357395
C5    C     C_2   0.584005 0.869697 0.505126 -0.254216
C6    C     C_2   0.420381 0.130526 0.529363 -0.196569
C7    C     C_2   0.507299 0.933512 0.569062 -0.118633
C8    C     C_2   0.512654 0.070482 0.567200 -0.109371
C9    C     C_2   0.933859 0.528423 0.490964 0.106015
C10   C     C_2   0.076637 0.504278 0.481640 0.118065
C11   C     C_R   0.499938 0.496244 0.672677 1.072853
C12   C     C_R   0.498267 0.499461 0.327804 0.975254
C13   C     C_R   0.444022 0.391722 0.192875 0.396977
C14   C     C_R   0.569877 0.588695 0.809182 0.474038
C15   C     C_R   0.493469 0.501373 0.232758 -0.187292
C16   C     C_R   0.499756 0.490565 0.768583 -0.201694
C17   C     C_R   0.529803 0.613647 0.184946 -0.120197
C18   C     C_R   0.423736 0.394099 0.820520 -0.144938
C19   C     C_R   0.522536 0.615178 0.091440 -0.031009
C20   C     C_R   0.441436 0.385273 0.911853 -0.024779
C21   C     C_R   0.487559 0.498915 0.048371 -0.023437
C22   C     C_R   0.491888 0.495172 0.954692 -0.036898
C23   C     C_R   0.446946 0.386765 0.098802 -0.016888
C24   C     C_R   0.546466 0.601738 0.903056 -0.042206
C25   C     C_R   0.548148 0.728036 0.039340 -0.124617
C26   C     C_R   0.411653 0.270861 0.960565 -0.104317
N1    N     N_2   0.842700 0.448880 0.462930 -0.006317
N2    N     N_2   0.157300 0.551120 0.537070 -0.007629
O1    O     O_R   0.431060 0.692470 0.507460 -0.577487
O2    O     O_R   0.568940 0.307530 0.492540 -0.626813
O3    O     O_R   0.651120 0.659650 0.483670 -0.604116
O4    O     O_R   0.348880 0.340350 0.516330 -0.542853
O5    O     O_R   0.389960 0.516440 0.644050 -0.624804
O6    O     O_R   0.610040 0.483560 0.355950 -0.606530
O7    O     O_R   0.610030 0.483620 0.620260 -0.559851
O8    O     O_R   0.389970 0.516380 0.379740 -0.610166
Zn1   Zn    Zn3+2 0.353060 0.521920 0.515880 1.094197
Zn2   Zn    Zn3+2 0.646940 0.478080 0.484120 1.078488
O9    O     O_3   0.393362 0.291470 0.248247 -0.690218
H1    H     H_    0.304996 0.263256 0.231436 0.380827
O10   O     O_3   0.652823 0.674437 0.755578 -0.666277
H2    H     H_    0.727608 0.703354 0.788794 0.375249
C27   C     C_2   0.574682 0.726920 0.235019 0.903798
O11   O     O_2   0.691194 0.767092 0.224618 -0.532376
O12   O     O_R   0.481500 0.788477 0.292287 -0.745178
H3    H     H_    0.519026 0.872619 0.314370 0.360127
C28   C     C_2   0.315164 0.314295 0.784578 0.985986
O13   O     O_2   0.331695 0.267573 0.709403 -0.595515
O14   O     O_R   0.192840 0.292634 0.838291 -0.758614
H4    H     H_    0.126764 0.236834 0.807398 0.377545
C29   C     C_2   0.532825 0.854008 0.081094 0.945566
O15   O     O_2   0.423885 0.879324 0.116716 -0.536579
O16   O     O_R   0.642598 0.942059 0.081325 -0.759855
H5    H     H_    0.619454 0.023403 0.113247 0.387986
C30   C     C_2   0.401621 0.148412 0.911522 0.949996
O17   O     O_2   0.300962 0.076632 0.924687 -0.576700
O18   O     O_R   0.506660 0.117937 0.847807 -0.761234
H6    H     H_    0.487672 0.034044 0.817016 0.380822
O19   O     O_3   0.590224 0.826576 0.890914 -0.726074
H7    H     H_    0.634735 0.896462 0.922764 0.375097
O20   O     O_3   0.402957 0.160331 0.102453 -0.715120
H8    H     H_    0.338860 0.099295 0.077531 0.390123
C31   C     C_2   0.621889 0.134959 0.612366 1.022204
O21   O     O_2   0.730127 0.092820 0.603878 -0.570925
O22   O     O_R   0.599174 0.237986 0.668933 -0.775051
H9    H     H_    0.679822 0.269956 0.697963 0.365636
C32   C     C_2   0.420963 0.873622 0.648142 0.970415
O23   O     O_2   0.448306 0.776347 0.680602 -0.596299
O24   O     O_R   0.311887 0.933471 0.688637 -0.766230
H10   H     H_    0.262509 0.885610 0.742764 0.368422
C33   C     C_2   0.301257 0.061992 0.497476 1.018190
O25   O     O_2   0.199994 0.115038 0.498927 -0.498622
O26   O     O_R   0.304446 0.938347 0.464704 -0.768614
H11   H     H_    0.217299 0.903311 0.445263 0.395594
C34   C     C_2   0.683722 0.932815 0.433828 0.966726
O27   O     O_2   0.774098 0.874869 0.397312 -0.508539
O28   O     O_R   0.671522 0.054953 0.404732 -0.801321
H12   H     H_    0.742408 0.083462 0.353425 0.368526
C35   C     C_2   0.128374 0.441474 0.397591 1.008204
O29   O     O_2   0.173105 0.339261 0.400228 -0.524858
O30   O     O_R   0.117453 0.495904 0.314731 -0.768906
H13   H     H_    0.153251 0.443268 0.261533 0.342320
C36   C     C_2   0.903982 0.656352 0.520664 1.013912
O31   O     O_2   0.958452 0.747298 0.477289 -0.563441
O32   O     O_R   0.824109 0.674176 0.601892 -0.715019
H14   H     H_    0.814869 0.766874 0.615596 0.371293
O33   O     O_3   0.103107 0.598379 0.615623 -0.666228
H15   H     H_    0.178825 0.625357 0.648169 0.388840
O34   O     O_3   0.876909 0.331954 0.442694 -0.645058
H16   H     H_    0.796128 0.285289 0.425909 0.397059

loop_
_geom_bond_atom_site_label_1
_geom_bond_atom_site_label_2
_ccdc_geom_bond_type
C30   O17   D    
C31   O22   S    
O26   H11   S    
C34   O27   D    
C18   C28   S    
C25   C29   S    
O30   H13   S    
C7    C8    S    
C28   O14   S    
O32   H14   S    
O2    Zn2   S    
C1    C5    S    
O8    Zn1   S    
C19   C21   A    
O24   H10   S    
N1    Zn2   S    
C1    O3    A    
C13   C23   A    
C2    O4    A    
O10   H2    S    
C14   C24   A    
C28   O13   D    
C12   O8    A    
C9    C10   S    
C18   C20   A    
O28   H12   S    
O19   H7    S    
C21   C22   A    
C26   C30   S    
C3    C24   A    
C2    C6    S    
C5    C7    D    
C21   C23   A    
C6    C33   S    
C29   O15   D    
C11   O5    A    
O7    Zn2   S    
C35   O29   D    
O9    H1    S    
C35   O30   S    
C4    C23   A    
C6    C8    D    
O12   H3    S    
C4    O20   S    
O5    Zn1   S    
C32   O23   D    
C32   O24   S    
C5    C34   S    
C27   O11   D    
C17   C27   S    
C34   O28   S    
C11   C16   S    
C36   O31   D    
C12   C15   S    
C3    C25   A    
N2    O33   S    
C1    O1    A    
O4    Zn1   S    
C27   O12   S    
C9    C36   S    
C14   O10   S    
C36   O32   S    
C20   C22   A    
O22   H9    S    
C30   O18   S    
C13   C15   A    
C14   C16   A    
C12   O6    A    
C9    N1    D    
C33   O26   S    
C10   N2    D    
C15   C17   A    
O6    Zn2   S    
C4    C26   A    
C10   C35   S    
O16   H5    S    
O3    Zn2   S    
C2    O2    A    
C11   O7    A    
C33   O25   D    
O18   H6    S    
C20   C26   A    
N2    Zn1   S    
C17   C19   A    
N1    O34   S    
C22   C24   A    
O20   H8    S    
C19   C25   A    
C13   O9    S    
C8    C31   S    
C7    C32   S    
C31   O21   D    
O33   H15   S    
C16   C18   A    
O14   H4    S    
O1    Zn1   S    
C29   O16   S    
O34   H16   S    
C3    O19   S    
