data_mof_unit_64501.cif
_audit_creation_date              2013-03-05T16:39:47-0500
_audit_creation_method            fapswitch 2.2
_symmetry_space_group_name_H-M    P1
_symmetry_Int_Tables_number       1
_space_group_crystal_system       triclinic
_cell_length_a                    14.770135
_cell_length_b                    16.003624
_cell_length_c                    17.092744
_cell_angle_alpha                 89.519462
_cell_angle_beta                  93.182338
_cell_angle_gamma                 89.985292
_cell_volume                      4033.93570677

loop_
_atom_site_label
_atom_site_type_symbol
_atom_site_description
_atom_site_fract_x
_atom_site_fract_y
_atom_site_fract_z
_atom_type_partial_charge
O1    O     O_R   0.575320 0.380310 0.499960 -0.565679
O2    O     O_R   0.424680 0.619690 0.500040 -0.581829
O3    O     O_R   0.424640 0.380310 0.500000 -0.541290
O4    O     O_R   0.575360 0.619690 0.500000 -0.557861
C1    C     C_R   0.499962 0.340911 0.499582 0.894478
C2    C     C_R   0.500017 0.659100 0.499913 0.803776
O5    O     O_R   0.583590 0.499240 0.613900 -0.586082
O6    O     O_R   0.416410 0.500760 0.386100 -0.587826
O7    O     O_R   0.432900 0.499240 0.613940 -0.542484
O8    O     O_R   0.567100 0.500760 0.386060 -0.537023
C3    C     C_R   0.510511 0.496997 0.651105 0.863114
C4    C     C_R   0.489547 0.500964 0.348836 0.873115
Cu1   Cu    Cu3+1 0.589220 0.500000 0.499980 1.070191
Cu2   Cu    Cu3+1 0.410780 0.500000 0.500020 1.066002
C5    C     C_R   0.514575 0.486742 0.736726 -0.234838
C6    C     C_R   0.486649 0.502319 0.262744 -0.225797
C7    C     C_R   0.457972 0.426785 0.770449 0.268963
C8    C     C_R   0.548679 0.452079 0.224318 0.268069
C9    C     C_R   0.458024 0.418627 0.852079 -0.198875
C10   C     C_R   0.556584 0.461071 0.143340 -0.213486
C11   C     C_R   0.513211 0.470191 0.900351 0.189405
C12   C     C_R   0.499557 0.517831 0.099767 0.208031
C13   C     C_R   0.572905 0.528125 0.866993 0.319487
C14   C     C_R   0.437425 0.567738 0.138019 0.289556
C15   C     C_R   0.572770 0.536714 0.784962 -0.234848
C16   C     C_R   0.430652 0.559753 0.219602 -0.234020
N1    N     N_2   0.507888 0.460969 0.982421 -0.219257
N2    N     N_2   0.505466 0.528577 0.017762 -0.105946
H1    H     H_    0.634583 0.081824 0.464396 0.209288
H2    H     H_    0.365343 0.918227 0.534640 0.204318
C17   C     C_R   0.578819 0.958305 0.476511 0.355514
C18   C     C_R   0.421130 0.041741 0.522564 0.353725
C19   C     C_R   0.501429 0.912702 0.496454 -0.041303
C20   C     C_R   0.498505 0.087336 0.502584 -0.046446
C21   C     C_R   0.423746 0.954342 0.518751 -0.255309
C22   C     C_R   0.576181 0.045704 0.480281 -0.249006
C23   C     C_1   0.500709 0.823108 0.497773 0.085865
C24   C     C_1   0.499246 0.176919 0.501323 0.094130
C25   C     C_1   0.499875 0.251905 0.500281 -0.033208
C26   C     C_1   0.500102 0.748112 0.498937 -0.088582
H3    H     H_    0.082561 0.621440 0.447545 0.158966
H4    H     H_    0.917483 0.378562 0.552601 0.156690
C27   C     C_R   0.951044 0.569528 0.470054 -0.007829
C28   C     C_R   0.049006 0.430505 0.530151 -0.015209
C29   C     C_R   0.902816 0.500874 0.499698 -0.013479
C30   C     C_R   0.097212 0.499123 0.500421 -0.017457
C31   C     C_R   0.953121 0.431814 0.529564 -0.162091
C32   C     C_R   0.046916 0.568185 0.470575 -0.165058
C33   C     C_1   0.802613 0.500267 0.499935 0.202046
C34   C     C_1   0.197396 0.499726 0.500117 0.195440
N3    N     N_1   0.276710 0.499980 0.499980 -0.137436
N4    N     N_1   0.723290 0.500020 0.500020 -0.136600
N5    N     N_R   0.602809 0.390788 0.267681 0.137181
O9    O     O_R   0.564126 0.334682 0.310079 -0.363386
O10   O     O_R   0.690814 0.392255 0.266573 -0.316729
N6    N     N_R   0.402798 0.371959 0.721714 0.143186
O11   O     O_R   0.315529 0.368813 0.728333 -0.303353
O12   O     O_R   0.440542 0.321476 0.673962 -0.343556
C35   C     C_1   0.624426 0.412473 0.105779 0.486341
N7    N     N_1   0.678600 0.373548 0.075887 -0.172426
C36   C     C_1   0.401426 0.356284 0.887041 0.442059
N8    N     N_1   0.356237 0.306477 0.915049 -0.184687
N9    N     N_R   0.635596 0.575665 0.916151 0.148415
O13   O     O_R   0.690143 0.537916 0.967343 -0.309453
O14   O     O_R   0.638758 0.656662 0.909635 -0.288128
N10   N     N_R   0.380995 0.626342 0.093366 0.151501
O15   O     O_R   0.374429 0.703398 0.116099 -0.290278
O16   O     O_R   0.338448 0.603677 0.028276 -0.287722
C37   C     C_1   0.632623 0.596792 0.750588 0.400141
N11   N     N_1   0.680390 0.644754 0.723043 -0.209295
C38   C     C_1   0.366795 0.611299 0.258874 0.409563
N12   N     N_1   0.315825 0.652431 0.290331 -0.221551
N13   N     N_R   0.659942 0.917764 0.452648 0.145284
O17   O     O_R   0.737803 0.955709 0.460600 -0.299763
O18   O     O_R   0.655900 0.846485 0.416554 -0.314187
N14   N     N_R   0.340062 0.082290 0.546540 0.141860
O19   O     O_R   0.262171 0.044399 0.538587 -0.303312
O20   O     O_R   0.344198 0.153486 0.582775 -0.277739
C39   C     C_1   0.903413 0.642282 0.438790 0.277656
N15   N     N_1   0.865164 0.700596 0.413753 -0.155871
C40   C     C_1   0.096702 0.357888 0.561665 0.289857
N16   N     N_1   0.135026 0.299710 0.586916 -0.125627

loop_
_geom_bond_atom_site_label_1
_geom_bond_atom_site_label_2
_geom_bond_distance
_ccdc_geom_bond_type
N10   O16   1.301354 A    
N9    O14   1.301171 A    
N13   O17   1.301598 A    
C40   N16   1.157349 T    
N5    O9    1.301226 A    
O5    C3    1.283212 A    
H1    C22   1.084233 S    
H2    C21   1.084222 S    
O1    C1    1.279107 A    
C9    C11   1.401166 A    
N14   O20   1.301235 A    
C23   C26   1.200244 T    
C37   N11   1.157450 T    
C24   C25   1.200085 T    
C5    C15   1.411004 A    
C27   C39   1.443454 S    
N6    O11   1.301122 A    
C29   C31   1.407889 A    
O4    Cu1   1.926334 S    
C8    N5    1.439556 S    
C19   C21   1.399363 A    
C3    C5    1.469208 S    
C4    C6    1.469761 S    
C17   C19   1.412430 A    
C27   C32   1.415740 A    
C20   C22   1.399272 A    
C28   C31   1.415861 A    
C14   N10   1.440067 S    
C13   N9    1.437680 S    
N10   O15   1.301258 A    
C11   N1    1.415829 S    
C35   N7    1.157515 T    
C12   N2    1.418271 S    
Cu1   Cu2   2.635621 S    
C16   C38   1.449094 S    
N13   O18   1.301216 A    
O2    C2    1.279289 A    
C28   C30   1.415036 A    
N5    O10   1.301246 A    
C6    C16   1.411810 A    
C30   C32   1.407731 A    
C18   C21   1.401392 A    
C2    C26   1.424477 S    
N14   O19   1.301590 A    
O4    C2    1.278912 A    
C28   C40   1.443583 S    
C19   C23   1.433870 S    
C39   N15   1.157329 T    
C18   C20   1.412355 A    
O7    Cu2   1.956391 S    
Cu1   N4    1.980196 S    
C27   C29   1.415088 A    
Cu2   N3    1.980194 S    
C29   C33   1.480273 S    
O6    C4    1.284133 A    
C33   N4    1.171703 T    
C34   N3    1.171614 T    
C10   C35   1.449330 S    
O7    C3    1.279698 A    
C7    N6    1.437064 S    
O3    Cu2   1.926336 S    
O8    C4    1.279054 A    
C10   C12   1.417003 A    
C11   C13   1.417554 A    
C12   C14   1.408034 A    
C15   C37   1.449062 S    
C5    C7    1.412981 A    
O6    Cu2   1.953523 S    
C20   C24   1.433675 S    
C14   C16   1.408348 A    
O3    C1    1.279032 A    
O8    Cu1   1.956393 S    
C18   N14   1.442677 S    
C30   C34   1.480071 S    
C1    C25   1.424359 S    
C38   N12   1.157496 T    
C9    C36   1.448197 S    
C7    C9    1.400248 A    
H3    C32   1.084484 S    
N6    O12   1.300393 A    
C8    C10   1.401705 A    
H4    C31   1.084450 S    
C13   C15   1.407610 A    
C36   N8    1.157314 T    
O2    Cu2   1.926497 S    
C17   N13   1.442659 S    
N9    O13   1.300892 A    
O5    Cu1   1.953523 S    
O1    Cu1   1.926498 S    
C6    C8    1.411577 A    
N1    N2    1.245055 D    
C17   C22   1.401361 A    
