data_mof_unit_54660.cif
_audit_creation_date              2012-12-11T15:08:41-0500
_audit_creation_method            fapswitch 2.2
_symmetry_space_group_name_H-M    P1
_symmetry_Int_Tables_number       1
_space_group_crystal_system       triclinic
_cell_length_a                    19.368582
_cell_length_b                    11.347787
_cell_length_c                    18.67002
_cell_angle_alpha                 90.002008
_cell_angle_beta                  89.495607
_cell_angle_gamma                 90.000872
_cell_volume                      4103.33482505

loop_
_atom_site_label
_atom_site_type_symbol
_atom_type_description
_atom_site_fract_x
_atom_site_fract_y
_atom_site_fract_z
_atom_type_partial_charge
Br1   Br    Br    0.718897 0.922971 0.635684 -0.610553
Br2   Br    Br    0.281124 0.922994 0.364304 -0.610527
Br3   Br    Br    0.218873 0.423003 0.635695 -0.610541
Br4   Br    Br    0.781133 0.423065 0.364299 -0.610483
C1    C     C_R   0.272207 0.043472 0.854054 0.543942
C2    C     C_3   0.687800 0.528419 0.957053 -0.237917
C3    C     C_R   0.224692 0.539385 0.355783 0.557483
C4    C     C_R   0.471786 0.822824 0.647048 0.549963
C5    C     C_R   0.528213 0.822824 0.352952 0.549950
C6    C     C_R   0.971787 0.322823 0.647048 0.549964
C7    C     C_R   0.028209 0.322824 0.352950 0.549965
C8    C     C_R   0.272033 0.679607 0.636468 0.579861
C9    C     C_R   0.727947 0.679685 0.363526 0.579820
C10   C     C_R   0.772031 0.179602 0.636469 0.579881
C11   C     C_R   0.227967 0.179609 0.363534 0.579841
C12   C     C_3   0.479379 0.915842 0.035813 -0.108380
C13   C     C_3   0.812199 0.028422 0.042943 -0.237918
C14   C     C_3   0.520621 0.915841 0.964194 -0.108379
C15   C     C_3   0.979382 0.415839 0.035814 -0.108373
C16   C     C_3   0.020623 0.415839 0.964193 -0.108380
C17   C     C_3   0.431303 0.818446 0.006734 -0.157584
C18   C     C_3   0.568691 0.818439 0.993269 -0.157574
C19   C     C_3   0.931306 0.318443 0.006735 -0.157576
C20   C     C_3   0.068693 0.318437 0.993267 -0.157578
C21   C     C_3   0.472531 0.820048 0.935975 0.056321
C22   C     C_3   0.527463 0.820043 0.064028 0.056322
C23   C     C_3   0.972531 0.320047 0.935974 0.056317
C24   C     C_3   0.187800 0.028420 0.957052 -0.237917
C25   C     C_3   0.027468 0.320040 0.064027 0.056321
C26   C     C_3   0.321547 0.554019 0.962500 -0.235737
C27   C     C_3   0.678451 0.554015 0.037497 -0.235745
C28   C     C_3   0.821548 0.054018 0.962500 -0.235736
C29   C     C_3   0.178449 0.054016 0.037496 -0.235745
C30   C     C_3   0.179847 0.522729 0.026466 -0.212969
C31   C     C_3   0.820153 0.522731 0.973531 -0.212970
C32   C     C_3   0.679848 0.022729 0.026466 -0.212969
C33   C     C_R   0.727793 0.043469 0.145946 0.543945
C34   C     C_3   0.320151 0.022731 0.973531 -0.212970
C35   C     C_3   0.240395 0.706845 0.056759 -0.253175
C36   C     C_3   0.759608 0.706846 0.943247 -0.253182
C37   C     C_3   0.740395 0.206845 0.056760 -0.253176
C38   C     C_3   0.259607 0.206846 0.943246 -0.253182
C39   C     C_3   0.241226 0.574234 0.070202 0.063551
C40   C     C_3   0.758775 0.574235 0.929797 0.063557
C41   C     C_3   0.741227 0.074234 0.070203 0.063549
C42   C     C_3   0.258774 0.074236 0.929797 0.063557
C43   C     C_3   0.254807 0.610163 0.932113 0.049151
C44   C     C_R   0.772207 0.543471 0.854054 0.543945
C45   C     C_3   0.745191 0.610160 0.067887 0.049151
C46   C     C_3   0.754808 0.110163 0.932114 0.049152
C47   C     C_3   0.245189 0.110161 0.067886 0.049152
C48   C     C_3   0.194996 0.524473 0.945398 -0.249436
C49   C     C_3   0.805001 0.524470 0.054599 -0.249442
C50   C     C_3   0.694997 0.024473 0.945398 -0.249437
C51   C     C_3   0.305000 0.024472 0.054599 -0.249443
C52   C     C_3   0.238201 0.725088 0.974820 -0.230718
C53   C     C_3   0.761798 0.725086 0.025186 -0.230713
C54   C     C_3   0.738203 0.225088 0.974821 -0.230718
C55   C     C_R   0.227793 0.543469 0.145946 0.543940
C56   C     C_3   0.261797 0.225087 0.025186 -0.230713
C57   C     C_3   0.498433 0.698672 0.459867 -0.233547
C58   C     C_3   0.501605 0.698681 0.540140 -0.233559
C59   C     C_3   0.998390 0.198680 0.459859 -0.233540
C60   C     C_3   0.001588 0.198679 0.540131 -0.233550
C61   C     C_R   0.444811 0.817215 0.862437 0.534723
C62   C     C_R   0.555182 0.817213 0.137565 0.534746
C63   C     C_R   0.944813 0.317215 0.862434 0.534741
C64   C     C_R   0.055188 0.317212 0.137566 0.534741
C65   C     C_3   0.565178 0.895516 0.468798 -0.224551
C66   C     C_3   0.520144 0.723087 0.964428 -0.111528
C67   C     C_3   0.434806 0.895460 0.531203 -0.224532
C68   C     C_3   0.065184 0.395470 0.468795 -0.224547
C69   C     C_3   0.934815 0.395486 0.531204 -0.224533
C70   C     C_3   0.441095 0.891509 0.448193 -0.257861
C71   C     C_3   0.558889 0.891568 0.551808 -0.257879
C72   C     C_3   0.941099 0.391549 0.448194 -0.257887
C73   C     C_3   0.058896 0.391539 0.551805 -0.257891
C74   C     C_3   0.507611 0.826951 0.430020 0.059209
C75   C     C_3   0.492390 0.826953 0.569982 0.059220
C76   C     C_3   0.007601 0.326950 0.430016 0.059229
C77   C     C_3   0.479844 0.723088 0.035570 -0.111541
C78   C     C_3   0.992390 0.326950 0.569980 0.059206
C79   C     C_3   0.184394 0.669985 0.455443 -0.248633
C80   C     C_3   0.815599 0.669999 0.544562 -0.248623
C81   C     C_3   0.684393 0.169998 0.455445 -0.248655
C82   C     C_3   0.315599 0.169999 0.544562 -0.248635
C83   C     C_3   0.186707 0.677106 0.536079 -0.239369
C84   C     C_3   0.813290 0.677137 0.463923 -0.239360
C85   C     C_3   0.686700 0.177092 0.536080 -0.239368
C86   C     C_3   0.313290 0.177107 0.463926 -0.239370
C87   C     C_3   0.238065 0.472720 0.481922 -0.251684
C88   C     C_3   0.020146 0.223086 0.964426 -0.111528
C89   C     C_3   0.761911 0.472753 0.518064 -0.251697
C90   C     C_3   0.738081 0.972738 0.481908 -0.251696
C91   C     C_3   0.261931 0.972725 0.518079 -0.251677
C92   C     C_3   0.311624 0.629639 0.435010 -0.249243
C93   C     C_3   0.688353 0.629628 0.564981 -0.249359
C94   C     C_3   0.811626 0.129692 0.435016 -0.249253
C95   C     C_3   0.188369 0.129643 0.564988 -0.249256
C96   C     C_3   0.239689 0.578117 0.429353 0.048502
C97   C     C_3   0.760293 0.578134 0.570645 0.048525
C98   C     C_3   0.739697 0.078148 0.429353 0.048495
C99   C     C_3   0.979848 0.223086 0.035570 -0.111535
C100  C     C_3   0.260304 0.078130 0.570649 0.048501
C101  C     C_3   0.260508 0.637801 0.562424 0.078882
C102  C     C_3   0.739482 0.637872 0.437577 0.078898
C103  C     C_3   0.760506 0.137800 0.562426 0.078921
C104  C     C_3   0.239490 0.137799 0.437576 0.078890
C105  C     C_3   0.266172 0.503432 0.556479 0.026955
C106  C     C_3   0.733818 0.503498 0.443504 0.027053
C107  C     C_3   0.766184 0.003432 0.556471 0.026935
C108  C     C_3   0.233826 0.003427 0.443520 0.026959
C109  C     C_R   0.261918 0.641973 0.854955 0.562486
C110  C     C_3   0.312198 0.528421 0.042943 -0.237918
C111  C     C_R   0.738081 0.641971 0.145045 0.562500
C112  C     C_R   0.761918 0.141974 0.854955 0.562481
C113  C     C_R   0.238081 0.141972 0.145045 0.562490
C114  C     C_3   0.316477 0.684342 0.509990 -0.307881
C115  C     C_3   0.683530 0.684424 0.490041 -0.308147
C116  C     C_3   0.816471 0.184376 0.510003 -0.307843
C117  C     C_3   0.183519 0.184339 0.490008 -0.307876
C118  C     C_R   0.275299 0.039404 0.644219 0.557465
C119  C     C_R   0.724696 0.039398 0.355794 0.557403
C120  C     C_R   0.775295 0.539407 0.644216 0.557475
Cr1   Cr    Cr6+3 0.229620 0.836040 0.749110 1.006382
Cr2   Cr    Cr6+3 0.613980 0.676590 0.250790 1.018231
Cr3   Cr    Cr6+3 0.886020 0.176590 0.749210 1.018243
Cr4   Cr    Cr6+3 0.113980 0.176590 0.250790 1.018236
Cr5   Cr    Cr6+3 0.770380 0.836040 0.250890 1.006384
Cr6   Cr    Cr6+3 0.729620 0.336040 0.749110 1.006382
Cr7   Cr    Cr6+3 0.270380 0.336040 0.250890 1.006382
Cr8   Cr    Cr6+3 0.387630 0.990680 0.750730 1.011005
Cr9   Cr    Cr6+3 0.612370 0.990680 0.249270 1.011004
Cr10  Cr    Cr6+3 0.887630 0.490680 0.750730 1.011014
Cr11  Cr    Cr6+3 0.112370 0.490680 0.249270 1.011008
Cr12  Cr    Cr6+3 0.386020 0.676590 0.749210 1.018240
H1    H     H_    0.376205 0.805700 0.017500 0.092801
H2    H     H_    0.713168 0.746192 0.918968 0.112053
H3    H     H_    0.234869 0.898643 0.541722 0.106510
H4    H     H_    0.321129 0.474941 0.559526 0.139548
H5    H     H_    0.678860 0.474997 0.440441 0.139571
H6    H     H_    0.821146 0.974956 0.559513 0.139545
H7    H     H_    0.178869 0.974930 0.440473 0.139549
H8    H     H_    0.317819 0.434083 0.053002 0.130231
H9    H     H_    0.682180 0.434080 0.946990 0.130239
H10   H     H_    0.817821 0.934084 0.053003 0.130230
H11   H     H_    0.182178 0.934081 0.946989 0.130239
H12   H     H_    0.354103 0.571452 0.073534 0.113064
H13   H     H_    0.786835 0.246192 0.081041 0.112056
H14   H     H_    0.645896 0.571448 0.926464 0.113063
H15   H     H_    0.854104 0.071453 0.073534 0.113064
H16   H     H_    0.145896 0.071450 0.926463 0.113063
H17   H     H_    0.365996 0.614445 0.954445 0.135534
H18   H     H_    0.634003 0.614442 0.045554 0.135532
H19   H     H_    0.865996 0.114444 0.954445 0.135534
H20   H     H_    0.134002 0.114442 0.045553 0.135531
H21   H     H_    0.333859 0.470726 0.933653 0.122858
H22   H     H_    0.666137 0.470722 0.066340 0.122856
H23   H     H_    0.833859 0.970725 0.933653 0.122859
H24   H     H_    0.213168 0.246193 0.918966 0.112053
H25   H     H_    0.166136 0.970723 0.066339 0.122856
H26   H     H_    0.665081 0.937266 0.047632 0.097897
H27   H     H_    0.334919 0.937270 0.952360 0.097895
H28   H     H_    0.165080 0.437267 0.047632 0.097894
H29   H     H_    0.834921 0.437269 0.952360 0.097894
H30   H     H_    0.709006 0.936162 0.925655 0.119886
H31   H     H_    0.290986 0.936161 0.074335 0.119883
H32   H     H_    0.209007 0.436162 0.925655 0.119886
H33   H     H_    0.790988 0.436160 0.074335 0.119884
H34   H     H_    0.273294 0.794506 0.958282 0.106046
H35   H     H_    0.726705 0.794502 0.041728 0.106050
H36   H     H_    0.773298 0.294504 0.958283 0.106045
H37   H     H_    0.226702 0.294502 0.041727 0.106048
H38   H     H_    0.184720 0.751473 0.961242 0.130529
H39   H     H_    0.815280 0.751472 0.038767 0.130536
H40   H     H_    0.684722 0.251474 0.961242 0.130530
H41   H     H_    0.623790 0.805680 0.982504 0.092795
H42   H     H_    0.315278 0.251474 0.038767 0.130536
H43   H     H_    0.632667 0.077022 0.036002 0.138771
H44   H     H_    0.367333 0.077028 0.964000 0.138768
H45   H     H_    0.132667 0.577023 0.036002 0.138771
H46   H     H_    0.867334 0.577028 0.964000 0.138767
H47   H     H_    0.148321 0.553237 0.916014 0.130418
H48   H     H_    0.851676 0.553232 0.083985 0.130420
H49   H     H_    0.648322 0.053238 0.916015 0.130416
H50   H     H_    0.351675 0.053234 0.083985 0.130420
H51   H     H_    0.534242 0.630283 0.439837 0.139099
H52   H     H_    0.876206 0.305695 0.017497 0.092798
H53   H     H_    0.465824 0.630256 0.560172 0.139094
H54   H     H_    0.034165 0.130252 0.439815 0.139103
H55   H     H_    0.965813 0.130251 0.560176 0.139088
H56   H     H_    0.448297 0.663914 0.442066 0.115709
H57   H     H_    0.551748 0.663972 0.557947 0.115685
H58   H     H_    0.948238 0.163977 0.442072 0.115688
H59   H     H_    0.051738 0.163967 0.557914 0.115695
H60   H     H_    0.612564 0.858374 0.447135 0.098855
H61   H     H_    0.387425 0.858321 0.552870 0.098843
H62   H     H_    0.112563 0.358318 0.447133 0.098852
H63   H     H_    0.123792 0.305679 0.982503 0.092797
H64   H     H_    0.887429 0.358315 0.552859 0.098859
H65   H     H_    0.602711 0.843969 0.575004 0.166918
H66   H     H_    0.397286 0.843875 0.424995 0.166898
H67   H     H_    0.102712 0.343933 0.575004 0.166916
H68   H     H_    0.897269 0.343956 0.425001 0.166901
H69   H     H_    0.464380 0.996259 0.065788 0.116899
H70   H     H_    0.535623 0.996258 0.934223 0.116893
H71   H     H_    0.964383 0.496256 0.065790 0.116902
H72   H     H_    0.035623 0.496257 0.934222 0.116894
H73   H     H_    0.441921 0.982017 0.425464 0.136916
H74   H     H_    0.194669 0.749782 0.082131 0.133970
H75   H     H_    0.558044 0.982078 0.574538 0.136884
H76   H     H_    0.941948 0.482059 0.425470 0.136909
H77   H     H_    0.058056 0.482051 0.574529 0.136898
H78   H     H_    0.435987 0.989290 0.547798 0.129430
H79   H     H_    0.563997 0.989345 0.452192 0.129418
H80   H     H_    0.936000 0.489313 0.547817 0.129447
H81   H     H_    0.064006 0.489295 0.452195 0.129430
H82   H     H_    0.130687 0.646610 0.441200 0.130866
H83   H     H_    0.869301 0.646616 0.558804 0.130867
H84   H     H_    0.630686 0.146613 0.441201 0.130865
H85   H     H_    0.805335 0.749784 0.917879 0.133964
H86   H     H_    0.369306 0.146631 0.558808 0.130876
H87   H     H_    0.194709 0.757434 0.431531 0.181056
H88   H     H_    0.805295 0.757446 0.568481 0.181081
H89   H     H_    0.694707 0.257455 0.431544 0.181024
H90   H     H_    0.305281 0.257448 0.568473 0.181061
H91   H     H_    0.167958 0.764117 0.553748 0.119723
H92   H     H_    0.832062 0.764139 0.446262 0.119698
H93   H     H_    0.667943 0.264093 0.553756 0.119727
H94   H     H_    0.332044 0.264114 0.446257 0.119718
H95   H     H_    0.147276 0.616656 0.559146 0.165786
H96   H     H_    0.694668 0.249782 0.082131 0.133969
H97   H     H_    0.852709 0.616667 0.440851 0.165836
H98   H     H_    0.647271 0.116624 0.559137 0.165761
H99   H     H_    0.352722 0.116656 0.440861 0.165777
H100  H     H_    0.684781 0.955417 0.492393 0.137118
H101  H     H_    0.315226 0.955389 0.507580 0.137164
H102  H     H_    0.184768 0.455384 0.492423 0.137162
H103  H     H_    0.815208 0.455385 0.507560 0.137180
H104  H     H_    0.350757 0.558474 0.428463 0.118590
H105  H     H_    0.649227 0.558462 0.571456 0.118567
H106  H     H_    0.850765 0.058534 0.428465 0.118587
H107  H     H_    0.305335 0.249784 0.917878 0.133963
H108  H     H_    0.149239 0.058469 0.571531 0.118583
H109  H     H_    0.321615 0.694887 0.392102 0.174707
H110  H     H_    0.678322 0.694785 0.607911 0.174672
H111  H     H_    0.821611 0.194960 0.392117 0.174708
H112  H     H_    0.178371 0.194888 0.607898 0.174701
H113  H     H_    0.535487 0.642242 0.935051 0.124203
H114  H     H_    0.464501 0.642244 0.064945 0.124197
H115  H     H_    0.035487 0.142240 0.935048 0.124204
H116  H     H_    0.964506 0.142240 0.064944 0.124198
H117  H     H_    0.308003 0.775462 0.500823 0.137223
H118  H     H_    0.286836 0.746193 0.081039 0.112056
H119  H     H_    0.692065 0.775493 0.499320 0.137499
H120  H     H_    0.807981 0.275503 0.500854 0.137164
H121  H     H_    0.191990 0.275460 0.499174 0.137222
H122  H     H_    0.366994 0.668815 0.532481 0.116941
H123  H     H_    0.633015 0.669017 0.467560 0.116968
H124  H     H_    0.866996 0.168861 0.532495 0.116928
H125  H     H_    0.133004 0.168795 0.467513 0.116941
H126  H     H_    0.265134 0.398639 0.458277 0.106513
H127  H     H_    0.734785 0.398707 0.541691 0.106522
H128  H     H_    0.765136 0.898647 0.458260 0.106502
O1    O     O_R   0.214130 0.708570 0.829890 -0.517204
O2    O     O_R   0.542830 0.717300 0.331620 -0.534741
O3    O     O_R   0.957170 0.217300 0.668380 -0.534730
O4    O     O_R   0.042830 0.217300 0.331620 -0.534736
O5    O     O_R   0.320870 0.624890 0.673130 -0.468402
O6    O     O_R   0.679130 0.624890 0.326870 -0.468388
O7    O     O_R   0.820870 0.124890 0.673130 -0.468404
O8    O     O_R   0.179130 0.124890 0.326870 -0.468400
O9    O     O_3   0.334430 0.834430 0.749680 -0.314005
O10   O     O_3   0.665570 0.834430 0.250320 -0.314040
O11   O     O_3   0.834430 0.334430 0.749680 -0.314003
O12   O     O_R   0.785870 0.708570 0.170110 -0.517204
O13   O     O_3   0.165570 0.334430 0.250320 -0.314012
O14   O     O_R   0.236050 0.959150 0.825270 -0.514678
O15   O     O_R   0.763950 0.959150 0.174730 -0.514672
O16   O     O_R   0.736050 0.459150 0.825270 -0.514677
O17   O     O_R   0.263950 0.459150 0.174730 -0.514675
O18   O     O_R   0.332100 0.076650 0.832310 -0.525772
O19   O     O_R   0.667900 0.076650 0.167690 -0.525765
O20   O     O_R   0.832100 0.576650 0.832310 -0.525769
O21   O     O_R   0.167900 0.576650 0.167690 -0.525769
O22   O     O_R   0.446500 0.918620 0.826240 -0.499032
O23   O     O_R   0.714130 0.208570 0.829890 -0.517209
O24   O     O_R   0.553500 0.918620 0.173760 -0.499036
O25   O     O_R   0.946500 0.418620 0.826240 -0.499040
O26   O     O_R   0.053500 0.418620 0.173760 -0.499038
O27   O     O_R   0.457310 0.715830 0.831280 -0.522049
O28   O     O_R   0.542690 0.715830 0.168720 -0.522057
O29   O     O_R   0.957310 0.215830 0.831280 -0.522058
O30   O     O_R   0.042690 0.215830 0.168720 -0.522058
O31   O     O_R   0.321000 0.623520 0.824130 -0.505150
O32   O     O_R   0.679000 0.623520 0.175870 -0.505145
O33   O     O_R   0.821000 0.123520 0.824130 -0.505149
O34   O     O_R   0.285870 0.208570 0.170110 -0.517207
O35   O     O_R   0.179000 0.123520 0.175870 -0.505149
O36   O     O_R   0.213990 0.710040 0.667000 -0.495583
O37   O     O_R   0.786010 0.710040 0.333000 -0.495543
O38   O     O_R   0.713990 0.210040 0.667000 -0.495600
O39   O     O_R   0.286010 0.210040 0.333000 -0.495578
O40   O     O_R   0.235920 0.960520 0.674260 -0.526351
O41   O     O_R   0.764080 0.960520 0.325740 -0.526346
O42   O     O_R   0.735920 0.460520 0.674260 -0.526336
O43   O     O_R   0.264080 0.460520 0.325740 -0.526358
O44   O     O_R   0.331960 0.078120 0.669410 -0.516985
O45   O     O_R   0.446360 0.919990 0.675230 -0.506088
O46   O     O_R   0.668040 0.078120 0.330590 -0.516958
O47   O     O_R   0.831960 0.578120 0.669410 -0.516969
O48   O     O_R   0.168040 0.578120 0.330590 -0.516984
O49   O     O_R   0.553640 0.919990 0.324770 -0.506085
O50   O     O_R   0.946360 0.419990 0.675230 -0.506086
O51   O     O_R   0.053640 0.419990 0.324770 -0.506088
O52   O     O_R   0.457170 0.717300 0.668380 -0.534730

loop_
_geom_bond_atom_site_label_1
_geom_bond_atom_site_label_2
_ccdc_geom_bond_type
C15   H71   S    
C31   C49   S    
Cr9   O46   S    
C90   H128  S    
C15   C16   S    
C17   H1    S    
C44   O20   A    
C29   H20   S    
Cr1   O9    S    
Cr4   O30   S    
Cr3   O3    S    
C118  O40   A    
C19   H52   S    
C37   H13   S    
C60   H59   S    
C90   C107  S    
C107  H6    S    
Cr1   O40   S    
Cr5   O41   S    
C19   C99   S    
C34   C51   S    
C36   H2    S    
Cr11  O21   S    
C51   H31   S    
C87   C96   S    
C77   H114  S    
C89   C106  S    
C95   C117  S    
C79   H87   S    
C32   C50   S    
C2    C40   S    
C4    O52   A    
Cr5   O10   S    
C13   H15   S    
C32   H43   S    
Cr2   O32   S    
C44   O16   A    
C8    O5    A    
C82   C86   S    
C89   C97   S    
C79   H82   S    
C10   O7    A    
Cr6   O42   S    
Cr9   O19   S    
C6    C78   S    
C52   H38   S    
C11   C104  S    
C29   H25   S    
C25   C64   S    
C26   C43   S    
C35   C52   S    
Br2   C108  S    
C10   O38   A    
C89   H127  S    
C66   H113  S    
Cr11  O51   S    
C10   C103  S    
C45   C111  S    
C24   C29   S    
C22   C77   S    
C79   C96   S    
C101  C114  S    
C33   C41   S    
C98   C119  S    
C92   H109  S    
C113  O35   A    
C24   H11   S    
Cr1   O1    S    
Cr2   O6    S    
C80   C84   S    
Cr3   O11   S    
C9    C102  S    
Cr12  O27   S    
C94   C116  S    
C43   C48   S    
C114  H122  S    
C67   H78   S    
C1    C42   S    
C63   O25   A    
C91   H3    S    
C36   H85   S    
C62   O24   A    
C13   H10   S    
C3    O48   A    
C45   C49   S    
C86   H99   S    
C119  O46   A    
C47   C51   S    
C94   H106  S    
C90   C98   S    
C13   C28   S    
C37   C41   S    
Cr5   O12   S    
C71   C75   S    
C40   C44   S    
C12   C17   S    
C120  O42   A    
Cr12  O9    S    
Cr10  O25   S    
C82   C100  S    
C67   C75   S    
C103  C116  S    
C84   H97   S    
C55   O21   A    
C24   C42   S    
C30   H45   S    
C73   C78   S    
Cr7   O39   S    
C80   H83   S    
C13   C41   S    
C37   C54   S    
C30   H28   S    
C100  C118  S    
Cr1   O14   S    
C45   C53   S    
C120  O47   A    
C91   H101  S    
C95   H108  S    
C53   H39   S    
C50   H49   S    
C7    O4    A    
Cr7   O34   S    
Cr8   O45   S    
C39   C55   S    
Cr3   O29   S    
C72   H76   S    
Cr2   O10   S    
C3    O43   A    
Cr3   O7    S    
C118  O44   A    
Cr10  O11   S    
Cr4   O8    S    
C18   H41   S    
C20   C88   S    
C5    O49   A    
C59   C76   S    
C97   C120  S    
C70   H73   S    
C1    O18   A    
C22   C62   S    
C23   C88   S    
C12   H69   S    
Cr1   O36   S    
C93   H105  S    
Cr10  O20   S    
C93   C115  S    
C106  H5    S    
C114  H117  S    
C83   C101  S    
C11   O39   A    
Cr9   O24   S    
C60   C78   S    
C59   H58   S    
Cr2   O28   S    
C34   H27   S    
C112  O33   A    
C70   C74   S    
C81   H89   S    
C11   O8    A    
Cr7   O17   S    
C27   H18   S    
C17   C21   S    
C52   H34   S    
C14   C18   S    
C103  C107  S    
C38   H24   S    
C1    O14   A    
C72   C76   S    
C79   C83   S    
C59   H54   S    
C86   C104  S    
C68   C76   S    
C84   H92   S    
C89   H103  S    
Cr8   O9    S    
C92   C96   S    
C47   C113  S    
C95   C100  S    
C57   C58   S    
C34   C42   S    
C23   C63   S    
C59   C60   S    
C36   C40   S    
C86   H94   S    
C47   C56   S    
C18   C66   S    
C81   C98   S    
C117  H121  S    
C43   C52   S    
C109  O31   A    
C26   H21   S    
C115  H123  S    
C64   O26   A    
C102  C115  S    
Cr9   O49   S    
C104  C117  S    
C71   H65   S    
C73   H77   S    
C14   C21   S    
C71   H75   S    
C46   C50   S    
C105  H4    S    
C108  H7    S    
C81   H84   S    
C50   H30   S    
C91   C108  S    
C39   C110  S    
C8    C101  S    
C56   H42   S    
C69   H64   S    
C38   H107  S    
C57   H51   S    
C112  O23   A    
C38   C42   S    
C51   H50   S    
C20   C25   S    
C101  C105  S    
C111  O12   A    
C4    C75   S    
Cr12  O5    S    
C33   O19   A    
C49   H33   S    
Cr10  O47   S    
C28   H23   S    
C2    C27   S    
C55   O17   A    
Cr6   O38   S    
C32   H26   S    
C56   H37   S    
C92   H104  S    
Cr8   O44   S    
C73   H67   S    
C58   H53   S    
C12   C22   S    
C54   H40   S    
C34   H44   S    
C3    C96   S    
C30   C39   S    
C46   C54   S    
C80   H88   S    
C49   H48   S    
C93   H110  S    
C2    H9    S    
C81   C85   S    
C70   H66   S    
Cr10  O50   S    
C113  O34   A    
C104  C108  S    
C35   H74   S    
C61   O22   A    
C110  H8    S    
C54   H36   S    
C94   C98   S    
Cr3   O33   S    
C37   H96   S    
C85   C103  S    
Cr4   O4    S    
Cr11  O48   S    
C33   O15   A    
C6    O50   A    
C83   H91   S    
C69   C72   S    
C15   C25   S    
C69   C78   S    
C60   H55   S    
Cr4   O35   S    
C26   C110  S    
C43   C109  S    
Br4   C106  S    
C36   C53   S    
Cr11  O13   S    
Cr6   O23   S    
C115  H119  S    
C67   C70   S    
C16   C23   S    
C29   C47   S    
C5    O2    A    
C30   C48   S    
C14   H70   S    
C110  H12   S    
C116  H124  S    
Br1   C107  S    
Br3   C105  S    
C87   H102  S    
C65   C71   S    
C5    C74   S    
Cr6   O16   S    
Cr11  O26   S    
Cr7   O13   S    
C27   H22   S    
C7    C76   S    
C68   H62   S    
C2    H14   S    
C18   C22   S    
C21   C66   S    
C58   H57   S    
C15   C19   S    
C65   H79   S    
C48   H47   S    
C27   C45   S    
C35   H118  S    
Cr12  O52   S    
C31   H46   S    
C68   H81   S    
C99   H116  S    
C92   C114  S    
C83   H95   S    
C25   C99   S    
C66   C77   S    
C88   C99   S    
C117  H125  S    
C26   H17   S    
Cr8   O22   S    
C16   C20   S    
C20   H63   S    
C64   O30   A    
C4    O45   A    
C57   H56   S    
C19   C23   S    
C61   O27   A    
C62   O28   A    
C8    O36   A    
C9    O37   A    
C80   C97   S    
C65   C74   S    
C67   H61   S    
C6    O3    A    
C58   C75   S    
C21   C61   S    
C38   C56   S    
C35   C39   S    
C65   H60   S    
C85   H98   S    
C116  H120  S    
C68   C73   S    
Cr12  O31   S    
C28   H19   S    
C84   C102  S    
C57   C74   S    
C63   O29   A    
C32   C41   S    
C69   H80   S    
C31   C40   S    
C28   C46   S    
C87   H126  S    
C17   C77   S    
C24   H16   S    
C82   H90   S    
C16   H72   S    
Cr4   O13   S    
C91   C100  S    
C102  C106  S    
C88   H115  S    
Cr9   O10   S    
C111  O32   A    
Cr2   O2    S    
C72   H68   S    
C119  O41   A    
C87   C105  S    
C95   H112  S    
C94   H111  S    
C9    O6    A    
C48   H32   S    
C90   H100  S    
C7    O51   A    
C31   H29   S    
Cr5   O15   S    
C46   C112  S    
Cr8   O18   S    
C109  O1    A    
Cr7   O43   S    
C12   C14   S    
Cr5   O37   S    
C82   H86   S    
C85   H93   S    
Cr6   O11   S    
C93   C97   S    
C53   H35   S    
