data_mof_unit_61252.cif
_audit_creation_date              2013-03-05T16:07:50-0500
_audit_creation_method            fapswitch 2.2
_symmetry_space_group_name_H-M    P1
_symmetry_Int_Tables_number       1
_space_group_crystal_system       triclinic
_cell_length_a                    6.956143
_cell_length_b                    17.342271
_cell_length_c                    18.748264
_cell_angle_alpha                 106.326062
_cell_angle_beta                  89.692068
_cell_angle_gamma                 90.5009
_cell_volume                      2170.4123506

loop_
_atom_site_label
_atom_site_type_symbol
_atom_site_description
_atom_site_fract_x
_atom_site_fract_y
_atom_site_fract_z
_atom_type_partial_charge
O1    O     O_R   0.494360 0.415680 0.413760 -0.588996
O2    O     O_R   0.818780 0.432910 0.557230 -0.568586
O3    O     O_R   0.994290 0.584320 0.586240 -0.594069
C1    C     C_R   0.649782 0.416006 0.580651 0.978482
O4    O     O_R   0.823730 0.406440 0.412520 -0.584891
O5    O     O_R   0.999270 0.557660 0.440500 -0.573792
C2    C     C_R   0.654804 0.383659 0.384787 0.972910
O6    O     O_R   0.489370 0.442340 0.559500 -0.568436
O7    O     O_3   0.662510 0.549640 0.509350 -0.272917
V1    V     V_3+5 0.935340 0.490790 0.498270 1.172100
O8    O     O_R   0.329300 0.567090 0.442770 -0.571441
C3    C     C_R   0.161205 0.584098 0.419433 0.960682
O9    O     O_R   0.324340 0.593560 0.587480 -0.594843
C4    C     C_R   0.155536 0.616535 0.615192 0.950105
V2    V     V_3+5 0.435970 0.509210 0.501730 1.164694
O10   O     O_3   0.158930 0.450360 0.490650 -0.257335
C5    C     C_R   0.014715 0.747163 0.691650 0.150968
C6    C     C_R   0.148827 0.685466 0.682939 -0.220210
C7    C     C_R   0.281920 0.692097 0.740803 -0.179928
H1    H     H_    0.388955 0.645877 0.735824 0.139313
C8    C     C_R   0.267412 0.753971 0.808209 0.212875
C9    C     C_R   0.124003 0.813803 0.817510 -0.266525
C10   C     C_R   0.004417 0.810259 0.756723 0.144559
C11   C     C_3   0.789471 0.811882 0.753101 -0.302758
C12   C     C_3   0.801801 0.743475 0.681396 -0.512095
H2    H     H_    0.720268 0.794027 0.799437 0.169187
H3    H     H_    0.759020 0.759902 0.630507 0.199872
H4    H     H_    0.737830 0.686318 0.686629 0.208498
C13   C     C_1   0.111995 0.864136 0.132787 -0.252482
C14   C     C_1   0.119529 0.821718 0.176478 0.101292
C15   C     C_1   0.128912 0.771562 0.228421 0.018476
C16   C     C_1   0.136863 0.729236 0.272197 0.012545
C17   C     C_1   0.146115 0.678905 0.324003 0.076540
C18   C     C_1   0.153475 0.636217 0.367478 -0.310525
C19   C     C_1   0.641180 0.363993 0.632623 -0.279581
C20   C     C_1   0.637069 0.321288 0.676100 0.094578
C21   C     C_1   0.633838 0.270934 0.727900 0.021179
C22   C     C_1   0.631463 0.228565 0.771685 0.018935
C23   C     C_1   0.628231 0.178338 0.823595 0.087671
C24   C     C_1   0.624115 0.135819 0.867231 -0.244049
C25   C     C_R   0.492219 0.262504 0.301044 0.076954
C26   C     C_R   0.643893 0.317908 0.314870 -0.175167
C27   C     C_R   0.776729 0.313028 0.256740 -0.182986
H5    H     H_    0.888671 0.358433 0.264130 0.155522
C28   C     C_R   0.764347 0.251098 0.188561 -0.062594
C29   C     C_R   0.620574 0.189661 0.179641 -0.241385
C30   C     C_R   0.483559 0.199720 0.236587 0.092141
C31   C     C_3   0.386606 0.144679 0.275282 -0.080741
C32   C     C_3   0.397752 0.214915 0.347073 -0.082160
H6    H     H_    0.254827 0.240166 0.367392 0.175720
O11   O     O_R   0.775950 0.057750 0.940570 -0.548882
O12   O     O_R   0.441430 0.093570 0.087490 -0.595775
O13   O     O_R   0.266040 0.942320 0.059480 -0.567631
C33   C     C_R   0.610646 0.118009 0.114024 1.037432
O14   O     O_R   0.446530 0.067110 0.942790 -0.588702
O15   O     O_R   0.271180 0.915660 0.913750 -0.571484
C34   C     C_R   0.615522 0.083988 0.919348 0.992692
O16   O     O_R   0.770810 0.084400 0.086300 -0.556280
O17   O     O_3   0.602860 0.950400 0.990690 -0.257851
V3    V     V_3+5 0.329970 0.009200 0.001730 1.220269
O18   O     O_R   0.941130 0.906360 0.912450 -0.602162
C35   C     C_R   0.110603 0.882161 0.885748 0.989772
O19   O     O_R   0.936030 0.932820 0.057160 -0.560660
C36   C     C_R   0.104143 0.915891 0.080546 0.993140
V4    V     V_3+5 0.829350 0.990680 0.998180 1.242876
O20   O     O_3   0.106340 0.049590 0.009310 -0.250164
I1    I     I_    0.099395 0.116328 0.236851 -0.281882
I2    I     I_    0.579645 0.200626 0.435625 -0.318058
I3    I     I_    0.441637 0.743337 0.897759 -0.422741
C37   C     C_2   0.708717 0.888260 0.742573 1.071555
O21   O     O_2   0.811495 0.947360 0.748629 -0.655072
O22   O     O_R   0.513054 0.891340 0.727235 -0.794424
H7    H     H_    0.473335 0.945735 0.722365 0.322819
C38   C     C_2   0.903561 0.253374 0.128850 1.027634
O23   O     O_2   0.856623 0.229390 0.063522 -0.669188
O24   O     O_R   0.087673 0.285558 0.147593 -0.797757
H8    H     H_    0.169821 0.283784 0.102332 0.326665
C39   C     C_2   0.494025 0.069794 0.277199 1.087278
O25   O     O_2   0.644096 0.051062 0.242798 -0.647527
O26   O     O_R   0.417712 0.021003 0.318524 -0.744599
H9    H     H_    0.500015 0.972255 0.315657 0.331401

loop_
_geom_bond_atom_site_label_1
_geom_bond_atom_site_label_2
_geom_bond_distance
_ccdc_geom_bond_type
O19   V4    1.850926 S    
C32   I2    2.162855 S    
C25   C26   1.395970 A    
C4    C6    1.480268 S    
C7    H1    1.083132 S    
C1    O6    1.313930 A    
C11   C37   1.506715 S    
C28   C29   1.430512 A    
C12   H4    1.112063 S    
C13   C14   1.246902 T    
C38   O24   1.399037 S    
C20   C21   1.477315 S    
C7    C8    1.413081 A    
C11   H2    1.107424 S    
O5    C3    1.312664 A    
C14   C15   1.478891 S    
O13   C36   1.312363 A    
C39   O26   1.397965 S    
V2    O10   2.156227 S    
C6    C7    1.409274 A    
O11   V4    1.837293 S    
C2    C26   1.477656 S    
C31   C39   1.513176 S    
O12   V3    1.999531 S    
O8    V2    1.850860 S    
C30   C31   1.505012 S    
C10   C11   1.497972 S    
C37   O21   1.223572 D    
O11   C34   1.313836 A    
O7    V1    2.144063 S    
O14   V3    1.867388 S    
C13   C36   1.504503 S    
V3    O20   1.700425 S    
O17   V3    2.144070 S    
O9    C4    1.301047 A    
C25   C32   1.497482 S    
O13   V3    1.845832 S    
O12   C33   1.300645 A    
C17   C18   1.247149 T    
C38   O23   1.222786 D    
O24   H8    1.013885 S    
C23   C24   1.245939 T    
O4    C2    1.300074 A    
C39   O25   1.221541 D    
O22   H7    1.013810 S    
O15   V3    2.002708 S    
C8    I3    2.126343 S    
C28   C38   1.484962 S    
C19   C20   1.245992 T    
O2    C1    1.312064 A    
C27   H5    1.083836 S    
C21   C22   1.246087 T    
C9    C35   1.482825 S    
O16   V4    2.007890 S    
C15   C16   1.247121 T    
C29   C33   1.484001 S    
C5    C6    1.399777 A    
C25   C30   1.381829 A    
C5    C10   1.393117 A    
C11   C12   1.525100 S    
C27   C28   1.422164 A    
O3    C4    1.299985 A    
O1    V2    2.004094 S    
C31   C32   1.542418 S    
V4    O20   2.156343 S    
O6    V2    1.836822 S    
O14   C34   1.312043 A    
O15   C35   1.297798 A    
C26   C27   1.409754 A    
C3    C18   1.505016 S    
O2    V1    1.867301 S    
C33   O16   1.298450 A    
C29   C30   1.402109 A    
C24   C34   1.502819 S    
O1    C2    1.297609 A    
O26   H9    1.013875 S    
O5    V1    1.845982 S    
O8    C3    1.315199 A    
C12   H3    1.112339 S    
C5    C12   1.493012 S    
C16   C17   1.479085 S    
O9    V2    2.002920 S    
O7    V2    1.709412 S    
O4    V1    1.999647 S    
O3    V1    2.002719 S    
V1    O10   1.700417 S    
O17   V4    1.708176 S    
C22   C23   1.477309 S    
C31   I1    2.133432 S    
O18   C35   1.304098 A    
C1    C19   1.503077 S    
O19   C36   1.315240 A    
O18   V4    2.002840 S    
C32   H6    1.111339 S    
C9    C10   1.401608 A    
C37   O22   1.397186 S    
C8    C9    1.420117 A    
