data_mof_unit_5986.cif
_audit_creation_date              2012-12-11T17:45:21-0500
_audit_creation_method            fapswitch 2.2
_symmetry_space_group_name_H-M    P1
_symmetry_Int_Tables_number       1
_space_group_crystal_system       triclinic
_cell_length_a                    14.985435
_cell_length_b                    14.853998
_cell_length_c                    15.139452
_cell_angle_alpha                 110.188749
_cell_angle_beta                  108.459523
_cell_angle_gamma                 108.988198
_cell_volume                      2618.29950649

loop_
_atom_site_label
_atom_site_type_symbol
_atom_type_description
_atom_site_fract_x
_atom_site_fract_y
_atom_site_fract_z
_atom_type_partial_charge
C1    C     C_R   0.976576 0.251466 0.064473 -0.118014
C2    C     C_R   0.320800 0.790621 0.323080 0.139272
C3    C     C_R   0.298917 0.501236 0.928116 0.039986
C4    C     C_R   0.941325 0.498572 0.303314 0.067074
C5    C     C_R   0.686886 0.408604 0.937386 -0.139501
C6    C     C_R   0.022786 0.595246 0.784460 -0.133089
C7    C     C_R   0.793191 0.198469 0.699488 -0.136964
C8    C     C_R   0.001525 0.804128 0.097038 -0.138232
C9    C     C_R   0.093348 0.806079 0.007485 -0.150797
C10   C     C_R   0.703668 0.195931 0.791582 -0.173243
C11   C     C_R   0.777181 0.593077 0.029005 -0.143630
C12   C     C_R   0.313471 0.762576 0.222502 -0.079806
C13   C     C_R   0.942597 0.411956 0.687494 -0.124154
C14   C     C_R   0.675811 0.501155 0.955001 0.027433
C15   C     C_R   0.960572 0.507965 0.682379 0.044516
C16   C     C_R   0.702429 0.134959 0.698245 0.101639
C17   C     C_R   0.061859 0.869707 0.069335 0.058990
C18   C     C_R   0.609196 0.183755 0.123936 0.215430
C19   C     C_R   0.689540 0.291397 0.207046 -0.229032
C20   C     C_R   0.768738 0.307946 0.300417 0.095930
C21   C     C_R   0.765327 0.216151 0.310296 -0.160252
C22   C     C_R   0.682535 0.110752 0.231229 -0.128395
C23   C     C_R   0.208444 0.409707 0.900729 -0.150417
C24   C     C_R   0.605250 0.094209 0.138256 -0.141510
C25   C     C_R   0.854977 0.433279 0.492209 -0.243182
C26   C     C_R   0.945702 0.518403 0.588363 0.062297
C27   C     C_R   0.026959 0.602127 0.589921 0.024535
C28   C     C_R   0.013879 0.596376 0.494067 -0.233736
C29   C     C_R   0.929680 0.503731 0.396037 0.061998
C30   C     C_R   0.849415 0.418874 0.394602 0.045626
C31   C     C_R   0.149084 0.801947 0.723259 -0.180950
C32   C     C_R   0.233383 0.885622 0.825444 -0.134338
C33   C     C_R   0.301563 0.862857 0.890037 -0.163354
C34   C     C_R   0.995672 0.590304 0.298389 -0.145214
C35   C     C_R   0.288851 0.757288 0.850999 -0.051121
C36   C     C_R   0.204473 0.672712 0.748700 -0.048230
C37   C     C_R   0.129593 0.693428 0.687355 0.074688
C38   C     C_R   0.193188 0.021832 0.400056 -0.112678
C39   C     C_R   0.284842 0.010296 0.415114 -0.132205
C40   C     C_R   0.321184 0.972312 0.484491 0.146389
C41   C     C_R   0.265650 0.947188 0.539456 -0.183784
C42   C     C_R   0.173005 0.957140 0.522767 -0.139525
C43   C     C_R   0.136971 0.994819 0.453427 -0.098667
C44   C     C_R   0.512105 0.039899 0.588574 -0.241216
C45   C     C_R   0.298715 0.591723 0.994489 -0.100082
C46   C     C_R   0.608002 0.037025 0.606357 0.017169
C47   C     C_R   0.609010 0.946890 0.534124 -0.127968
C48   C     C_R   0.511498 0.861666 0.442609 0.423573
C49   C     C_R   0.417052 0.869403 0.424017 -0.086550
C50   C     C_R   0.416895 0.957661 0.499135 -0.026327
C51   C     C_R   0.771749 0.976522 0.510043 -0.128930
C52   C     C_R   0.846998 0.942783 0.501271 -0.111011
C53   C     C_R   0.851250 0.860662 0.524415 -0.110436
C54   C     C_R   0.783628 0.815719 0.560874 -0.087766
C55   C     C_R   0.714578 0.855505 0.578181 -0.080302
C56   C     C_R   0.911312 0.407538 0.210767 -0.143002
C57   C     C_R   0.706393 0.934912 0.550916 0.171093
C58   C     C_3   0.475657 0.401961 0.830725 -0.377122
C59   C     C_3   0.370192 0.398089 0.826149 -0.355980
C60   C     C_3   0.557959 0.492685 0.033420 -0.411747
C61   C     C_3   0.578675 0.608218 0.945190 -0.478633
C62   C     C_3   0.573784 0.500675 0.939771 0.330767
C63   C     C_3   0.396452 0.501499 0.925499 0.247001
C64   C     C_3   0.458604 0.501420 0.029359 -0.450622
C65   C     C_3   0.470317 0.605054 0.926811 0.344814
C66   C     C_R   0.117176 0.052577 0.779201 -0.183512
C67   C     C_R   0.218760 0.750531 0.311606 -0.114065
C68   C     C_R   0.096260 0.051081 0.862929 0.169504
C69   C     C_R   0.180503 0.124333 0.970869 0.053616
C70   C     C_R   0.283522 0.192937 0.992080 -0.215974
C71   C     C_R   0.302898 0.190986 0.907467 -0.143590
C72   C     C_R   0.219883 0.121906 0.801447 -0.174308
C73   C     C_R   0.170597 0.042802 0.081844 -0.217817
C74   C     C_R   0.096762 0.987523 0.107759 0.053047
C75   C     C_R   0.047326 0.042487 0.153490 -0.014766
C76   C     C_R   0.072506 0.146896 0.167427 -0.205210
C77   C     C_R   0.107237 0.175234 0.100563 0.054405
C78   C     C_R   0.073299 0.259394 0.978777 -0.127066
C79   C     C_R   0.162592 0.124671 0.061023 0.036760
C80   C     C_R   0.849761 0.918844 0.056008 -0.140675
C81   C     C_R   0.750974 0.878186 0.054457 -0.143983
C82   C     C_R   0.747665 0.903234 0.150694 -0.101713
C83   C     C_R   0.842950 0.973452 0.248760 -0.097202
C84   C     C_R   0.941947 0.016686 0.250688 -0.187197
C85   C     C_R   0.946311 0.986514 0.154112 0.120008
C86   C     C_R   0.057953 0.230285 0.052726 0.052695
H1    H     H_    0.941838 0.237439 0.113840 0.098244
H2    H     H_    0.048274 0.680594 0.809634 0.125872
H3    H     H_    0.821549 0.175879 0.642817 0.090092
H4    H     H_    0.981147 0.831027 0.160085 0.114221
H5    H     H_    0.153662 0.834158 0.984640 0.097128
H6    H     H_    0.648139 0.167836 0.818923 0.119272
H7    H     H_    0.797940 0.678582 0.065654 0.114816
H8    H     H_    0.898108 0.328413 0.621413 0.091741
H9    H     H_    0.543187 0.011068 0.077273 0.099963
H10   H     H_    0.690965 0.361552 0.199121 0.121118
H11   H     H_    0.378071 0.785175 0.203307 0.125590
H12   H     H_    0.825119 0.226608 0.381655 0.112457
H13   H     H_    0.677707 0.041892 0.242769 0.118592
H14   H     H_    0.793292 0.370743 0.493315 0.134858
H15   H     H_    0.078484 0.660023 0.497343 0.133362
H16   H     H_    0.096034 0.820619 0.674374 0.106727
H17   H     H_    0.244574 0.967693 0.856220 0.151610
H18   H     H_    0.363441 0.926903 0.970648 0.104569
H19   H     H_    0.342261 0.740879 0.902014 0.141037
H20   H     H_    0.192151 0.589823 0.721088 0.153785
H21   H     H_    0.065439 0.002751 0.441157 0.096786
H22   H     H_    0.179463 0.325122 0.844111 0.107940
H23   H     H_    0.166008 0.051441 0.346738 0.117948
H24   H     H_    0.327033 0.030177 0.372434 0.113881
H25   H     H_    0.291640 0.915902 0.591735 0.133782
H26   H     H_    0.128825 0.935021 0.563068 0.104385
H27   H     H_    0.511505 0.110318 0.642319 0.145956
H28   H     H_    0.761130 0.031021 0.480350 0.091003
H29   H     H_    0.898949 0.976702 0.472252 0.093393
H30   H     H_    0.905873 0.830792 0.512706 0.094071
H31   H     H_    0.783110 0.748404 0.573669 0.131133
H32   H     H_    0.017589 0.674292 0.349828 0.097350
H33   H     H_    0.660700 0.817643 0.603863 0.124330
H34   H     H_    0.470562 0.322324 0.819708 0.135214
H35   H     H_    0.483570 0.410548 0.763034 0.190857
H36   H     H_    0.319829 0.391371 0.749805 0.206296
H37   H     H_    0.322763 0.322913 0.824794 0.150185
H38   H     H_    0.548711 0.413402 0.028324 0.156819
H39   H     H_    0.406388 0.431865 0.033799 0.192386
H40   H     H_    0.641053 0.678024 0.026617 0.138544
H41   H     H_    0.602097 0.622284 0.886372 0.205373
H42   H     H_    0.354363 0.677248 0.028161 0.073435
H43   H     H_    0.487750 0.681868 0.993388 0.040479
H44   H     H_    0.629514 0.559524 0.112435 0.177779
H45   H     H_    0.484039 0.578602 0.101586 0.204501
H46   H     H_    0.235680 0.121260 0.736369 0.136496
H47   H     H_    0.054480 0.998552 0.696502 0.122243
H48   H     H_    0.348815 0.247288 0.073982 0.138720
H49   H     H_    0.382628 0.242929 0.923938 0.132990
H50   H     H_    0.215189 0.007392 0.053091 0.118259
H51   H     H_    0.038004 0.189714 0.206459 0.131724
H52   H     H_    0.861125 0.322405 0.183371 0.112742
H53   H     H_    0.850768 0.901856 0.981063 0.118326
H54   H     H_    0.676893 0.828306 0.978607 0.148427
H55   H     H_    0.670945 0.870418 0.149198 0.103289
H56   H     H_    0.839515 0.997281 0.323029 0.099959
H57   H     H_    0.014302 0.076186 0.326894 0.108471
H58   H     H_    0.195674 0.756102 0.373005 0.115819
H59   H     H_    0.133575 0.262347 0.954755 0.131008
H60   H     H_    0.625011 0.323785 0.890599 0.095584
N1    N     N_R   0.947080 0.293830 0.002870 -0.042808
N2    N     N_R   0.054040 0.556820 0.847890 -0.043567
N3    N     N_R   0.848290 0.293830 0.791110 -0.038795
N4    N     N_R   0.995680 0.706170 0.053910 -0.038930
N5    N     N_R   0.052920 0.706170 0.997130 -0.039208
N6    N     N_R   0.791050 0.293830 0.847890 -0.037506
N7    N     N_R   0.846330 0.556820 0.053910 -0.039220
N8    N     N_R   0.997640 0.443180 0.791110 -0.040937
N9    N     N_R   0.208950 0.706170 0.152110 -0.054859
N10   N     N_R   0.153670 0.443180 0.946090 -0.038168
N11   N     N_R   0.002360 0.556820 0.208890 -0.036569
N12   N     N_R   0.210070 0.556820 0.002870 -0.031984
N13   N     N_R   0.945960 0.443180 0.152110 -0.038250
N14   N     N_R   0.151710 0.706170 0.208890 -0.049239
N15   N     N_R   0.004320 0.293830 0.946090 -0.045026
N16   N     N_R   0.789930 0.443180 0.997130 -0.037272
Ni1   Ni    Ni4+2 0.869690 0.369690 0.000000 0.212863
Ni2   Ni    Ni4+2 0.130310 0.630310 0.000000 0.214543
Ni3   Ni    Ni4+2 0.000970 0.369690 0.869780 0.216878
Ni4   Ni    Ni4+2 0.999030 0.630310 0.130220 0.219960
C87   C     C_3   0.527347 0.163556 0.020553 -0.480590
C88   C     C_3   0.532940 0.090597 0.924318 -0.212729
C89   C     C_3   0.456977 0.076153 0.819491 -0.947971
H61   H     H_    0.372418 0.036162 0.802374 0.279403
H62   H     H_    0.477185 0.156417 0.823075 0.243611
H63   H     H_    0.464141 0.023023 0.752757 0.256107
H64   H     H_    0.617007 0.127778 0.938633 0.186421
H65   H     H_    0.510428 0.007775 0.915448 0.207867
H66   H     H_    0.445727 0.122885 0.011235 0.196582
H67   H     H_    0.542231 0.242903 0.023015 0.183487
Cl1   Cl    Cl    0.507343 0.743955 0.351676 -0.706828
Cl2   Cl    Cl    0.410057 0.606082 0.804339 -0.749071
C90   C     C_3   0.984832 0.970432 0.835057 -0.450547
C91   C     C_3   0.968340 0.853265 0.790554 -0.249421
C92   C     C_3   0.868769 0.773570 0.784696 -0.915974
H68   H     H_    0.884499 0.787794 0.866162 0.264825
H69   H     H_    0.798099 0.783368 0.748367 0.260253
H70   H     H_    0.849688 0.687850 0.735205 0.255290
H71   H     H_    0.959894 0.823436 0.708974 0.187723
H72   H     H_    0.039741 0.853373 0.842363 0.207428
H73   H     H_    0.923221 0.974915 0.775137 0.192773
H74   H     H_    0.971183 0.991440 0.905474 0.205052

loop_
_geom_bond_atom_site_label_1
_geom_bond_atom_site_label_2
_ccdc_geom_bond_type
C34   H32   S    
C81   H54   S    
C66   C68   A    
C63   C65   S    
C41   C42   A    
C58   C62   S    
N7    Ni4   S    
C33   H18   S    
C89   H61   S    
C54   C55   A    
C3    C23   A    
C35   C36   A    
C2    C12   A    
C9    H5    S    
C81   C82   A    
C49   C50   A    
C20   C30   S    
C76   H51   S    
C52   C53   A    
C88   H65   S    
C26   C27   A    
C80   C85   A    
C18   C24   A    
C28   C29   A    
C6    N2    A    
C56   N13   A    
C71   H49   S    
C38   C39   A    
C11   C14   A    
C52   H29   S    
C90   H73   S    
C65   Cl2   S    
C45   H42   S    
C14   C62   S    
C1    C86   A    
C6    H2    S    
C60   C62   S    
C18   C19   A    
C73   C74   A    
C1    H1    S    
C60   H38   S    
C1    N1    A    
C42   H26   S    
C78   H59   S    
C10   N6    A    
C6    C15   A    
C7    N3    A    
N4    Ni4   S    
C28   H15   S    
C75   C85   S    
C39   H24   S    
C66   C72   A    
C83   C84   A    
C68   C69   A    
C73   H50   S    
N8    Ni3   S    
C67   N14   A    
C51   C57   A    
N14   Ni4   S    
C5    C14   A    
C4    C29   S    
C53   H30   S    
N12   Ni2   S    
C78   C86   A    
C59   H36   S    
C92   H69   S    
C10   H6    S    
N11   N13   A    
C21   C22   A    
C4    C56   A    
C89   H62   S    
C61   C62   S    
N2    N8    A    
C82   H55   S    
C67   H58   S    
C48   Cl1   S    
C44   C46   A    
C72   H46   S    
C77   C79   A    
C59   H37   S    
C88   H64   S    
C4    C34   A    
C51   H28   S    
C74   C75   A    
C36   H20   S    
C51   C52   A    
N2    Ni2   S    
C31   H16   S    
C88   C89   S    
N3    Ni3   S    
C76   C77   A    
C2    C67   A    
N1    N15   A    
C24   H9    S    
C16   C46   S    
C39   C40   A    
C40   C41   A    
C15   C26   S    
C55   H33   S    
C90   H74   S    
C84   H57   S    
C58   C59   S    
C92   H68   S    
C3    C45   A    
C31   C37   A    
C8    N4    A    
C75   C76   A    
C29   C30   A    
C35   H19   S    
C2    C49   S    
C47   C57   S    
C66   H47   S    
C56   H52   S    
C25   H14   S    
C47   C48   A    
C64   H45   S    
C58   H34   S    
C73   C79   A    
C32   H17   S    
C61   H41   S    
C43   H21   S    
C84   C85   A    
C38   H23   S    
C12   H11   S    
C61   H40   S    
C90   C91   S    
C91   H72   S    
C9    C17   A    
C48   C49   A    
C44   H27   S    
C64   H39   S    
C55   C57   A    
C17   C74   S    
C89   H63   S    
C22   C24   A    
N3    N6    A    
C8    H4    S    
C42   C43   A    
C12   N9    A    
C60   H44   S    
C87   C88   S    
C70   C71   A    
C91   C92   S    
C87   H66   S    
N16   Ni1   S    
C92   H70   S    
C44   C50   A    
C25   C30   A    
C46   C47   A    
C36   C37   A    
C58   H35   S    
C22   H13   S    
N9    N14   A    
C31   C32   A    
C7    C16   A    
C45   N12   A    
C80   C81   A    
N11   Ni4   S    
C77   C86   S    
C83   H56   S    
C65   H43   S    
C18   C87   S    
C53   C54   A    
C3    C63   S    
N9    Ni2   S    
C80   H53   S    
C13   H8    S    
C68   C90   S    
C59   C63   S    
C8    C17   A    
N7    N16   A    
C60   C64   S    
C32   C33   A    
C19   C20   A    
C13   C15   A    
C25   C26   A    
C71   C72   A    
C10   C16   A    
C5    N16   A    
C21   H12   S    
C11   H7    S    
N10   Ni3   S    
C27   C37   S    
C40   C50   S    
C23   H22   S    
N10   N12   A    
C33   C35   A    
N13   Ni1   S    
C69   C70   A    
C13   N8    A    
N6    Ni1   S    
C69   C79   S    
C91   H71   S    
C11   N7    A    
C63   C64   S    
C34   N11   A    
C61   C65   S    
C38   C43   A    
C23   N10   A    
C20   C21   A    
C78   N15   A    
C9    N5    A    
N5    Ni2   S    
C41   H25   S    
C54   H31   S    
C27   C28   A    
C70   H48   S    
N4    N5    A    
N1    Ni1   S    
C82   C83   A    
C5    H60   S    
N15   Ni3   S    
C19   H10   S    
C87   H67   S    
C7    H3    S    
