data_mof_unit_29693.cif
_audit_creation_date              2012-12-10T19:10:38-0500
_audit_creation_method            fapswitch 2.2
_symmetry_space_group_name_H-M    P1
_symmetry_Int_Tables_number       1
_space_group_crystal_system       triclinic
_cell_length_a                    13.041931
_cell_length_b                    9.074115
_cell_length_c                    7.845354
_cell_angle_alpha                 90.027832
_cell_angle_beta                  95.349967
_cell_angle_gamma                 90.009513
_cell_volume                      924.405751452

loop_
_atom_site_label
_atom_site_type_symbol
_atom_type_description
_atom_site_fract_x
_atom_site_fract_y
_atom_site_fract_z
_atom_type_partial_charge
C1    C     C_R   0.499967 0.220304 0.499970 0.806634
C2    C     C_R   0.499902 0.779708 0.500010 0.869386
C3    C     C_R   0.300705 0.499882 0.469344 0.850968
C4    C     C_R   0.700276 0.499103 0.530433 0.843316
C5    C     C_R   0.814074 0.494093 0.546450 -0.219791
C6    C     C_R   0.188669 0.502779 0.453756 -0.240106
C7    C     C_R   0.028254 0.594144 0.312268 0.430688
C8    C     C_R   0.975505 0.463829 0.725704 0.351249
C9    C     C_R   0.135735 0.595189 0.330098 0.332051
C10   C     C_R   0.870686 0.503979 0.708300 0.305655
C11   C     C_R   0.134101 0.426922 0.575226 0.068510
C12   C     C_R   0.869843 0.483752 0.400891 0.041839
C13   C     C_R   0.028697 0.459589 0.577281 -0.080610
C14   C     C_R   0.975775 0.508707 0.424751 -0.127837
C15   C     C_1   0.499883 0.065484 0.499950 -0.160131
C16   C     C_1   0.499855 0.934549 0.500014 -0.143850
Cu1   Cu    Cu3+1 0.500010 0.500000 0.669080 1.039676
Cu2   Cu    Cu3+1 0.499990 0.500000 0.330920 1.046976
N1    N     N_1   0.499980 0.500000 0.076820 -0.031960
N2    N     N_1   0.500020 0.500000 0.923180 -0.031367
O1    O     O_R   0.500000 0.288400 0.642760 -0.593959
O2    O     O_R   0.500000 0.711600 0.357240 -0.557914
O3    O     O_R   0.500000 0.288400 0.357240 -0.584060
O4    O     O_R   0.500000 0.711600 0.642760 -0.567681
O5    O     O_R   0.349000 0.500000 0.619590 -0.589321
O6    O     O_R   0.651000 0.500000 0.380410 -0.601479
O7    O     O_R   0.348990 0.500000 0.334020 -0.531603
O8    O     O_R   0.651010 0.500000 0.665980 -0.536939
C17   C     C_3   0.826379 0.417863 0.231706 -0.259559
C18   C     C_3   0.793600 0.256527 0.251107 -0.414891
C19   C     C_3   0.749773 0.192786 0.079437 -0.697986
H1    H     H_    0.680452 0.255699 0.028751 0.253585
H2    H     H_    0.808287 0.197356 0.985285 0.261418
H3    H     H_    0.727455 0.076003 0.096544 0.258501
H4    H     H_    0.861598 0.190110 0.300718 0.239681
H5    H     H_    0.734450 0.246443 0.343324 0.222491
H6    H     H_    0.762560 0.485573 0.171557 0.272228
H7    H     H_    0.886783 0.416723 0.141736 0.271768
C20   C     C_3   0.183170 0.297415 0.678082 -0.304332
C21   C     C_3   0.115278 0.158354 0.663340 -0.397058
C22   C     C_3   0.169926 0.026999 0.753194 -0.676612
H8    H     H_    0.241997 0.001024 0.694091 0.239376
H9    H     H_    0.188724 0.051381 0.891409 0.276276
H10   H     H_    0.118826 0.928878 0.740887 0.273688
H11   H     H_    0.042167 0.177423 0.721886 0.249249
H12   H     H_    0.096205 0.130469 0.525962 0.238369
H13   H     H_    0.256997 0.265422 0.628711 0.181111
H14   H     H_    0.202391 0.328504 0.813822 0.259284
Cl1   Cl    Cl    0.817221 0.593916 0.876931 -0.549204
Cl2   Cl    Cl    0.202053 0.716642 0.201594 -0.514525
Cl3   Cl    Cl    0.960993 0.729654 0.185298 -0.469687
Cl4   Cl    Cl    0.041667 0.452179 0.930972 -0.601507

loop_
_geom_bond_atom_site_label_1
_geom_bond_atom_site_label_2
_ccdc_geom_bond_type
C17   H7    S    
C2    O2    A    
C4    O6    A    
C19   H2    S    
C1    O1    A    
C8    C13   A    
C1    C15   S    
C12   C17   S    
C2    C16   S    
C22   H8    S    
C8    Cl4   S    
C19   H1    S    
Cu2   O6    S    
C18   H5    S    
C3    C6    S    
Cu1   O5    S    
Cu1   N2    S    
C6    C9    A    
C3    O7    A    
Cu1   Cu2   S    
C19   H3    S    
C7    Cl3   S    
C5    C10   A    
C13   C14   A    
C21   H12   S    
C22   H9    S    
C17   C18   S    
C18   H4    S    
C8    C10   A    
C21   C22   S    
C4    O8    A    
C12   C14   A    
C1    O3    A    
C6    C11   A    
C2    O4    A    
C18   C19   S    
C11   C20   S    
C22   H10   S    
Cu1   O4    S    
Cu2   O7    S    
N1    N2    T    
C15   C16   T    
C11   C13   A    
C3    O5    A    
C21   H11   S    
C5    C12   A    
C20   H13   S    
Cu2   N1    S    
C17   H6    S    
C20   C21   S    
C7    C9    A    
C4    C5    S    
Cu1   O8    S    
Cu2   O2    S    
C10   Cl1   S    
C7    C14   A    
Cu1   O1    S    
C9    Cl2   S    
Cu2   O3    S    
C20   H14   S    
