data_mof_unit_49733.cif
_audit_creation_date              2013-03-05T15:52:44-0500
_audit_creation_method            fapswitch 2.2
_symmetry_space_group_name_H-M    P1
_symmetry_Int_Tables_number       1
_space_group_crystal_system       triclinic
_cell_length_a                    10.678232
_cell_length_b                    10.7913
_cell_length_c                    16.947505
_cell_angle_alpha                 99.488831
_cell_angle_beta                  99.354444
_cell_angle_gamma                 61.257588
_cell_volume                      1681.00503408

loop_
_atom_site_label
_atom_site_type_symbol
_atom_site_description
_atom_site_fract_x
_atom_site_fract_y
_atom_site_fract_z
_atom_type_partial_charge
O1    O     O_R   0.749250 0.499990 0.439200 -0.486912
O2    O     O_R   0.477870 0.725740 0.440280 -0.429401
C1    C     C_R   0.353859 0.777743 0.402529 0.633037
O3    O     O_R   0.260770 0.742210 0.412610 -0.464151
O4    O     O_R   0.297990 0.466320 0.394220 -0.489840
C2    C     C_R   0.369004 0.346222 0.357356 0.557570
O5    O     O_R   0.487720 0.253870 0.385870 -0.451232
O6    O     O_R   0.721940 0.304340 0.422320 -0.442173
C3    C     C_R   0.780228 0.375245 0.406449 0.571465
O7    O     O_R   0.750770 0.502570 0.614050 -0.500798
O8    O     O_R   0.479280 0.728140 0.602370 -0.422526
C4    C     C_R   0.381908 0.712632 0.631320 0.541799
O9    O     O_R   0.262290 0.744790 0.587460 -0.484876
O10   O     O_R   0.299400 0.468710 0.556310 -0.526755
C5    C     C_R   0.365020 0.345508 0.579955 0.565471
O11   O     O_R   0.489240 0.256450 0.560730 -0.441403
O12   O     O_R   0.723350 0.306730 0.584410 -0.491924
C6    C     C_R   0.773216 0.381068 0.629544 0.530914
Cr1   Cr    Cr6+3 0.608020 0.610770 0.522990 1.173830
Cr2   Cr    Cr6+3 0.289390 0.599570 0.488050 1.112801
Cr3   Cr    Cr6+3 0.602610 0.289690 0.489020 1.175346
O13   O     O_3   0.500010 0.500010 0.500020 -0.336753
C7    C     C_1   0.342629 0.336191 0.273946 0.008075
C8    C     C_1   0.331457 0.326687 0.202953 0.036530
C9    C     C_2   0.863153 0.324969 0.337559 -0.090768
C10   C     C_2   0.843180 0.321899 0.164278 -0.119083
C11   C     C_2   0.893581 0.204797 0.202998 -0.144827
C12   C     C_2   0.873277 0.211064 0.287071 0.158750
H1    H     H_    0.955615 0.099412 0.173228 0.186355
H2    H     H_    0.780410 0.427864 0.193009 0.148091
H3    H     H_    0.890945 0.399879 0.319192 0.102481
C13   C     C_2   0.326500 0.857915 0.334930 -0.039324
C14   C     C_2   0.348813 0.823902 0.158848 0.171685
C15   C     C_2   0.410068 0.884460 0.217766 -0.137632
C16   C     C_2   0.432885 0.859155 0.302249 0.179641
H4    H     H_    0.433785 0.966442 0.205563 0.145364
H5    H     H_    0.222350 0.889530 0.300432 0.122836
C17   C     C_2   0.310890 0.317564 0.644567 -0.107100
C18   C     C_2   0.262957 0.252306 0.792963 -0.136157
C19   C     C_2   0.360047 0.155045 0.743215 0.116680
C20   C     C_2   0.351353 0.184060 0.659596 0.194136
H6    H     H_    0.167979 0.341340 0.768565 0.078207
H7    H     H_    0.263066 0.407456 0.689033 0.065526
C21   C     C_1   0.817436 0.342101 0.708646 -0.017658
C22   C     C_1   0.844189 0.313653 0.776428 -0.016277
C23   C     C_1   0.359267 0.761432 0.713699 0.003189
C24   C     C_1   0.326954 0.809132 0.780802 0.005223
O14   O     O_R   0.170650 0.915100 0.051290 -0.468939
O15   O     O_R   0.941960 0.184500 0.049060 -0.495400
C25   C     C_R   0.896230 0.306735 0.087894 0.553969
O16   O     O_R   0.922640 0.402670 0.071640 -0.485881
O17   O     O_R   0.196880 0.368740 0.083740 -0.467533
C26   C     C_R   0.319303 0.299960 0.119599 0.595907
O18   O     O_R   0.411120 0.181190 0.091480 -0.501663
O19   O     O_R   0.364220 0.944920 0.062310 -0.523056
C27   C     C_R   0.294918 0.890595 0.083898 0.548166
O20   O     O_R   0.158740 0.906940 0.874970 -0.493282
O21   O     O_R   0.930920 0.176940 0.885610 -0.481431
C28   C     C_R   0.885592 0.297065 0.858732 0.545104
O22   O     O_R   0.910730 0.394510 0.895320 -0.510541
O23   O     O_R   0.185840 0.361180 0.920280 -0.482885
C29   C     C_R   0.272824 0.245746 0.879370 0.584579
O24   O     O_R   0.399210 0.173040 0.915160 -0.443463
O25   O     O_R   0.353170 0.937370 0.898860 -0.484868
C30   C     C_R   0.281202 0.880102 0.857442 0.552834
Cr4   Cr    Cr6+3 0.053780 0.052210 0.965970 1.084222
Cr5   Cr    Cr6+3 0.060060 0.372530 0.992430 1.096155
Cr6   Cr    Cr6+3 0.372600 0.061970 0.991430 1.090457
O26   O     O_3   0.162150 0.162240 0.983280 -0.321150
N1    N     N_R   0.402896 0.068649 0.597063 0.120498
O27   O     O_R   0.322791 0.074522 0.529702 -0.323076
O28   O     O_R   0.535968 0.970409 0.601954 -0.233152
N2    N     N_R   0.870046 0.092374 0.313368 0.105866
O29   O     O_R   0.823218 0.015497 0.263018 -0.272442
O30   O     O_R   0.936730 0.046179 0.382155 -0.297344
N3    N     N_R   0.564824 0.843854 0.347693 0.106260
O31   O     O_R   0.682224 0.785637 0.312123 -0.281350
O32   O     O_R   0.562226 0.913195 0.418435 -0.239129
N4    N     N_R   0.328653 0.704863 0.169650 0.058297
O33   O     O_R   0.423145 0.607531 0.214540 -0.364667
O34   O     O_R   0.229643 0.681298 0.124839 -0.293831
Br1   Br    Br    0.525703 0.985358 0.778420 -0.384662

loop_
_geom_bond_atom_site_label_1
_geom_bond_atom_site_label_2
_geom_bond_distance
_ccdc_geom_bond_type
C9    H3    1.087258 S    
O19   C27   1.265362 A    
O11   Cr3   2.027511 S    
C11   H1    1.087026 S    
N2    O29   1.301248 A    
O20   Cr4   2.041355 S    
O19   Cr6   1.921036 S    
C3    C9    1.451454 S    
O4    Cr2   1.941997 S    
C26   O18   1.254207 A    
C21   C22   1.191934 T    
C9    C12   1.345440 D    
O8    Cr1   1.915385 S    
C10   C11   1.349692 D    
O25   Cr6   1.944015 S    
N3    O32   1.301207 A    
C10   C25   1.450122 S    
O4    C2    1.259704 A    
Cr4   O26   1.982742 S    
O18   Cr6   2.064557 S    
C5    O11   1.265098 A    
O10   Cr2   1.922789 S    
C15   C16   1.461321 S    
O24   Cr6   2.036148 S    
O21   Cr4   1.926891 S    
O22   Cr5   2.054103 S    
Cr6   O26   1.962077 S    
C7    C8    1.181848 T    
N1    O27   1.301236 A    
C14   C27   1.458781 S    
C28   O22   1.250885 A    
Cr3   O13   1.980330 S    
N2    O30   1.301897 A    
O23   C29   1.306514 A    
C12   N2    1.440836 S    
O12   C6    1.260263 A    
C18   H6    1.086362 S    
C16   N3    1.439029 S    
O1    Cr1   2.030399 S    
O15   Cr4   1.921216 S    
C13   C16   1.348719 D    
C19   Br1   1.933914 S    
Cr1   O13   1.984142 S    
O1    C3    1.270715 A    
N3    O31   1.301143 A    
C17   C20   1.346722 D    
C4    C23   1.424713 S    
C18   C19   1.353939 D    
N4    O34   1.301177 A    
C14   N4    1.444409 S    
C25   O16   1.275632 A    
C8    C26   1.391991 S    
O5    Cr3   2.060725 S    
O12   Cr3   1.939580 S    
Cr5   O26   1.980377 S    
C5    C17   1.451334 S    
C29   O24   1.295106 A    
C6    C21   1.409263 S    
O23   Cr5   1.907978 S    
O7    Cr1   2.046000 S    
C14   C15   1.354834 D    
O6    C3    1.274963 A    
O16   Cr5   2.024481 S    
C13   H5    1.088370 S    
O17   Cr5   1.938892 S    
C19   C20   1.480032 S    
Cr2   O13   1.962986 S    
C10   H2    1.085971 S    
C1    O3    1.267949 A    
O17   C26   1.259549 A    
O14   C27   1.268253 A    
C18   C29   1.461972 S    
C23   C24   1.200433 T    
C22   C28   1.406717 S    
O9    Cr2   2.056652 S    
O2    Cr1   1.928055 S    
O20   C30   1.271146 A    
O6    Cr3   1.909809 S    
O8    C4    1.307695 A    
C2    O5    1.256326 A    
O25   C30   1.266323 A    
O2    C1    1.267307 A    
O21   C28   1.281308 A    
C17   H7    1.085052 S    
O7    C6    1.279209 A    
C2    C7    1.392374 S    
C15   H4    1.087392 S    
C1    C13   1.456439 S    
N4    O33   1.301827 A    
O3    Cr2   2.041273 S    
C4    O9    1.286298 A    
O15   C25   1.268983 A    
C11   C12   1.461593 S    
O10   C5    1.267902 A    
N1    O28   1.300694 A    
O14   Cr4   2.044592 S    
C24   C30   1.425036 S    
C20   N1    1.439575 S    
