data_mof_unit_24556.cif
_audit_creation_date              2012-10-26T19:42:16-0400
_audit_creation_method            fapswitch 2.2
_symmetry_space_group_name_H-M    P1
_symmetry_Int_Tables_number       1
_space_group_crystal_system       triclinic
_cell_length_a                    9.617966
_cell_length_b                    10.772446
_cell_length_c                    17.277672
_cell_angle_alpha                 93.155655
_cell_angle_beta                  86.884554
_cell_angle_gamma                 90.291247
_cell_volume                      1784.76261722

loop_
_atom_site_label
_atom_site_type_symbol
_atom_type_description
_atom_site_fract_x
_atom_site_fract_y
_atom_site_fract_z
_atom_type_partial_charge
C1    C     C_R   0.499956 0.737389 0.502837 0.552745
C2    C     C_R   0.520838 0.508495 0.264865 0.016081
C3    C     C_R   0.341505 0.880806 0.626373 -0.091464
C4    C     C_R   0.482870 0.496675 0.649712 0.543969
C5    C     C_R   0.263930 0.950444 0.683672 -0.096792
C6    C     C_R   0.263236 0.079527 0.683413 -0.103336
C7    C     C_R   0.339960 0.139777 0.625795 -0.097477
C8    C     C_R   0.417531 0.071059 0.566237 0.029249
C9    C     C_R   0.418296 0.939762 0.566538 0.031380
C10   C     C_R   0.500013 0.871660 0.508400 0.015569
C11   C     C_R   0.584117 0.932171 0.453912 -0.132813
C12   C     C_R   0.349050 0.481906 0.776639 -0.132720
C13   C     C_R   0.583421 0.060155 0.453655 -0.144647
C14   C     C_R   0.498668 0.129592 0.507834 0.008785
C15   C     C_R   0.865926 0.333759 0.396238 -0.085529
C16   C     C_R   0.499487 0.262976 0.502397 0.522419
C17   C     C_R   0.943007 0.253092 0.344442 0.069353
C18   C     C_R   0.086640 0.254093 0.345154 -0.120928
C19   C     C_R   0.153461 0.334689 0.396429 -0.116358
C20   C     C_R   0.079311 0.418508 0.449097 0.141420
C21   C     C_R   0.929956 0.418285 0.449087 0.116755
C22   C     C_R   0.923826 0.577997 0.548725 0.187503
C23   C     C_R   0.388848 0.496543 0.148774 -0.090707
C24   C     C_R   0.070983 0.577283 0.548330 0.022366
C25   C     C_R   0.517201 0.502009 0.349931 0.527854
C26   C     C_R   0.477001 0.480600 0.733353 0.016096
C27   C     C_R   0.600559 0.457531 0.769944 -0.100053
C28   C     C_R   0.596593 0.437718 0.848629 -0.077679
C29   C     C_R   0.469490 0.441793 0.891677 0.074602
C30   C     C_R   0.345461 0.462725 0.855823 -0.084554
C31   C     C_R   0.395438 0.485912 0.227957 -0.134225
C32   C     C_R   0.641412 0.542639 0.219638 0.090069
C33   C     C_R   0.633365 0.551294 0.139677 -0.024514
C34   C     C_R   0.508121 0.526989 0.104306 0.037656
C35   C     C_2   0.468918 0.433293 0.975338 0.067568
C36   C     C_2   0.501730 0.534032 0.020495 0.066154
Cu1   Cu    Cu3+1 0.359340 0.500010 0.500010 0.922532
Cu2   Cu    Cu3+1 0.640660 0.499990 0.499990 0.964535
H1    H     H_    0.700540 0.454400 0.737897 0.152832
H2    H     H_    0.300919 0.460441 0.260266 0.141374
H3    H     H_    0.147621 0.192047 0.305305 0.149171
H4    H     H_    0.263624 0.327689 0.391941 0.184131
H5    H     H_    0.123947 0.640423 0.587804 0.130818
H6    H     H_    0.246943 0.466446 0.889370 0.134413
H7    H     H_    0.290792 0.479819 0.121883 0.149509
H8    H     H_    0.252395 0.498399 0.749550 0.131147
H9    H     H_    0.692760 0.421941 0.876453 0.136601
H10   H     H_    0.769582 0.187234 0.291080 0.221675
H11   H     H_    0.888963 0.079826 0.307500 0.238558
H12   H     H_    0.725421 0.576307 0.104903 0.160609
H13   H     H_    0.757064 0.643305 0.295488 0.253209
H14   H     H_    0.809089 0.492497 0.276732 0.259853
H15   H     H_    0.648087 0.879779 0.410109 0.129419
H16   H     H_    0.342691 0.781094 0.630634 0.133827
H17   H     H_    0.205648 0.904077 0.729090 0.140055
H18   H     H_    0.204473 0.133359 0.728652 0.131736
H19   H     H_    0.339637 0.240186 0.629574 0.144051
H20   H     H_    0.647053 0.105276 0.409780 0.110794
H21   H     H_    0.756641 0.326952 0.392432 0.176861
I1    I     I_    0.826182 0.708608 0.630213 -0.344234
I2    I     I_    0.546469 0.710856 0.974835 -0.326712
I3    I     I_    0.435918 0.252489 0.016996 -0.343849
N1    N     N_R   0.852190 0.498790 0.499250 -0.238014
N2    N     N_R   0.148060 0.498710 0.499220 -0.256320
N3    N     N_3   0.876625 0.170217 0.289841 -0.603389
N4    N     N_3   0.771932 0.571722 0.252518 -0.619619
O1    O     O_R   0.381190 0.680360 0.500010 -0.504915
O2    O     O_R   0.618760 0.680340 0.500000 -0.466098
O3    O     O_R   0.367440 0.500030 0.613600 -0.525983
O4    O     O_R   0.605010 0.500010 0.613590 -0.472775
O5    O     O_R   0.381240 0.319660 0.500000 -0.527338
O6    O     O_R   0.618810 0.319640 0.499990 -0.517353
O7    O     O_R   0.394990 0.499990 0.386410 -0.520007
O8    O     O_R   0.632560 0.499970 0.386400 -0.534899

loop_
_geom_bond_atom_site_label_1
_geom_bond_atom_site_label_2
_ccdc_geom_bond_type
Cu2   O4    S    
C28   H9    S    
C23   H7    S    
Cu1   O3    S    
C35   C36   D    
C16   O6    A    
C4    O4    A    
C7    C8    A    
C26   C27   A    
C29   C30   A    
H11   N3    S    
C28   C29   A    
C25   O8    A    
C22   I1    S    
C5    C6    A    
C3    H16   S    
C1    O2    A    
C31   H2    S    
C2    C32   A    
C18   C19   A    
C22   N1    A    
C19   C20   A    
C27   H1    S    
C8    C9    A    
C14   C16   S    
H10   N3    S    
C35   I3    S    
C9    C10   A    
C34   C36   S    
C11   H15   S    
C19   H4    S    
C24   N2    A    
C13   C14   A    
C30   H6    S    
C16   O5    A    
C4    O3    A    
C33   C34   A    
Cu2   O6    S    
C12   H8    S    
C18   H3    S    
C13   H20   S    
C33   H12   S    
C12   C26   A    
C2    C31   A    
H13   N4    S    
C23   C31   A    
C20   N2    A    
Cu1   Cu2   S    
C3    C9    A    
C23   C34   A    
C17   C18   A    
Cu2   O2    S    
Cu1   O5    S    
C22   C24   A    
C36   I2    S    
Cu1   N2    S    
H14   N4    S    
C32   N4    S    
Cu2   N1    S    
Cu2   O8    S    
C15   C17   A    
Cu1   O7    S    
C8    C14   A    
C12   C30   A    
C15   H21   S    
C5    H17   S    
C1    C10   S    
C6    H18   S    
C3    C5    A    
C4    C26   S    
C6    C7    A    
C29   C35   S    
C17   N3    S    
C32   C33   A    
C11   C13   A    
Cu1   O1    S    
C1    O1    A    
C2    C25   S    
C25   O7    A    
C21   N1    A    
C10   C11   A    
C15   C21   A    
C20   C21   A    
C27   C28   A    
C24   H5    S    
C7    H19   S    
