data_mof_unit_44529.cif
_audit_creation_date              2012-12-10T20:34:51-0500
_audit_creation_method            fapswitch 2.2
_symmetry_space_group_name_H-M    P1
_symmetry_Int_Tables_number       1
_space_group_crystal_system       triclinic
_cell_length_a                    10.683835
_cell_length_b                    10.791623
_cell_length_c                    9.929857
_cell_angle_alpha                 89.684842
_cell_angle_beta                  89.905111
_cell_angle_gamma                 91.881032
_cell_volume                      1144.23582232

loop_
_atom_site_label
_atom_site_type_symbol
_atom_type_description
_atom_site_fract_x
_atom_site_fract_y
_atom_site_fract_z
_atom_type_partial_charge
C1    C     C_R   0.492306 0.259843 0.501169 0.968421
C2    C     C_3   0.876931 0.485399 0.501348 -0.221794
C3    C     C_3   0.928556 0.615781 0.545244 -0.459703
C4    C     C_3   0.928203 0.458451 0.356989 0.171247
C5    C     C_R   0.554927 0.065945 0.603875 -0.089271
C6    C     C_R   0.485908 0.126388 0.505959 -0.121572
C7    C     C_R   0.410101 0.056148 0.418342 0.479976
C8    C     C_R   0.424386 0.929445 0.410648 -0.134592
C9    C     C_R   0.503093 0.870554 0.501311 -0.145604
C10   C     C_R   0.569254 0.938838 0.599181 -0.023520
C11   C     C_3   0.569326 0.927413 0.750928 0.611272
C12   C     C_R   0.257600 0.497996 0.500548 0.983613
C13   C     C_3   0.527340 0.059970 0.752163 0.151788
C14   C     C_R   0.400027 0.450323 0.070117 0.103838
C15   C     C_R   0.595036 0.555539 0.071399 -0.000167
C16   C     C_R   0.595396 0.554884 0.927944 0.045034
C17   C     C_R   0.400153 0.453047 0.927355 0.140703
C18   C     C_3   0.360257 0.323864 0.912461 -0.379940
C19   C     C_3   0.357625 0.315929 0.062795 0.620289
C20   C     C_R   0.503340 0.739282 0.500291 0.921581
C21   C     C_R   0.741059 0.490865 0.500168 0.950324
C22   C     C_3   0.068288 0.404145 0.619736 0.550384
C23   C     C_3   0.925504 0.381232 0.597916 0.188066
C24   C     C_3   0.071596 0.625646 0.526136 0.204522
C25   C     C_3   0.069698 0.443850 0.365489 -0.382949
C26   C     C_3   0.120321 0.492876 0.503063 -0.259666
H1    H     H_    0.882882 0.690223 0.486911 0.229331
H2    H     H_    0.672735 0.599191 0.124692 0.163927
H3    H     H_    0.268795 0.311086 0.862030 0.301836
H4    H     H_    0.113278 0.493982 0.278234 0.266915
H5    H     H_    0.092903 0.344714 0.356996 0.287150
N1    N     N_R   0.499150 0.499140 0.142800 -0.120838
N2    N     N_R   0.499150 0.499180 0.857150 -0.114888
O1    O     O_R   0.500020 0.316790 0.614690 -0.623092
O2    O     O_R   0.500000 0.316760 0.385350 -0.552773
O3    O     O_R   0.314800 0.500000 0.614670 -0.578186
O4    O     O_R   0.314790 0.499960 0.385330 -0.598541
O5    O     O_R   0.500000 0.683240 0.614650 -0.574939
O6    O     O_R   0.499980 0.683210 0.385310 -0.617242
O7    O     O_R   0.685210 0.500040 0.614670 -0.592143
O8    O     O_R   0.685200 0.500000 0.385330 -0.612626
Zn1   Zn    Zn3+2 0.500010 0.500020 0.653130 1.061171
Zn2   Zn    Zn3+2 0.499990 0.499980 0.346870 1.068798
Cl1   Cl    Cl    0.097850 0.472129 0.783681 -0.486476
H6    H     H_    0.909079 0.538435 0.289492 0.200925
Cl2   Cl    Cl    0.113107 0.731281 0.391360 -0.524057
Cl3   Cl    Cl    0.273415 0.114850 0.350806 -0.385545
H7    H     H_    0.364810 0.875458 0.343106 0.231289
Cl4   Cl    Cl    0.464704 0.820335 0.838781 -0.445047
Cl5   Cl    Cl    0.725551 0.913286 0.811603 -0.485013
Cl6   Cl    Cl    0.359976 0.066940 0.778286 -0.414165
H8    H     H_    0.586773 0.124676 0.813154 0.181241
Cl7   Cl    Cl    0.141924 0.256909 0.619232 -0.460628
H9    H     H_    0.673461 0.598038 0.873987 0.186632
H10   H     H_    0.438170 0.274899 0.866007 0.220468
Cl8   Cl    Cl    0.200541 0.289338 0.117787 -0.397720
Cl9   Cl    Cl    0.468596 0.207242 0.120700 -0.460630
H11   H     H_    0.910770 0.291604 0.544728 0.191254
Cl10  Cl    Cl    0.841846 0.351554 0.753961 -0.433168
H12   H     H_    0.114560 0.667790 0.617670 0.209748
H13   H     H_    0.905413 0.631049 0.653118 0.245250
Cl11  Cl    Cl    0.857670 0.322738 0.278995 -0.440502

loop_
_geom_bond_atom_site_label_1
_geom_bond_atom_site_label_2
_ccdc_geom_bond_type
C19   Cl8   S    
C25   H5    S    
C23   H11   S    
C2    C4    S    
C8    H7    S    
O4    Zn2   S    
C6    C7    A    
C11   Cl4   S    
C4    Cl11  S    
C16   N2    A    
C12   O3    A    
C13   H8    S    
C20   O5    A    
C9    C10   A    
C9    C20   S    
O3    Zn1   S    
O1    Zn1   S    
C24   H12   S    
C24   Cl2   S    
C2    C21   S    
C3    H1    S    
C17   C18   S    
C15   H2    S    
C15   N1    A    
C11   Cl5   S    
C12   O4    A    
C19   Cl9   S    
C23   Cl10  S    
O8    Zn2   S    
C14   C17   A    
C3    C24   S    
C21   O7    A    
C17   N2    A    
C18   H10   S    
C21   O8    A    
N2    Zn1   S    
C5    C10   A    
N1    Zn2   S    
C24   C26   S    
C1    O1    A    
O5    Zn1   S    
C22   Cl7   S    
C2    C3    S    
C4    H6    S    
C3    H13   S    
C5    C6    A    
C16   H9    S    
C7    C8    A    
C10   C11   S    
C15   C16   A    
C4    C25   S    
C11   C13   S    
O2    Zn2   S    
C1    O2    A    
C8    C9    A    
C18   C19   S    
C22   C26   S    
C12   C26   S    
C2    C23   S    
C18   H3    S    
C20   O6    A    
C22   C23   S    
C25   H4    S    
O6    Zn2   S    
C25   C26   S    
C13   Cl6   S    
C5    C13   S    
C14   C19   S    
C22   Cl1   S    
C1    C6    S    
C14   N1    A    
O7    Zn1   S    
C7    Cl3   S    
