data_mof_unit_32060.cif
_audit_creation_date              2013-03-05T15:53:04-0500
_audit_creation_method            fapswitch 2.2
_symmetry_space_group_name_H-M    P1
_symmetry_Int_Tables_number       1
_space_group_crystal_system       triclinic
_cell_length_a                    6.95097
_cell_length_b                    20.46575
_cell_length_c                    24.386407
_cell_angle_alpha                 89.687421
_cell_angle_beta                  90.468681
_cell_angle_gamma                 89.477946
_cell_volume                      3468.81945888

loop_
_atom_site_label
_atom_site_type_symbol
_atom_site_description
_atom_site_fract_x
_atom_site_fract_y
_atom_site_fract_z
_atom_type_partial_charge
O1    O     O_R   0.507320 0.423560 0.460500 -0.592176
O2    O     O_R   0.170760 0.556250 0.437010 -0.589025
O3    O     O_R   0.004030 0.576440 0.539500 -0.575311
C1    C     C_R   0.338804 0.576367 0.421017 0.961397
O4    O     O_R   0.177370 0.422820 0.454110 -0.596614
O5    O     O_R   0.010680 0.442050 0.556720 -0.576429
C2    C     C_R   0.346236 0.398815 0.443577 0.931607
O6    O     O_R   0.500680 0.557950 0.443280 -0.598848
O7    O     O_3   0.340380 0.506470 0.533650 -0.245463
V1    V     V_3+5 0.064130 0.498800 0.493760 1.216025
O8    O     O_R   0.681160 0.443750 0.562990 -0.587167
C3    C     C_R   0.850825 0.423630 0.578760 1.032642
O9    O     O_R   0.674560 0.577180 0.545890 -0.589221
C4    C     C_R   0.842823 0.600745 0.557199 1.023908
V2    V     V_3+5 0.564560 0.501200 0.506240 1.217321
O10   O     O_3   0.838180 0.493530 0.466350 -0.286228
C5    C     C_R   0.976767 0.836508 0.913087 -0.309247
C6    C     C_R   0.847609 0.660042 0.591789 -0.255767
C7    C     C_R   0.019373 0.718969 0.909320 -0.258966
C8    C     C_R   0.012933 0.776443 0.940228 0.355891
C9    C     C_R   0.953972 0.837776 0.855634 -0.177979
C10   C     C_R   0.976501 0.780390 0.823574 0.149525
C11   C     C_R   0.997290 0.720330 0.852103 0.103447
C12   C     C_R   0.966707 0.780005 0.764467 0.061109
C13   C     C_R   0.950899 0.719049 0.736233 0.061908
C14   C     C_R   0.953469 0.660941 0.767584 -0.090919
C15   C     C_R   0.986264 0.661529 0.823765 -0.198169
C16   C     C_R   0.970049 0.838084 0.732350 -0.100377
C17   C     C_R   0.886695 0.837893 0.679242 -0.168940
C18   C     C_R   0.856321 0.777481 0.652471 0.074097
C19   C     C_R   0.917824 0.718281 0.678072 -0.013086
C20   C     C_R   0.769142 0.774909 0.600111 -0.149043
C21   C     C_R   0.758466 0.716562 0.571423 -0.184481
C22   C     C_R   0.934386 0.660810 0.644658 0.273115
H1    H     H_    0.992291 0.615329 0.845708 0.142392
H2    H     H_    0.688733 0.716373 0.531503 0.125123
H3    H     H_    0.038305 0.672469 0.930275 0.169623
H4    H     H_    0.916702 0.884127 0.836831 0.131633
H5    H     H_    0.922355 0.614058 0.749922 0.173678
H6    H     H_    0.706104 0.817808 0.580838 0.115268
C23   C     C_3   0.864126 0.308322 0.769125 -0.135629
C24   C     C_3   0.050173 0.268881 0.784026 -0.167604
H7    H     H_    0.164505 0.285280 0.812724 0.138910
H8    H     H_    0.826180 0.357275 0.785402 0.146620
H9    H     H_    0.218204 0.255269 0.699951 0.206111
C25   C     C_1   0.960794 0.121442 0.875302 -0.263182
C26   C     C_1   0.863256 0.378081 0.624361 -0.229647
C27   C     C_3   0.742341 0.245270 0.776476 -0.303080
C28   C     C_3   0.928581 0.206371 0.790819 0.039667
C29   C     C_3   0.774850 0.229632 0.715421 0.271458
C30   C     C_3   0.893591 0.291749 0.707873 0.021200
C31   C     C_3   0.957153 0.191069 0.729959 0.303930
C32   C     C_3   0.079789 0.252833 0.722202 -0.254940
C33   C     C_1   0.947392 0.159633 0.837179 0.115875
C34   C     C_1   0.876019 0.339406 0.662149 0.133711
H10   H     H_    0.602704 0.242067 0.798072 0.160335
C35   C     C_3   0.460172 0.717033 0.203552 -0.198527
C36   C     C_3   0.272663 0.707956 0.236167 0.007479
H11   H     H_    0.500424 0.690234 0.165821 0.150868
H12   H     H_    0.108853 0.809905 0.232563 0.130470
C37   C     C_1   0.348667 0.621799 0.374921 -0.266212
C38   C     C_1   0.475384 0.877771 0.124743 -0.233614
C39   C     C_3   0.575567 0.716218 0.258448 -0.175016
C40   C     C_3   0.386687 0.706999 0.290387 0.190590
C41   C     C_3   0.550727 0.791483 0.262657 -0.151065
C42   C     C_3   0.434834 0.791726 0.208473 0.218820
C43   C     C_3   0.361479 0.781790 0.294995 -0.172449
C44   C     C_3   0.245578 0.782742 0.240191 -0.238219
C45   C     C_1   0.363571 0.660061 0.336752 0.051801
C46   C     C_1   0.459709 0.839129 0.162603 0.010620
H13   H     H_    0.320821 0.808536 0.332709 0.124854
H14   H     H_    0.666616 0.826183 0.273511 0.116720
H15   H     H_    0.711783 0.688870 0.266129 0.160435
C47   C     C_R   0.472176 0.161907 0.088657 -0.091343
C48   C     C_R   0.352475 0.338121 0.411411 -0.114925
C49   C     C_R   0.531733 0.277841 0.093942 -0.169464
C50   C     C_R   0.523596 0.220565 0.063588 -0.165353
C51   C     C_R   0.429509 0.160740 0.144924 -0.246792
C52   C     C_R   0.440215 0.218468 0.177258 0.110745
C53   C     C_R   0.491964 0.277303 0.150279 0.175294
C54   C     C_R   0.404155 0.219889 0.235213 0.062797
C55   C     C_R   0.420433 0.280142 0.264858 0.057032
C56   C     C_R   0.471625 0.336931 0.235532 -0.185200
C57   C     C_R   0.506127 0.335351 0.179588 -0.224826
C58   C     C_R   0.353060 0.163094 0.264546 -0.196612
C59   C     C_R   0.318717 0.164663 0.320500 -0.225914
C60   C     C_R   0.332871 0.222712 0.349809 0.168543
C61   C     C_R   0.384393 0.281560 0.322813 0.111520
C62   C     C_R   0.293346 0.222160 0.406162 -0.153741
C63   C     C_R   0.301437 0.279441 0.436512 -0.136041
C64   C     C_R   0.394928 0.339301 0.355133 -0.236703
H16   H     H_    0.545669 0.380313 0.159010 0.143228
H17   H     H_    0.430831 0.386158 0.337916 0.109357
H18   H     H_    0.266467 0.278106 0.479724 0.137305
H19   H     H_    0.279323 0.119693 0.341087 0.136973
H20   H     H_    0.572015 0.322713 0.073387 0.122714
H21   H     H_    0.558786 0.221889 0.020392 0.110330
H22   H     H_    0.393278 0.113903 0.162120 0.099769
H23   H     H_    0.487091 0.383886 0.254632 0.141212
H24   H     H_    0.337664 0.116135 0.245448 0.130268
H25   H     H_    0.253302 0.177274 0.426735 0.138071
O11   O     O_R   0.323550 0.942140 0.056770 -0.578334
O12   O     O_R   0.647080 0.077200 0.045890 -0.599008
O13   O     O_R   0.813610 0.057920 0.943260 -0.594503
C65   C     C_R   0.478260 0.101220 0.056469 0.907786
O14   O     O_R   0.653470 0.943760 0.063000 -0.574037
O15   O     O_R   0.820050 0.923540 0.960490 -0.575161
C66   C     C_R   0.485422 0.923561 0.078917 0.992673
O16   O     O_R   0.317110 0.076520 0.039540 -0.597797
O17   O     O_3   0.483830 0.993580 0.966380 -0.265730
V3    V     V_3+5 0.760140 0.001190 0.006240 1.210026
O18   O     O_R   0.149510 0.922740 0.954070 -0.581122
C67   C     C_R   0.981364 0.898748 0.943482 1.060029
O19   O     O_R   0.143120 0.056170 0.936970 -0.589279
C68   C     C_R   0.973427 0.076204 0.921127 0.965974
V4    V     V_3+5 0.259690 0.998700 0.993700 1.218053
O20   O     O_3   0.986130 0.006420 0.033620 -0.275616
N1    N     N_R   0.006019 0.127651 0.706783 0.274220
O21   O     O_R   0.026156 0.121749 0.654076 -0.313143
O22   O     O_R   0.031701 0.076949 0.738433 -0.368395
N2    N     N_R   0.624567 0.205938 0.678774 0.246227
O23   O     O_R   0.533956 0.152499 0.690803 -0.320703
O24   O     O_R   0.578702 0.238135 0.634380 -0.398175
C69   C     C_2   0.115623 0.662520 0.219322 0.463833
H26   H     H_    0.044048 0.669421 0.180003 0.051051
O25   O     O_2   0.067316 0.617880 0.249414 -0.585330
N3    N     N_R   0.056218 0.606934 0.661113 0.218004
O26   O     O_R   0.229174 0.617745 0.679561 -0.387633
O27   O     O_R   0.995637 0.547101 0.657776 -0.445813
C70   C     C_2   0.845722 0.900722 0.650237 0.536821
H27   H     H_    0.876336 0.906016 0.606906 0.015776
O28   O     O_2   0.773004 0.946698 0.674426 -0.507346
N4    N     N_R   0.040337 0.772467 0.998859 0.227129
O29   O     O_R   0.953115 0.812988 0.031457 -0.416005
O30   O     O_R   0.139808 0.724453 0.020346 -0.406686
C71   C     C_2   0.093003 0.894330 0.748516 0.520574
H28   H     H_    0.065445 0.943005 0.732602 0.132430
O31   O     O_2   0.234278 0.885986 0.777944 -0.556584

loop_
_geom_bond_atom_site_label_1
_geom_bond_atom_site_label_2
_geom_bond_distance
_ccdc_geom_bond_type
C13   C19   1.435194 A    
C42   C44   1.543429 S    
C60   C61   1.419591 A    
C39   C41   1.552485 S    
C23   C24   1.557581 S    
C4    C6    1.482173 S    
C7    C11   1.402581 A    
C7    C8    1.401053 A    
C35   C42   1.542599 S    
C1    O6    1.297277 A    
C21   H2    1.083997 S    
O19   C68   1.300256 A    
C5    C67   1.477708 S    
C58   C59   1.387649 A    
C14   C15   1.387189 A    
C25   C68   1.448908 S    
C69   O25   1.219948 D    
C16   C17   1.414506 A    
C54   C55   1.437692 A    
C24   C32   1.559658 S    
O5    C3    1.296475 A    
C18   C19   1.420693 A    
C14   H5    1.076876 S    
C35   H11   1.110243 S    
C38   C66   1.457037 S    
C28   C33   1.481127 S    
C5    C8    1.412506 A    
V4    O20   2.148230 S    
C38   C46   1.218612 T    
O12   V3    1.994744 S    
N1    O21   1.300226 A    
O15   C67   1.298575 A    
C7    H3    1.084164 S    
O16   V4    1.992277 S    
O1    C2    1.298285 A    
O17   V3    2.152784 S    
O8    V2    1.975117 S    
C9    H4    1.079832 S    
C17   C70   1.488253 S    
C22   N3    1.437529 S    
C41   C43   1.552971 S    
C47   C50   1.395011 A    
C51   H22   1.076964 S    
C29   C31   1.525019 S    
C50   H21   1.083617 S    
O1    V2    1.987687 S    
C11   C15   1.393391 A    
C8    N4    1.442665 S    
O7    V1    2.152838 S    
C43   H13   1.110069 S    
C48   C63   1.395030 A    
C53   C57   1.393604 A    
C27   C29   1.542635 S    
H9    C32   1.109820 S    
C56   H23   1.076071 S    
O9    C4    1.297319 A    
N4    O30   1.301634 A    
C29   N2    1.457295 S    
C3    C26   1.448704 S    
O18   C67   1.296419 A    
C63   H18   1.083650 S    
O4    C2    1.296495 A    
O14   V3    1.965211 S    
C36   C40   1.535953 S    
C43   C44   1.554810 S    
C40   C43   1.543871 S    
C49   C53   1.403602 A    
C12   C13   1.432841 A    
C71   O31   1.221708 D    
C52   C54   1.437788 A    
C59   C60   1.393601 A    
C2    C48   1.473199 S    
C39   H15   1.109561 S    
C15   H1    1.084193 S    
C13   C14   1.410168 A    
C1    C37   1.457353 S    
C5    C9    1.408791 A    
C52   C53   1.419591 A    
C30   C32   1.549942 S    
C70   O28   1.221091 D    
N3    O27   1.301296 A    
C17   C18   1.418002 A    
C64   H17   1.076967 S    
O13   C68   1.296369 A    
C56   C57   1.387610 A    
C61   C64   1.426092 A    
C28   C31   1.532646 S    
C25   C33   1.213759 T    
C29   C30   1.533073 S    
C19   C22   1.438824 A    
O12   C65   1.296556 A    
C40   C45   1.490297 S    
C49   C50   1.391102 A    
O11   C66   1.297033 A    
C6    C22   1.419155 A    
N2    O23   1.300355 A    
O3    C4    1.299784 A    
C36   C44   1.544116 S    
C27   C28   1.550074 S    
C55   C56   1.411211 A    
O6    V2    1.965560 S    
C60   C62   1.403655 A    
N4    O29   1.301211 A    
C23   H8    1.109999 S    
C10   C12   1.442523 A    
C24   H7    1.110094 S    
N3    O26   1.301434 A    
O2    V1    1.965179 S    
O17   V4    1.702045 S    
O18   V4    1.990786 S    
C31   C32   1.542701 S    
C26   C34   1.213652 T    
C37   C45   1.218776 T    
C27   H10   1.110362 S    
C65   O16   1.298357 A    
C62   H25   1.083962 S    
C16   C71   1.492741 S    
O15   V3    1.989594 S    
C12   C16   1.420383 A    
C35   C39   1.554912 S    
C71   H28   1.082027 S    
O5    V1    1.960114 S    
O13   V3    1.960283 S    
O19   V4    1.974936 S    
O8    C3    1.300111 A    
C48   C64   1.406265 A    
C41   H14   1.110073 S    
C36   C69   1.496771 S    
V3    O20   1.706322 S    
C20   C21   1.389503 A    
O9    V2    1.990859 S    
C70   H27   1.084644 S    
O7    V2    1.703350 S    
O4    V1    1.994756 S    
O3    V1    1.989568 S    
V1    O10   1.706407 S    
C49   H20   1.083959 S    
C47   C65   1.473332 S    
C18   C20   1.410340 A    
C51   C52   1.426164 A    
C35   C36   1.544548 S    
C42   C46   1.488858 S    
O14   C66   1.304020 A    
C55   C61   1.437766 A    
O2    C1    1.304015 A    
C23   C27   1.560043 S    
C30   C34   1.480962 S    
C20   H6    1.081132 S    
C6    C21   1.394354 A    
N1    O22   1.299971 A    
N2    O24   1.300250 A    
O11   V4    1.965344 S    
C59   H19   1.084384 S    
C24   C28   1.548583 S    
C39   C40   1.544544 S    
H12   C44   1.110493 S    
C41   C42   1.541871 S    
C47   C51   1.406331 A    
C58   H24   1.076066 S    
C10   C11   1.414761 A    
C57   H16   1.084393 S    
C62   C63   1.391113 A    
C9    C10   1.422583 A    
C23   C30   1.548369 S    
C54   C58   1.411204 A    
V2    O10   2.148193 S    
C69   H26   1.084571 S    
C31   N1    1.456854 S    
