data_mof_unit_5205.cif
_audit_creation_date              2013-03-05T15:49:56-0500
_audit_creation_method            fapswitch 2.2
_symmetry_space_group_name_H-M    P1
_symmetry_Int_Tables_number       1
_space_group_crystal_system       triclinic
_cell_length_a                    27.642734
_cell_length_b                    12.979852
_cell_length_c                    11.8734
_cell_angle_alpha                 99.411828
_cell_angle_beta                  92.469553
_cell_angle_gamma                 94.712222
_cell_volume                      4181.67763687

loop_
_atom_site_label
_atom_site_type_symbol
_atom_site_description
_atom_site_fract_x
_atom_site_fract_y
_atom_site_fract_z
_atom_type_partial_charge
O1    O     O_R   0.502540 0.354460 0.582000 -0.530469
O2    O     O_R   0.497460 0.645540 0.418000 -0.539628
O3    O     O_R   0.496500 0.341410 0.386200 -0.530862
O4    O     O_R   0.503500 0.658590 0.613800 -0.559293
C1    C     C_R   0.502226 0.300130 0.478308 0.824189
C2    C     C_R   0.498216 0.700041 0.521784 0.830722
O5    O     O_R   0.433290 0.506540 0.597890 -0.476663
O6    O     O_R   0.566710 0.493460 0.402110 -0.468270
O7    O     O_R   0.427240 0.493490 0.402090 -0.583093
O8    O     O_R   0.572760 0.506510 0.597910 -0.596111
C3    C     C_R   0.407899 0.498802 0.500825 0.826438
C4    C     C_R   0.592074 0.500278 0.499247 0.829731
Cu1   Cu    Cu3+1 0.503580 0.507730 0.615930 1.075110
Cu2   Cu    Cu3+1 0.496420 0.492270 0.384070 1.093926
C5    C     C_R   0.175827 0.465479 0.406718 0.640058
C6    C     C_R   0.823170 0.506500 0.600220 0.646350
O9    O     O_2   0.200358 0.467823 0.311604 -0.421205
O10   O     O_2   0.799543 0.531522 0.696321 -0.422082
N1    N     N_R   0.201880 0.478592 0.508806 -0.453581
N2    N     N_R   0.796436 0.475790 0.499337 -0.452772
C7    C     C_R   0.180261 0.481184 0.609946 0.629620
C8    C     C_R   0.817366 0.441845 0.399818 0.647407
C9    C     C_R   0.282006 0.582429 0.528877 0.441550
C10   C     C_R   0.712811 0.390161 0.493673 0.478229
C11   C     C_R   0.332500 0.584517 0.526124 -0.260987
C12   C     C_R   0.662901 0.399054 0.492927 -0.227087
C13   C     C_R   0.327144 0.393314 0.477850 0.257126
C14   C     C_R   0.676253 0.589387 0.508050 0.276582
C15   C     C_R   0.276482 0.391873 0.484186 -0.155802
C16   C     C_R   0.726529 0.579444 0.504976 -0.159883
C17   C     C_R   0.253960 0.484994 0.508701 0.180313
C18   C     C_R   0.744771 0.481151 0.497971 0.157481
C19   C     C_R   0.101055 0.460477 0.507230 -0.124519
C20   C     C_R   0.896298 0.464640 0.502732 -0.133122
C21   C     C_R   0.124455 0.452403 0.401829 -0.127035
C22   C     C_R   0.874398 0.509044 0.603601 -0.142664
C23   C     C_R   0.095371 0.435121 0.297151 0.394490
C24   C     C_R   0.904743 0.554296 0.702225 0.426041
C25   C     C_R   0.128987 0.474519 0.612882 -0.105371
C26   C     C_R   0.867423 0.427630 0.400204 -0.094852
C27   C     C_R   0.355073 0.491457 0.501984 -0.103495
C28   C     C_R   0.644580 0.496891 0.498221 -0.105081
H1    H     H_    0.253690 0.318672 0.469746 0.164168
H2    H     H_    0.752394 0.647400 0.509971 0.167767
C29   C     C_R   0.969655 0.420623 0.402801 -0.002974
C30   C     C_R   0.026173 0.473373 0.610829 -0.000683
C31   C     C_R   0.975936 0.490096 0.607105 0.004055
C32   C     C_R   0.021269 0.434389 0.402459 0.021031
C33   C     C_R   0.947258 0.458321 0.504137 0.028024
C34   C     C_R   0.049540 0.455588 0.506921 0.031605
C35   C     C_R   0.939903 0.369128 0.306203 0.202931
C36   C     C_R   0.053546 0.473792 0.714631 0.195726
C37   C     C_R   0.889310 0.376470 0.302819 0.206841
C38   C     C_R   0.104625 0.479648 0.716763 0.179402
O11   O     O_2   0.789498 0.423496 0.301439 -0.492354
O12   O     O_2   0.208955 0.490497 0.706352 -0.492093
C39   C     C_R   0.045014 0.431723 0.300331 -0.242283
C40   C     C_R   0.954533 0.544141 0.701598 -0.213735
H3    H     H_    0.637993 0.329612 0.489829 0.213280
H4    H     H_    0.354513 0.658835 0.541313 0.197038
H5    H     H_    0.024239 0.430764 0.221161 0.210156
H6    H     H_    0.977193 0.584067 0.774431 0.225868
C41   C     C_R   0.494714 0.813329 0.535054 -0.178172
C42   C     C_R   0.506488 0.187120 0.465575 -0.193329
C43   C     C_R   0.523849 0.018803 0.360211 -0.199766
C44   C     C_R   0.478144 0.981981 0.641003 -0.210889
C45   C     C_R   0.524202 0.127290 0.366922 0.403755
C46   C     C_R   0.478092 0.873628 0.634934 0.405790
C47   C     C_R   0.492468 0.137582 0.556864 -0.234713
C48   C     C_R   0.508648 0.862708 0.443515 -0.248056
C49   C     C_R   0.493117 0.030140 0.549963 0.081156
C50   C     C_R   0.508306 0.970292 0.450617 0.077018
H7    H     H_    0.520397 0.817647 0.366194 0.210317
H8    H     H_    0.480587 0.182397 0.634102 0.218623
H9    H     H_    0.536377 0.971813 0.284930 0.203364
H10   H     H_    0.466135 0.029338 0.716688 0.197162
N3    N     N_R   0.508960 0.519350 0.790140 -0.283302
N4    N     N_R   0.491040 0.480650 0.209860 -0.245906
C51   C     C_R   0.437275 0.487090 0.046961 0.352106
C52   C     C_R   0.562553 0.520736 0.954045 0.390529
C53   C     C_R   0.446284 0.455993 0.153464 0.320250
C54   C     C_R   0.552657 0.553894 0.848690 0.305607
C55   C     C_R   0.529478 0.516759 0.147889 0.566023
C56   C     C_R   0.470630 0.483591 0.852313 0.558664
C57   C     C_R   0.523465 0.508604 0.025886 -0.296253
C58   C     C_R   0.476355 0.496159 0.974717 -0.301412
N5    N     N_2   0.350040 0.297568 0.451909 -0.429247
H11   H     H_    0.386838 0.304566 0.440791 0.251799
C59   C     C_3   0.324099 0.210566 0.374879 -0.620373
H12   H     H_    0.348722 0.147850 0.351982 0.230798
H13   H     H_    0.311052 0.236655 0.295227 0.240210
H14   H     H_    0.293141 0.176092 0.417032 0.250731
N6    N     N_2   0.656971 0.689759 0.520503 -0.417559
H15   H     H_    0.623878 0.694113 0.557043 0.241756
C60   C     C_3   0.689288 0.784851 0.550496 -0.626194
H16   H     H_    0.667710 0.853969 0.558989 0.230491
H17   H     H_    0.714776 0.792195 0.481903 0.247269
H18   H     H_    0.709603 0.785320 0.633417 0.241999
S1    S     S_3+6 0.455196 0.819191 0.752235 0.041933
O13   O     O_2   0.429112 0.898183 0.828256 -0.247004
O14   O     O_2   0.420359 0.724437 0.709569 -0.276498
O15   O     O_3   0.501826 0.784450 0.829110 -0.532082
H19   H     H_    0.486477 0.746305 0.886026 0.381100
S2    S     S_3+6 0.549957 0.182511 0.253316 0.051604
O16   O     O_2   0.510019 0.211017 0.177635 -0.283926
O17   O     O_2   0.583134 0.278947 0.299738 -0.259024
O18   O     O_3   0.582157 0.095448 0.174811 -0.505004
H20   H     H_    0.594429 0.131590 0.113013 0.406660
S3    S     S_3+6 0.416787 0.403258 0.788331 0.086825
O19   O     O_2   0.398871 0.333151 0.869757 -0.297055
O20   O     O_2   0.377428 0.471789 0.765954 -0.178918
O21   O     O_3   0.424323 0.323228 0.666357 -0.558944
H21   H     H_    0.395827 0.270398 0.656092 0.373576
S4    S     S_3+6 0.584245 0.592569 0.212798 0.074580
O22   O     O_2   0.621959 0.519706 0.233600 -0.172136
O23   O     O_2   0.604025 0.662836 0.133600 -0.336413
O24   O     O_3   0.577014 0.672434 0.335400 -0.555941
H22   H     H_    0.602342 0.731751 0.339635 0.373007
N7    N     N_2   0.587819 0.619895 0.802206 -0.392405
H23   H     H_    0.573206 0.653941 0.738000 0.295293
C61   C     C_3   0.617657 0.698961 0.881402 -0.535306
H24   H     H_    0.594453 0.748465 0.937690 0.247462
H25   H     H_    0.639689 0.750215 0.832842 0.215263
H26   H     H_    0.643426 0.662778 0.933084 0.295480
N8    N     N_2   0.408698 0.398423 0.200956 -0.392212
H27   H     H_    0.375851 0.430751 0.204313 0.296208
C62   C     C_3   0.403603 0.286559 0.159060 -0.514989
H28   H     H_    0.428743 0.263701 0.090493 0.260414
H29   H     H_    0.411313 0.244347 0.230921 0.230896
H30   H     H_    0.365885 0.261256 0.123322 0.225172
S5    S     S_3+6 0.384276 0.553251 0.030998 0.068829
O25   O     O_2   0.391657 0.628718 0.948457 -0.209093
O26   O     O_2   0.341230 0.475582 0.990385 -0.192904
O27   O     O_3   0.373210 0.621439 0.158995 -0.550376
H31   H     H_    0.342038 0.651535 0.146315 0.397442
S6    S     S_3+6 0.612498 0.443382 0.960468 0.087374
O28   O     O_2   0.657441 0.507998 0.015769 -0.201240
O29   O     O_2   0.599816 0.356612 0.026820 -0.228295
O30   O     O_3   0.624177 0.390484 0.826439 -0.514665
H32   H     H_    0.651932 0.348277 0.835393 0.391281
S7    S     S_3+6 0.118249 0.412415 0.158214 0.052420
O31   O     O_2   0.145251 0.511547 0.135776 -0.207977
O32   O     O_2   0.152134 0.326912 0.149921 -0.235202
O33   O     O_3   0.072897 0.376442 0.056822 -0.555731
H33   H     H_    0.061031 0.304048 0.064972 0.348112
S8    S     S_3+6 0.884239 0.631182 0.826312 0.046572
O34   O     O_2   0.852298 0.710416 0.791795 -0.242677
O35   O     O_2   0.856037 0.560641 0.893629 -0.236017
O36   O     O_3   0.931539 0.695377 0.910140 -0.550597
H34   H     H_    0.916743 0.734321 0.976873 0.383672
S9    S     S_3+6 0.734115 0.264985 0.490837 0.044424
O37   O     O_2   0.748628 0.224877 0.372241 -0.252946
O38   O     O_2   0.777420 0.272265 0.573681 -0.281945
O39   O     O_3   0.690008 0.180932 0.526343 -0.522908
H35   H     H_    0.704083 0.112512 0.518231 0.381144
S10   S     S_3+6 0.254800 0.701966 0.556539 0.070300
O40   O     O_2   0.214642 0.702793 0.467385 -0.225890
O41   O     O_2   0.233616 0.712703 0.671891 -0.263888
O42   O     O_3   0.295911 0.804571 0.554147 -0.491942
H36   H     H_    0.313847 0.816525 0.629877 0.376903
N9    N     N_2   0.860855 0.322520 0.204518 -0.431842
H37   H     H_    0.830245 0.275983 0.217507 0.317886
C63   C     C_3   0.858301 0.375463 0.106244 -0.508723
H38   H     H_    0.822239 0.406127 0.097879 0.285259
H39   H     H_    0.863177 0.318728 0.027766 0.222569
H40   H     H_    0.887079 0.441681 0.112921 0.221803
N10   N     N_2   0.130220 0.490352 0.825334 -0.403007
H41   H     H_    0.154850 0.436507 0.834574 0.323699
C64   C     C_3   0.144437 0.597509 0.879310 -0.428634
H42   H     H_    0.167526 0.638953 0.823525 0.258396
H43   H     H_    0.165419 0.598383 0.961182 0.269503
H44   H     H_    0.111677 0.640257 0.897198 0.200634
N11   N     N_2   0.959925 0.298642 0.218825 -0.450914
H45   H     H_    0.943883 0.291779 0.137722 0.279150
C65   C     C_3   0.969082 0.198600 0.250061 -0.616930
H46   H     H_    0.987195 0.151735 0.180013 0.230219
H47   H     H_    0.934269 0.154694 0.264335 0.242674
H48   H     H_    0.993443 0.209853 0.328828 0.237429
N12   N     N_2   0.029538 0.457476 0.815326 -0.432339
H49   H     H_    0.047244 0.491546 0.892147 0.321264
C66   C     C_3   0.009767 0.350663 0.814674 -0.565841
H50   H     H_    0.989245 0.346807 0.892477 0.233662
H51   H     H_    0.039641 0.298299 0.814040 0.241722
H52   H     H_    0.984369 0.322915 0.738700 0.225108

loop_
_geom_bond_atom_site_label_1
_geom_bond_atom_site_label_2
_geom_bond_distance
_ccdc_geom_bond_type
C40   H6    1.078044 S    
C44   C46   1.396316 A    
N5    H11   1.029894 S    
N6    H15   1.030994 S    
C13   C15   1.404450 A    
C64   H42   1.109963 S    
C60   H16   1.110997 S    
C38   N10   1.424200 S    
S5    O27   1.682615 S    
N1    C17   1.435275 S    
S2    O17   1.501300 D    
S4    O22   1.502837 D    
C60   H18   1.111111 S    
O36   H34   0.990705 S    
C32   C39   1.400365 A    
N10   C64   1.447987 S    
N11   H45   1.029817 S    
O5    C3    1.308361 A    
C19   C25   1.421851 A    
C23   S7    1.780358 S    
O1    C1    1.314258 A    
S10   O40   1.502453 D    
C63   H39   1.109692 S    
C10   C12   1.393644 A    
S3    O20   1.502303 D    
O42   H36   0.990813 S    
C57   C58   1.398654 A    
C29   C32   1.423514 A    
C25   C38   1.425252 A    
C29   C35   1.419957 A    
C30   C36   1.417164 A    
Cu2   N4    2.047239 S    
C47   C49   1.385195 A    
S9    O39   1.682469 S    
O4    Cu1   1.962616 S    
C35   N11   1.428966 S    
O21   H21   0.990547 S    
C61   H26   1.102765 S    
C4    C28   1.456186 S    
C31   C40   1.403168 A    
C24   C40   1.393587 A    
N4    C55   1.410117 A    
C24   S8    1.780982 S    
C63   H38   1.109772 S    
C43   C45   1.396535 A    
O18   H20   0.990662 S    
C11   H4    1.081914 S    
C59   H13   1.111120 S    
C12   H3    1.082999 S    
C6    N2    1.363434 A    
N7    C61   1.447829 S    
S9    O37   1.502673 D    
C8    C26   1.410822 A    
N6    C60   1.447743 S    
Cu1   Cu2   2.724721 S    
C15   H1    1.080809 S    
S9    O38   1.503004 D    
C64   H43   1.108249 S    
C55   S4    1.805759 S    
C16   H2    1.080898 S    
O2    C2    1.315141 A    
C54   N7    1.430839 S    
S6    O30   1.682692 S    
C5    C21   1.413793 A    
S2    O16   1.501175 D    
N9    C63   1.449785 S    
C36   C38   1.406674 A    
C45   S2    1.776283 S    
N9    H37   1.030719 S    
C65   H48   1.111007 S    
S8    O35   1.503575 D    
N11   C65   1.446113 S    
C66   H51   1.111315 S    
Cu1   N3    2.047237 S    
C42   C45   1.424539 A    
C63   H40   1.112565 S    
C62   H30   1.111325 S    
C65   H47   1.111361 S    
S7    O33   1.681926 S    
C11   C27   1.398778 A    
N10   H41   1.029981 S    
C51   C53   1.407251 A    
S6    O28   1.502120 D    
N3    C56   1.407719 A    
S5    O26   1.503049 D    
C19   C34   1.420006 A    
C66   H50   1.110537 S    
C1    C42   1.464855 S    
C14   N6    1.435670 S    
C35   C37   1.408841 A    
S7    O32   1.503893 D    
C9    C17   1.407735 A    
C2    C41   1.464715 S    
C5    N1    1.361627 A    
O7    Cu2   1.934461 S    
C62   H29   1.109076 S    
C52   C57   1.419605 A    
C10   S9    1.768857 S    
S8    O36   1.682888 S    
C13   C27   1.414525 A    
C44   C49   1.395558 A    
C7    C25   1.415175 A    
C41   C48   1.401351 A    
C29   C33   1.411329 A    
O6    C4    1.310105 A    
C51   S5    1.776437 S    
C48   H7    1.082446 S    
O39   H35   0.990636 S    
C47   H8    1.081728 S    
C42   C47   1.400613 A    
S2    O18   1.682395 S    
C59   H14   1.109178 S    
C13   N5    1.435544 S    
C32   C34   1.412228 A    
O7    C3    1.303290 A    
C61   H24   1.111384 S    
C8    O11   1.347559 S    
O3    Cu2   1.962616 S    
O8    C4    1.301506 A    
C52   C54   1.410953 A    
C55   C57   1.436464 A    
N2    C8    1.362215 A    
C26   C37   1.420989 A    
N5    C59   1.448653 S    
N8    H27   1.030687 S    
C64   H44   1.110689 S    
C20   C26   1.418385 A    
S3    O21   1.670144 S    
O4    C2    1.302260 A    
O1    Cu1   1.961735 S    
S5    O25   1.503348 D    
C12   C28   1.398370 A    
S6    O29   1.503723 D    
S8    O34   1.503701 D    
N2    C18   1.435071 S    
C66   H52   1.110837 S    
C21   C23   1.426371 A    
C5    O9    1.345346 S    
C30   C34   1.411613 A    
C30   C31   1.422991 A    
C20   C33   1.417314 A    
O6    Cu2   1.944096 S    
C53   N8    1.420062 S    
S10   O42   1.682997 S    
C56   C58   1.436065 A    
O33   H33   0.990829 S    
O3    C1    1.303395 A    
O8    Cu1   1.934461 S    
C52   S6    1.778692 S    
C7    O12   1.347125 S    
S4    O23   1.502651 D    
O30   H32   0.990528 S    
C60   H17   1.110239 S    
C39   H5    1.077990 S    
O27   H31   0.990524 S    
C31   C33   1.411058 A    
C43   C50   1.396308 A    
C41   C46   1.425672 A    
C56   S3    1.807799 S    
C43   H9    1.083498 S    
S1    O13   1.503575 D    
C14   C16   1.407753 A    
C36   N12   1.429253 S    
C49   C50   1.402741 A    
C15   C17   1.399089 A    
C65   H46   1.110359 S    
S7    O31   1.501729 D    
C6    C22   1.412436 A    
C22   C24   1.424537 A    
C16   C18   1.401276 A    
N4    C53   1.369253 A    
C37   N9    1.426331 S    
C10   C18   1.408166 A    
N3    C54   1.371168 A    
C14   C28   1.412169 A    
C19   C21   1.426034 A    
C3    C27   1.456318 S    
C20   C22   1.423761 A    
C9    C11   1.395700 A    
O15   H19   0.990697 S    
O2    Cu2   1.961734 S    
C61   H25   1.111340 S    
S4    O24   1.673075 S    
N12   H49   1.030116 S    
O5    Cu1   1.944101 S    
S1    O15   1.681263 S    
C9    S10   1.768381 S    
C6    O10   1.346080 S    
N7    H23   1.025967 S    
S3    O19   1.504319 D    
N8    C62   1.449023 S    
C48   C50   1.385972 A    
N12   C66   1.446566 S    
C59   H12   1.111063 S    
O24   H22   0.990581 S    
S10   O41   1.502756 D    
S1    O14   1.502064 D    
C51   C58   1.417268 A    
C23   C39   1.391433 A    
C44   H10   1.083589 S    
C62   H28   1.112383 S    
N1    C7    1.360991 A    
C46   S1    1.778757 S    
