data_mof_unit_35105.cif
_audit_creation_date              2012-10-26T17:11:12-0400
_audit_creation_method            fapswitch 2.2
_symmetry_space_group_name_H-M    P1
_symmetry_Int_Tables_number       1
_space_group_crystal_system       triclinic
_cell_length_a                    27.998078
_cell_length_b                    18.885362
_cell_length_c                    16.788091
_cell_angle_alpha                 90.00026
_cell_angle_beta                  62.614834
_cell_angle_gamma                 90.00008
_cell_volume                      7881.98817863

loop_
_atom_site_label
_atom_site_type_symbol
_atom_type_description
_atom_site_fract_x
_atom_site_fract_y
_atom_site_fract_z
_atom_type_partial_charge
Br1   Br    Br    0.106247 0.826108 0.079742 -0.487431
Br2   Br    Br    0.893753 0.173891 0.920258 -0.487432
Br3   Br    Br    0.893749 0.826114 0.920259 -0.487430
Br4   Br    Br    0.106251 0.173886 0.079741 -0.487430
Br5   Br    Br    0.606247 0.326109 0.079742 -0.487431
Br6   Br    Br    0.393753 0.673891 0.920258 -0.487432
Br7   Br    Br    0.393749 0.326114 0.920259 -0.487430
Br8   Br    Br    0.606251 0.673886 0.079741 -0.487430
C1    C     C_R   0.294652 0.727514 0.329673 0.559391
C2    C     C_R   0.461809 0.126848 0.462664 -0.127296
C3    C     C_R   0.927523 0.098461 0.065406 0.558227
C4    C     C_R   0.427522 0.401539 0.065407 0.558227
C5    C     C_R   0.572478 0.598461 0.934593 0.558228
C6    C     C_R   0.572477 0.401538 0.934593 0.558227
C7    C     C_R   0.427523 0.598461 0.065406 0.558227
C8    C     C_R   0.044047 0.500000 0.519429 0.046625
C9    C     C_R   0.955953 0.500000 0.480571 0.046625
C10   C     C_R   0.544047 1.000000 0.519429 0.046625
C11   C     C_R   0.455953 1.000000 0.480571 0.046625
C12   C     C_R   0.021046 0.564704 0.512329 0.013658
C13   C     C_R   0.461811 0.873152 0.462658 -0.127296
C14   C     C_R   0.978954 0.435296 0.487671 0.013658
C15   C     C_R   0.978953 0.564704 0.487675 0.013658
C16   C     C_R   0.021047 0.435296 0.512325 0.013658
C17   C     C_R   0.521046 0.064704 0.512329 0.013658
C18   C     C_R   0.478954 0.935296 0.487671 0.013658
C19   C     C_R   0.478953 0.064704 0.487675 0.013658
C20   C     C_R   0.521047 0.935296 0.512325 0.013658
C21   C     C_R   0.113957 0.435451 0.539743 -0.028368
C22   C     C_R   0.886043 0.564549 0.460257 -0.028368
C23   C     C_R   0.886043 0.435451 0.460256 -0.028368
C24   C     C_R   0.538189 0.126848 0.537342 -0.127296
C25   C     C_R   0.113957 0.564549 0.539744 -0.028368
C26   C     C_R   0.613957 0.935451 0.539743 -0.028368
C27   C     C_R   0.386043 0.064549 0.460257 -0.028368
C28   C     C_R   0.386043 0.935451 0.460256 -0.028368
C29   C     C_R   0.613957 0.064549 0.539744 -0.028368
C30   C     C_R   0.167881 0.435252 0.528708 -0.012745
C31   C     C_R   0.832119 0.564747 0.471292 -0.012745
C32   C     C_R   0.832119 0.435253 0.471291 -0.012746
C33   C     C_R   0.167881 0.564747 0.528709 -0.012746
C34   C     C_R   0.667881 0.935252 0.528708 -0.012745
C35   C     C_R   0.038191 0.373152 0.537336 -0.127296
C36   C     C_R   0.332118 0.064747 0.471292 -0.012745
C37   C     C_R   0.332119 0.935253 0.471291 -0.012746
C38   C     C_R   0.667881 0.064747 0.528709 -0.012746
C39   C     C_R   0.196068 0.500000 0.510323 0.185077
C40   C     C_R   0.803932 0.500000 0.489677 0.185077
C41   C     C_R   0.696068 1.000000 0.510323 0.185077
C42   C     C_R   0.303932 0.000000 0.489677 0.185077
C43   C     C_R   0.090904 0.500000 0.532435 0.027889
C44   C     C_R   0.909096 0.500000 0.467565 0.027889
C45   C     C_R   0.590904 1.000000 0.532435 0.027889
C46   C     C_R   0.961809 0.626848 0.462664 -0.127296
C47   C     C_R   0.409096 0.000000 0.467565 0.027889
C48   C     C_R   0.582100 0.873981 0.554971 -0.104559
C49   C     C_R   0.417899 0.126019 0.445028 -0.104559
C50   C     C_R   0.417900 0.873982 0.445024 -0.104559
C51   C     C_R   0.582100 0.126018 0.554976 -0.104559
C52   C     C_R   0.082100 0.373981 0.554971 -0.104559
C53   C     C_R   0.917899 0.626019 0.445028 -0.104559
C54   C     C_R   0.917900 0.373982 0.445024 -0.104559
C55   C     C_R   0.082100 0.626018 0.554976 -0.104559
C56   C     C_R   0.961811 0.373152 0.462658 -0.127296
C57   C     C_R   0.038189 0.626848 0.537342 -0.127296
C58   C     C_R   0.220318 0.765544 0.953816 0.057357
C59   C     C_R   0.779682 0.234456 0.046184 0.057357
C60   C     C_R   0.779681 0.765544 0.046185 0.057357
C61   C     C_R   0.705348 0.272486 0.670327 0.559391
C62   C     C_R   0.220319 0.234456 0.953815 0.057357
C63   C     C_R   0.720318 0.265543 0.953816 0.057357
C64   C     C_R   0.279682 0.734456 0.046184 0.057357
C65   C     C_R   0.279681 0.265543 0.046185 0.057357
C66   C     C_R   0.720319 0.734456 0.953815 0.057357
C67   C     C_R   0.232059 0.695107 0.964190 -0.087112
C68   C     C_R   0.767941 0.304893 0.035810 -0.087112
C69   C     C_R   0.767947 0.695107 0.035799 -0.087107
C70   C     C_R   0.232053 0.304893 0.964201 -0.087107
C71   C     C_R   0.732059 0.195107 0.964190 -0.087112
C72   C     C_R   0.705348 0.727514 0.670327 0.559391
C73   C     C_R   0.267941 0.804893 0.035810 -0.087112
C74   C     C_R   0.267947 0.195107 0.035799 -0.087107
C75   C     C_R   0.732053 0.804893 0.964201 -0.087107
C76   C     C_R   0.261235 0.679634 0.010695 -0.062651
C77   C     C_R   0.738765 0.320366 0.989305 -0.062651
C78   C     C_R   0.738771 0.679633 0.989293 -0.062652
C79   C     C_R   0.261228 0.320366 0.010707 -0.062652
C80   C     C_R   0.761235 0.179634 0.010695 -0.062651
C81   C     C_R   0.238765 0.820366 0.989305 -0.062651
C82   C     C_R   0.238771 0.179633 0.989293 -0.062652
C83   C     C_R   0.294652 0.272486 0.329672 0.559391
C84   C     C_R   0.761228 0.820366 0.010707 -0.062652
C85   C     C_R   0.139947 0.820357 0.949858 0.160367
C86   C     C_R   0.860052 0.179643 0.050141 0.160367
C87   C     C_R   0.860051 0.820358 0.050142 0.160368
C88   C     C_R   0.139949 0.179642 0.949858 0.160368
C89   C     C_R   0.639947 0.320357 0.949858 0.160367
C90   C     C_R   0.360053 0.679643 0.050141 0.160367
C91   C     C_R   0.360051 0.320358 0.050142 0.160368
C92   C     C_R   0.639949 0.679642 0.949858 0.160368
C93   C     C_R   0.115863 0.848433 0.898316 -0.000062
C94   C     C_R   0.794652 0.227514 0.329673 0.559391
C95   C     C_R   0.884137 0.151567 0.101684 -0.000062
C96   C     C_R   0.884136 0.848434 0.101684 -0.000063
C97   C     C_R   0.115864 0.151566 0.898316 -0.000063
C98   C     C_R   0.615863 0.348433 0.898316 -0.000062
C99   C     C_R   0.384137 0.651567 0.101684 -0.000062
C100  C     C_R   0.384136 0.348434 0.101684 -0.000063
C101  C     C_R   0.615864 0.651566 0.898316 -0.000063
C102  C     C_R   0.136847 0.830223 0.807790 -0.148180
C103  C     C_R   0.863153 0.169776 0.192210 -0.148180
C104  C     C_R   0.863152 0.830224 0.192211 -0.148179
C105  C     C_R   0.205348 0.772486 0.670327 0.559391
C106  C     C_R   0.136848 0.169776 0.807789 -0.148179
C107  C     C_R   0.636847 0.330223 0.807790 -0.148180
C108  C     C_R   0.363153 0.669776 0.192210 -0.148180
C109  C     C_R   0.363152 0.330224 0.192211 -0.148179
C110  C     C_R   0.636848 0.669776 0.807789 -0.148179
C111  C     C_R   0.182666 0.788035 0.766489 -0.017561
C112  C     C_R   0.817334 0.211965 0.233511 -0.017561
C113  C     C_R   0.817333 0.788035 0.233511 -0.017561
C114  C     C_R   0.182667 0.211965 0.766489 -0.017561
C115  C     C_R   0.682666 0.288035 0.766489 -0.017561
C116  C     C_R   0.205348 0.227514 0.670327 0.559391
C117  C     C_R   0.317334 0.711965 0.233511 -0.017561
C118  C     C_R   0.317333 0.288035 0.233511 -0.017561
C119  C     C_R   0.682667 0.711965 0.766489 -0.017561
C120  C     C_R   0.208997 0.765417 0.815719 -0.145926
C121  C     C_R   0.791003 0.234583 0.184281 -0.145926
C122  C     C_R   0.791003 0.765417 0.184281 -0.145927
C123  C     C_R   0.208997 0.234583 0.815719 -0.145927
C124  C     C_R   0.708997 0.265417 0.815719 -0.145926
C125  C     C_R   0.291003 0.734583 0.184281 -0.145926
C126  C     C_R   0.291003 0.265417 0.184281 -0.145927
C127  C     C_R   0.794652 0.772486 0.329672 0.559391
C128  C     C_R   0.708997 0.734583 0.815719 -0.145927
C129  C     C_R   0.188532 0.782636 0.906483 -0.000587
C130  C     C_R   0.811468 0.217364 0.093517 -0.000587
C131  C     C_R   0.811468 0.782637 0.093518 -0.000589
C132  C     C_R   0.188532 0.217363 0.906482 -0.000589
C133  C     C_R   0.688532 0.282636 0.906483 -0.000587
C134  C     C_R   0.311468 0.717364 0.093517 -0.000587
C135  C     C_R   0.311468 0.282637 0.093518 -0.000589
C136  C     C_R   0.688532 0.717363 0.906482 -0.000589
C137  C     C_R   0.197896 0.631434 0.522391 0.574504
C138  C     C_R   0.538191 0.873152 0.537336 -0.127296
C139  C     C_R   0.802104 0.368566 0.477609 0.574505
C140  C     C_R   0.802104 0.631434 0.477609 0.574505
C141  C     C_R   0.197896 0.368566 0.522391 0.574504
C142  C     C_R   0.697896 0.131434 0.522391 0.574504
C143  C     C_R   0.302104 0.868566 0.477609 0.574505
C144  C     C_R   0.302104 0.131434 0.477609 0.574505
C145  C     C_R   0.697896 0.868566 0.522391 0.574504
C146  C     C_R   0.927522 0.901539 0.065407 0.558227
C147  C     C_R   0.072478 0.098461 0.934593 0.558228
C148  C     C_R   0.072477 0.901538 0.934593 0.558227
Cl1   Cl    Cl    0.267414 0.500000 0.443847 -0.552845
Cl2   Cl    Cl    0.732586 0.500000 0.556153 -0.552845
Cl3   Cl    Cl    0.767414 1.000000 0.443847 -0.552845
Cl4   Cl    Cl    0.232586 0.000000 0.556153 -0.552845
Cu1   Cu    Cu3+1 0.209920 0.785290 0.495070 1.011988
Cu2   Cu    Cu3+1 0.504760 0.500000 0.075850 1.090606
Cu3   Cu    Cu3+1 0.995240 0.000000 0.924150 1.090606
Cu4   Cu    Cu3+1 0.004760 1.000000 0.075850 1.090606
Cu5   Cu    Cu3+1 0.790080 0.214710 0.504930 1.011988
Cu6   Cu    Cu3+1 0.790080 0.785290 0.504930 1.011988
Cu7   Cu    Cu3+1 0.209920 0.214710 0.495070 1.011988
Cu8   Cu    Cu3+1 0.709920 0.285290 0.495070 1.011988
Cu9   Cu    Cu3+1 0.290080 0.714710 0.504930 1.011988
Cu10  Cu    Cu3+1 0.290080 0.285290 0.504930 1.011988
Cu11  Cu    Cu3+1 0.709920 0.714710 0.495070 1.011988
Cu12  Cu    Cu3+1 0.495240 0.500000 0.924150 1.090606
H1    H     H_    0.589204 0.825696 0.581845 0.159658
H2    H     H_    0.483203 0.176315 0.453089 0.119326
H3    H     H_    0.483205 0.823685 0.453081 0.119326
H4    H     H_    0.516795 0.176314 0.546919 0.119326
H5    H     H_    0.016797 0.323685 0.546910 0.119326
H6    H     H_    0.983203 0.676315 0.453089 0.119326
H7    H     H_    0.983205 0.323686 0.453081 0.119326
H8    H     H_    0.016795 0.676314 0.546919 0.119326
H9    H     H_    0.230348 0.875123 0.981107 0.136830
H10   H     H_    0.769652 0.124877 0.018893 0.136830
H11   H     H_    0.769641 0.875123 0.018914 0.136825
H12   H     H_    0.410796 0.174304 0.418155 0.159658
H13   H     H_    0.230359 0.124877 0.981086 0.136825
H14   H     H_    0.730348 0.375123 0.981107 0.136830
H15   H     H_    0.269652 0.624877 0.018893 0.136830
H16   H     H_    0.269641 0.375123 0.018914 0.136825
H17   H     H_    0.730359 0.624877 0.981086 0.136825
H18   H     H_    0.218089 0.652293 0.937290 0.118345
H19   H     H_    0.781911 0.347707 0.062710 0.118345
H20   H     H_    0.781922 0.652292 0.062691 0.118346
H21   H     H_    0.218078 0.347708 0.937309 0.118346
H22   H     H_    0.718089 0.152293 0.937290 0.118345
H23   H     H_    0.410796 0.825697 0.418151 0.159657
H24   H     H_    0.281911 0.847707 0.062710 0.118345
H25   H     H_    0.281922 0.152292 0.062691 0.118346
H26   H     H_    0.718078 0.847708 0.937309 0.118346
H27   H     H_    0.118265 0.850681 0.768402 0.174862
H28   H     H_    0.881735 0.149319 0.231598 0.174862
H29   H     H_    0.881735 0.850682 0.231598 0.174862
H30   H     H_    0.118265 0.149318 0.768402 0.174863
H31   H     H_    0.618265 0.350681 0.768402 0.174862
H32   H     H_    0.381735 0.649319 0.231598 0.174862
H33   H     H_    0.381735 0.350682 0.231598 0.174862
H34   H     H_    0.589204 0.174303 0.581849 0.159657
H35   H     H_    0.618265 0.649318 0.768402 0.174863
H36   H     H_    0.246313 0.735943 0.783195 0.148078
H37   H     H_    0.753687 0.264057 0.216805 0.148077
H38   H     H_    0.753687 0.735942 0.216805 0.148079
H39   H     H_    0.246313 0.264058 0.783195 0.148079
H40   H     H_    0.746313 0.235943 0.783195 0.148078
H41   H     H_    0.253687 0.764057 0.216805 0.148077
H42   H     H_    0.253687 0.235942 0.216805 0.148079
H43   H     H_    0.746313 0.764058 0.783195 0.148079
H44   H     H_    0.089204 0.325696 0.581845 0.159658
H45   H     H_    0.910796 0.674304 0.418155 0.159658
H46   H     H_    0.910796 0.325697 0.418151 0.159657
H47   H     H_    0.089204 0.674303 0.581849 0.159657
H48   H     H_    0.516797 0.823685 0.546910 0.119326
O1    O     O_R   0.255040 0.869590 0.478480 -0.437556
O2    O     O_R   0.817950 0.203450 0.375560 -0.499553
O3    O     O_R   0.817950 0.796550 0.375560 -0.499552
O4    O     O_R   0.182050 0.203450 0.624440 -0.499552
O5    O     O_R   0.682050 0.296550 0.624440 -0.499553
O6    O     O_R   0.317950 0.703450 0.375560 -0.499553
O7    O     O_R   0.317950 0.296550 0.375560 -0.499552
O8    O     O_R   0.682050 0.703450 0.624440 -0.499552
O9    O     O_R   0.250530 0.763330 0.367210 -0.516699
O10   O     O_R   0.749470 0.236670 0.632790 -0.516698
O11   O     O_R   0.749470 0.763330 0.632790 -0.516698
O12   O     O_R   0.744960 0.130410 0.521520 -0.437555
O13   O     O_R   0.250530 0.236670 0.367210 -0.516699
O14   O     O_R   0.750530 0.263330 0.367210 -0.516699
O15   O     O_R   0.249470 0.736670 0.632790 -0.516698
O16   O     O_R   0.249470 0.263330 0.632790 -0.516698
O17   O     O_R   0.750530 0.736670 0.367210 -0.516699
O18   O     O_R   0.177260 0.690030 0.513710 -0.540784
O19   O     O_R   0.822740 0.309970 0.486290 -0.540784
O20   O     O_R   0.822740 0.690030 0.486290 -0.540785
O21   O     O_R   0.177260 0.309970 0.513710 -0.540785
O22   O     O_R   0.677260 0.190030 0.513710 -0.540784
O23   O     O_R   0.744960 0.869590 0.521520 -0.437555
O24   O     O_R   0.322740 0.809970 0.486290 -0.540784
O25   O     O_R   0.322740 0.190030 0.486290 -0.540785
O26   O     O_R   0.677260 0.809970 0.513710 -0.540785
O27   O     O_R   0.051640 0.926880 0.885090 -0.515217
O28   O     O_R   0.948360 0.073120 0.114910 -0.515217
O29   O     O_R   0.948360 0.926880 0.114910 -0.515216
O30   O     O_R   0.051640 0.073120 0.885090 -0.515216
O31   O     O_R   0.551640 0.426880 0.885090 -0.515217
O32   O     O_R   0.448360 0.573120 0.114910 -0.515217
O33   O     O_R   0.448360 0.426880 0.114910 -0.515216
O34   O     O_R   0.255040 0.130410 0.478480 -0.437555
O35   O     O_R   0.551640 0.573120 0.885090 -0.515216
O36   O     O_R   0.940620 0.926560 0.986760 -0.458979
O37   O     O_R   0.059380 0.073440 0.013240 -0.458979
O38   O     O_R   0.059380 0.926560 0.013240 -0.458979
O39   O     O_R   0.940620 0.073440 0.986760 -0.458979
O40   O     O_R   0.440620 0.426560 0.986760 -0.458979
O41   O     O_R   0.559380 0.573440 0.013240 -0.458979
O42   O     O_R   0.559380 0.426560 0.013240 -0.458980
O43   O     O_R   0.440620 0.573440 0.986760 -0.458979
O44   O     O_R   0.755040 0.369590 0.478480 -0.437556
O45   O     O_R   0.244960 0.630410 0.521520 -0.437555
O46   O     O_R   0.244960 0.369590 0.521520 -0.437555
O47   O     O_R   0.755040 0.630410 0.478480 -0.437555
O48   O     O_R   0.182050 0.796550 0.624440 -0.499553

loop_
_geom_bond_atom_site_label_1
_geom_bond_atom_site_label_2
_ccdc_geom_bond_type
C2    C19   A    
C2    H2    S    
C88   C97   A    
C55   C57   A    
Cu12  O35   S    
C62   C132  S    
Cu6   O11   S    
C83   C118  S    
Cu4   O38   S    
C115  C124  A    
C62   C70   A    
Br1   C85   S    
C65   C74   A    
Cu3   O27   S    
Cu3   Cu4   S    
C124  H40   S    
C8    C43   A    
C23   C44   A    
C83   O7    A    
C104  C113  A    
C63   C71   A    
C146  O36   A    
C143  O1    A    
C139  O19   A    
C26   C48   A    
C75   C84   A    
C24   H4    S    
C146  O29   A    
C59   C80   A    
C9    C15   A    
C71   H22   S    
Br7   C91   S    
C31   C40   A    
C3    O28   A    
C54   H46   S    
C140  O47   A    
C91   C135  A    
C53   H45   S    
Cu6   O3    S    
C28   C50   A    
C21   C43   A    
C147  O37   A    
C67   C76   A    
Cu10  O46   S    
C7    O32   A    
C61   C115  S    
Cu1   O48   S    
C7    C99   S    
C5    O35   A    
Cu3   O39   S    
C50   H23   S    
C124  C133  A    
C142  O12   A    
C23   C32   A    
C24   C51   A    
C1    O9    A    
C55   H47   S    
C59   C130  S    
C11   C18   A    
C32   C40   A    
C65   C79   A    
Cu2   O32   S    
C123  C132  A    
C6    O42   A    
C10   C45   A    
C143  O24   A    
C105  C111  S    
C21   C52   A    
Cu8   O22   S    
C121  C130  A    
C116  O4    A    
C113  C127  S    
C26   C34   A    
Cu7   O21   S    
Cu1   O1    S    
C31   C140  S    
Cu5   O2    S    
Cu5   O12   S    
C5    C101  S    
C106  H30   S    
Cu10  O25   S    
Cu11  O47   S    
C1    O6    A    
Cu7   Cu10  S    
C11   C19   A    
C109  C118  A    
C66   C75   A    
C30   C141  S    
C54   C56   A    
C64   C73   A    
C29   C38   A    
C25   C55   A    
C63   C133  S    
C128  H43   S    
C73   C81   A    
C111  C120  A    
C17   C24   A    
C126  C135  A    
C92   C101  A    
C8    C16   A    
Cu7   O34   S    
Br4   C88   S    
Cu4   O37   S    
C90   C134  A    
Cu6   O23   S    
C23   C54   A    
C62   C82   A    
C10   C17   A    
C104  H29   S    
Cu2   O33   S    
C122  C131  A    
C9    C44   A    
C71   C80   A    
C108  H32   S    
C147  O30   A    
C101  C110  A    
C46   C53   A    
C58   C81   A    
C148  O38   A    
Cu1   Cu9   S    
C105  O15   A    
C60   C69   A    
C125  H41   S    
Cu5   O19   S    
C107  C115  A    
Cu11  O26   S    
C27   C47   A    
C112  C121  A    
C52   H44   S    
C97   C106  A    
Br2   C86   S    
C67   H18   S    
C10   C20   A    
C119  C128  A    
C74   H25   S    
C92   C136  A    
C85   C93   A    
Cu8   O5    S    
C96   C104  A    
C56   H7    S    
C57   H8    S    
C3    C95   S    
Cu1   O18   S    
Cu11  O17   S    
C93   C148  S    
C42   Cl4   S    
C93   C102  A    
Cu10  O16   S    
C84   H11   S    
C95   C103  A    
C1    C117  S    
C90   C99   A    
C46   H6    S    
C107  H31   S    
C103  C112  A    
C37   C143  S    
C70   H21   S    
C3    O39   A    
C21   C30   A    
C48   H1    S    
C64   C134  S    
C120  C129  A    
C88   C132  A    
C91   C100  A    
C4    O40   A    
C103  H28   S    
C5    O41   A    
C12   C57   A    
C80   H10   S    
Cu7   O4    S    
C38   C41   A    
C12   C15   A    
C6    C98   S    
C8    C12   A    
C117  C125  A    
C137  O18   A    
C2    C49   A    
C30   C39   A    
C33   C39   A    
Cu2   Cu12  S    
C28   C37   A    
C113  C122  A    
C29   C51   A    
C72   O8    A    
Cu2   O41   S    
C27   C36   A    
Cu8   O44   S    
Cu9   O45   S    
C89   C133  A    
C144  O25   A    
C64   C76   A    
Cu6   Cu11  S    
C138  H48   S    
Cu1   O9    S    
C89   C98   A    
C35   C52   A    
C51   H34   S    
C141  O46   A    
C38   C142  S    
C13   H3    S    
C69   C78   A    
C94   O14   A    
Cu5   Cu8   S    
C75   H26   S    
C108  C117  A    
C145  O23   A    
C123  H39   S    
Cu5   O10   S    
C86   C130  A    
C14   C16   A    
C122  H38   S    
Cu12  O40   S    
C110  C119  A    
Cu9   O24   S    
C114  C116  S    
C70   C79   A    
Br6   C90   S    
C114  C123  A    
C36   C144  S    
C94   C112  S    
C87   C96   A    
C94   O2    A    
C15   C46   A    
C4    C100  S    
C39   Cl1   S    
C36   C42   A    
C77   H14   S    
Cu7   O13   S    
C66   C136  S    
C35   H5    S    
C78   H17   S    
C20   C138  A    
C4    O33   A    
Cu9   O15   S    
C32   C139  S    
C97   C147  S    
C102  H27   S    
C140  O20   A    
C69   H20   S    
C87   C131  A    
C100  C109  A    
Cu3   O30   S    
Br5   C89   S    
C60   C131  S    
C148  O27   A    
C74   C82   A    
C102  C111  A    
C61   O5    A    
C109  H33   S    
Br3   C87   S    
C79   H16   S    
C6    O31   A    
C72   C119  S    
C11   C47   A    
C82   H13   S    
C25   C43   A    
C127  O3    A    
C86   C95   A    
C83   O13   A    
Cu12  O31   S    
C18   C20   A    
C9    C14   A    
C126  H42   S    
C98   C107  A    
C27   C49   A    
C25   C33   A    
Cu12  O43   S    
Cu4   O29   S    
Br8   C92   S    
C105  O48   A    
C29   C45   A    
C13   C50   A    
C128  C136  A    
C68   H19   S    
C61   O10   A    
C73   H24   S    
C144  O34   A    
Cu8   O14   S    
C58   C129  S    
C40   Cl2   S    
C37   C42   A    
C66   C78   A    
C63   C77   A    
C58   C67   A    
C13   C18   A    
C106  C114  A    
C60   C84   A    
Cu3   O36   S    
C22   C31   A    
C110  H35   S    
Cu6   O20   S    
C72   O11   A    
C48   C138  A    
C34   C145  S    
Cu4   O28   S    
C125  C134  A    
C65   C135  S    
C99   C108  A    
C85   C129  A    
C34   C41   A    
C7    O43   A    
C116  O16   A    
C145  O26   A    
C127  O17   A    
C142  O22   A    
C33   C137  S    
Cu11  O8    S    
C118  C126  A    
C26   C45   A    
C141  O21   A    
C22   C53   A    
C28   C47   A    
C16   C35   A    
Cu2   O42   S    
Cu9   O6    S    
C41   Cl3   S    
C76   H15   S    
C137  O45   A    
C59   C68   A    
C120  H36   S    
C14   C56   A    
C96   C146  S    
C139  O44   A    
Cu10  O7    S    
C121  H37   S    
C68   C77   A    
C49   H12   S    
C81   H9    S    
C22   C44   A    
C17   C19   A    
