data_mof_unit_19095.cif
_audit_creation_date              2012-12-10T19:45:46-0500
_audit_creation_method            fapswitch 2.2
_symmetry_space_group_name_H-M    P1
_symmetry_Int_Tables_number       1
_space_group_crystal_system       triclinic
_cell_length_a                    10.842122
_cell_length_b                    14.719902
_cell_length_c                    14.549213
_cell_angle_alpha                 65.643903
_cell_angle_beta                  103.667226
_cell_angle_gamma                 102.83937
_cell_volume                      2034.90673483

loop_
_atom_site_label
_atom_site_type_symbol
_atom_type_description
_atom_site_fract_x
_atom_site_fract_y
_atom_site_fract_z
_atom_type_partial_charge
C1    C     C_R   0.477554 0.119184 0.311287 0.797579
C2    C     C_R   0.613704 0.779755 0.979076 -0.236006
C3    C     C_R   0.402836 0.151175 0.121808 -0.022379
C4    C     C_R   0.597141 0.848825 0.878194 -0.022383
C5    C     C_R   0.502716 0.289010 0.177008 -0.224824
C6    C     C_R   0.497271 0.710990 0.822991 -0.224827
C7    C     C_R   0.480146 0.360152 0.076517 0.094193
C8    C     C_R   0.519819 0.639848 0.923484 0.094187
C9    C     C_R   0.423035 0.323616 0.997970 0.145666
C10   C     C_R   0.576920 0.676385 0.002033 0.145668
C11   C     C_R   0.511877 0.466166 0.052033 0.071579
C12   C     C_R   0.522446 0.880815 0.688713 0.797582
C13   C     C_R   0.488078 0.533834 0.947969 0.071580
C14   C     C_R   0.435044 0.493110 0.871899 -0.196744
C15   C     C_R   0.564896 0.506891 0.128104 -0.196746
C16   C     C_R   0.262853 0.999048 0.502651 0.795423
C17   C     C_R   0.737147 0.000952 0.497348 0.795420
C18   C     C_R   0.402575 0.390320 0.896816 -0.223396
C19   C     C_R   0.597364 0.609680 0.103188 -0.223397
C20   C     C_R   0.735358 0.297043 0.649124 -0.297231
C21   C     C_R   0.264641 0.702957 0.350876 -0.297233
C22   C     C_R   0.696756 0.212832 0.623654 0.107722
C23   C     C_R   0.870546 0.001204 0.495342 -0.079369
C24   C     C_R   0.303244 0.787169 0.376345 0.107722
C25   C     C_R   0.509697 0.279678 0.517761 0.039771
C26   C     C_R   0.490301 0.720321 0.482240 0.039772
C27   C     C_R   0.549690 0.372383 0.532353 -0.032544
C28   C     C_R   0.450306 0.627616 0.467648 -0.032543
C29   C     C_R   0.661022 0.375887 0.605328 0.134026
C30   C     C_R   0.338974 0.624112 0.394673 0.134023
C31   C     C_R   0.481824 0.458924 0.482031 -0.003292
C32   C     C_R   0.518170 0.541073 0.517971 -0.003290
C33   C     C_R   0.619291 0.531585 0.603424 -0.037672
C34   C     C_R   0.129454 0.998798 0.504656 -0.079368
C35   C     C_R   0.380702 0.468412 0.396579 -0.037671
C36   C     C_R   0.693810 0.454467 0.639614 -0.229935
C37   C     C_R   0.306184 0.545531 0.360388 -0.229934
C38   C     C_R   0.350997 0.081357 0.773246 -0.096751
C39   C     C_R   0.648991 0.918634 0.226763 -0.096750
C40   C     C_R   0.263765 0.036254 0.711416 -0.103284
C41   C     C_R   0.736226 0.963741 0.288588 -0.103274
C42   C     C_R   0.186694 0.094840 0.623893 0.124887
C43   C     C_R   0.813305 0.905159 0.376107 0.124884
C44   C     C_R   0.196771 0.198672 0.600192 -0.162067
C45   C     C_R   0.906469 0.952518 0.441825 0.002297
C46   C     C_R   0.803233 0.801328 0.399808 -0.162068
C47   C     C_R   0.284366 0.243448 0.662160 -0.156594
C48   C     C_R   0.715636 0.756548 0.337846 -0.156593
C49   C     C_R   0.361897 0.184926 0.748303 -0.113783
C50   C     C_R   0.638095 0.815065 0.251707 -0.113790
C51   C     C_R   0.964204 0.048612 0.552002 -0.229460
C52   C     C_R   0.035796 0.951391 0.447995 -0.229461
C53   C     C_1   0.644136 0.590946 0.665595 0.181260
C54   C     C_1   0.355850 0.409047 0.334411 0.181246
C55   C     C_1   0.643090 0.953551 0.860528 0.243517
C56   C     C_R   0.093531 0.047484 0.558172 0.002297
C57   C     C_1   0.356892 0.046448 0.139475 0.243514
C58   C     C_R   0.461211 0.185780 0.201530 -0.112529
C59   C     C_R   0.538778 0.814219 0.798470 -0.112530
C60   C     C_R   0.386257 0.220245 0.020927 -0.236009
Cu1   Cu    Cu3+1 0.466270 0.918260 0.475690 0.957588
Cu2   Cu    Cu3+1 0.533730 0.081740 0.524310 0.957591
H1    H     H_    0.430255 0.219795 0.795782 0.131201
H2    H     H_    0.417407 0.262904 0.476841 0.155941
H3    H     H_    0.245021 0.847354 0.343917 0.137268
H4    H     H_    0.754980 0.152648 0.656082 0.137265
H5    H     H_    0.822265 0.300085 0.703560 0.144467
H6    H     H_    0.177733 0.699916 0.296440 0.144469
H7    H     H_    0.409889 0.035948 0.840678 0.137798
H8    H     H_    0.590091 0.964040 0.159335 0.137800
H9    H     H_    0.256381 0.955947 0.731464 0.105230
H10   H     H_    0.743606 0.044047 0.268539 0.105227
H11   H     H_    0.137879 0.244959 0.533213 0.134098
H12   H     H_    0.569734 0.780194 0.204233 0.131197
H13   H     H_    0.862132 0.755044 0.466785 0.134097
H14   H     H_    0.292771 0.323629 0.643013 0.138441
H15   H     H_    0.707235 0.676367 0.356994 0.138441
H16   H     H_    0.936641 0.084357 0.594616 0.153887
H17   H     H_    0.063359 0.915645 0.405380 0.153886
H18   H     H_    0.360751 0.362841 0.835991 0.138927
H19   H     H_    0.639177 0.637159 0.164014 0.138926
H20   H     H_    0.447479 0.688054 0.761304 0.162911
H21   H     H_    0.552529 0.311946 0.238692 0.162899
H22   H     H_    0.341903 0.193347 0.959949 0.137859
H23   H     H_    0.658050 0.806653 0.040055 0.137858
H24   H     H_    0.417085 0.537982 0.791472 0.148592
H25   H     H_    0.582838 0.462018 0.208533 0.148606
H26   H     H_    0.774158 0.451828 0.701219 0.150197
H27   H     H_    0.225835 0.548170 0.298784 0.150198
H28   H     H_    0.582591 0.737093 0.523161 0.155938
N1    N     N_R   0.584450 0.204570 0.560790 -0.186214
N2    N     N_R   0.415550 0.795430 0.439210 -0.186214
N3    N     N_1   0.665510 0.637673 0.716369 -0.290221
N4    N     N_1   0.334472 0.362318 0.283639 -0.290220
N5    N     N_1   0.680247 0.037247 0.847482 -0.312972
N6    N     N_1   0.319740 0.962751 0.152521 -0.312979
O1    O     O_R   0.455540 0.022090 0.338120 -0.572978
O2    O     O_R   0.544460 0.977910 0.661880 -0.572976
O3    O     O_R   0.512510 0.160150 0.379180 -0.577646
O4    O     O_R   0.487490 0.839850 0.620820 -0.577648
O5    O     O_R   0.291160 0.930970 0.479480 -0.599038
O6    O     O_R   0.708840 0.069030 0.520520 -0.599037
O7    O     O_R   0.348130 0.069020 0.520540 -0.575376
O8    O     O_R   0.651870 0.930980 0.479460 -0.575376

loop_
_geom_bond_atom_site_label_1
_geom_bond_atom_site_label_2
_ccdc_geom_bond_type
C34   C56   A    
C8    C13   A    
C6    H20   S    
C40   H9    S    
C27   C29   A    
C11   C13   A    
C14   C18   A    
C20   H5    S    
C2    C4    A    
C1    O3    A    
C39   C41   A    
C38   C49   A    
C36   H26   S    
C15   C19   A    
C29   C36   A    
C17   C23   S    
C5    C58   A    
C23   C45   A    
C35   C37   A    
C17   O8    A    
C47   H14   S    
C50   H12   S    
C5    H21   S    
C26   N2    A    
C33   C36   A    
C2    H23   S    
C51   C56   A    
C22   H4    S    
C16   C34   S    
Cu2   O2    S    
C12   C59   S    
C11   C15   A    
C57   N6    T    
C22   N1    A    
C52   H17   S    
C12   O2    A    
Cu1   N2    S    
C20   C29   A    
C42   C56   S    
C3    C60   A    
C40   C42   A    
C38   H7    S    
C13   C14   A    
C35   C54   S    
C41   C43   A    
Cu1   Cu2   S    
C42   C44   A    
C24   N2    A    
C47   C49   A    
C46   H13   S    
C7    C11   A    
C49   H1    S    
C33   C53   S    
C46   C48   A    
C25   N1    A    
C54   N4    T    
C27   C31   A    
C28   C32   A    
Cu1   O8    S    
C14   H24   S    
C55   N5    T    
C1    O1    A    
C5    C7    A    
C6    C8    A    
C45   C52   A    
C53   N3    T    
C30   C37   A    
C25   H2    S    
C48   H15   S    
Cu1   O5    S    
C17   O6    A    
C16   O5    A    
C16   O7    A    
C23   C51   A    
C31   C32   A    
C10   C19   A    
Cu2   N1    S    
C43   C45   S    
C24   H3    S    
C41   H10   S    
C3    C57   S    
C8    C10   A    
C20   C22   A    
C4    C55   S    
C31   C35   A    
Cu1   O4    S    
C26   H28   S    
C2    C10   A    
C15   H25   S    
Cu2   O7    S    
C7    C9    A    
C34   C52   A    
C6    C59   A    
Cu1   O1    S    
C44   C47   A    
C25   C27   A    
C21   C30   A    
C26   C28   A    
C37   H27   S    
C9    C60   A    
C32   C33   A    
C28   C30   A    
C51   H16   S    
C21   H6    S    
C1    C58   S    
C38   C40   A    
C60   H22   S    
C4    C59   A    
C48   C50   A    
C39   H8    S    
C44   H11   S    
C43   C46   A    
C12   O4    A    
Cu2   O3    S    
C3    C58   A    
C9    C18   A    
C39   C50   A    
C18   H18   S    
C21   C24   A    
C19   H19   S    
Cu2   O6    S    
