data_mof_unit_5589.cif
_audit_creation_date              2013-03-05T16:47:53-0500
_audit_creation_method            fapswitch 2.2
_symmetry_space_group_name_H-M    P1
_symmetry_Int_Tables_number       1
_space_group_crystal_system       triclinic
_cell_length_a                    11.309908
_cell_length_b                    11.203692
_cell_length_c                    9.888787
_cell_angle_alpha                 90.95955
_cell_angle_beta                  92.94533
_cell_angle_gamma                 96.861554
_cell_volume                      1242.08622037

loop_
_atom_site_label
_atom_site_type_symbol
_atom_site_description
_atom_site_fract_x
_atom_site_fract_y
_atom_site_fract_z
_atom_type_partial_charge
O1    O     O_R   0.499990 0.319640 0.618810 -0.528735
O2    O     O_R   0.500000 0.319660 0.381240 -0.548255
C1    C     C_R   0.498643 0.262447 0.500032 0.831641
O3    O     O_R   0.319640 0.500000 0.618780 -0.513630
O4    O     O_R   0.319650 0.500020 0.381210 -0.554956
C2    C     C_R   0.262258 0.501320 0.498935 0.819201
Cu1   Cu    Cu3+1 0.499990 0.499990 0.640660 1.077149
Cu2   Cu    Cu3+1 0.500010 0.500010 0.359340 1.010984
O5    O     O_R   0.500000 0.680340 0.618760 -0.556639
O6    O     O_R   0.500010 0.680360 0.381190 -0.617685
O7    O     O_R   0.680350 0.499980 0.618790 -0.543197
O8    O     O_R   0.680360 0.500000 0.381220 -0.625118
C3    C     C_R   0.498962 0.736576 0.501647 0.811646
C4    C     C_R   0.737081 0.501802 0.504176 0.816218
C5    C     C_R   0.213258 0.697906 0.120966 0.112607
C6    C     C_R   0.163243 0.681514 0.244899 -0.155070
H1    H     H_    0.170955 0.753543 0.320713 0.168113
C7    C     C_R   0.106170 0.569766 0.272716 -0.013069
C8    C     C_R   0.096971 0.474308 0.183054 -0.164379
H2    H     H_    0.051172 0.387963 0.210625 0.198767
C9    C     C_R   0.140288 0.489641 0.057571 0.253499
C10   C     C_R   0.201415 0.602370 0.024098 0.251171
C11   C     C_R   0.932597 0.545602 0.400248 -0.210649
H3    H     H_    0.883562 0.571953 0.310858 0.147403
C12   C     C_R   0.871600 0.510217 0.513802 -0.042607
C13   C     C_R   0.942939 0.486676 0.630887 0.081235
C14   C     C_R   0.067048 0.479879 0.622257 -0.063379
H4    H     H_    0.117252 0.453742 0.709166 0.239432
C15   C     C_R   0.127248 0.507383 0.504050 -0.090412
C16   C     C_R   0.056630 0.547065 0.397946 0.049613
C17   C     C_R   0.915955 0.569758 0.861135 0.319762
C18   C     C_R   0.881722 0.553073 0.993880 -0.212288
H5    H     H_    0.901384 0.625513 0.068076 0.176984
C19   C     C_R   0.829900 0.441217 0.033997 -0.246453
H6    H     H_    0.807140 0.427670 0.137943 0.183954
C20   C     C_R   0.817973 0.343822 0.943288 -0.031963
H7    H     H_    0.793940 0.254866 0.981508 0.219406
C21   C     C_R   0.846741 0.359210 0.807640 0.335187
C22   C     C_R   0.894545 0.473372 0.765578 -0.015851
H8    H     H_    0.536025 0.107781 0.294042 0.218314
C23   C     C_R   0.449055 0.115960 0.745897 0.267746
C24   C     C_R   0.381229 0.046083 0.834485 0.311162
C25   C     C_R   0.434896 0.946462 0.868471 0.174276
C26   C     C_R   0.470164 0.881465 0.759610 -0.126621
H9    H     H_    0.506538 0.802902 0.789306 0.225456
C27   C     C_R   0.478440 0.933953 0.628235 0.058964
C28   C     C_R   0.472997 0.060694 0.623623 0.015264
C29   C     C_R   0.496958 0.127121 0.503999 -0.072486
C30   C     C_R   0.518497 0.061666 0.387539 -0.114002
H10   H     H_    0.536060 0.890127 0.297196 0.207223
C31   C     C_R   0.518695 0.936293 0.389392 -0.178108
C32   C     C_R   0.499572 0.870269 0.507830 -0.058094
C33   C     C_R   0.651775 0.668628 0.162522 -0.120948
H11   H     H_    0.660654 0.666754 0.269222 0.217097
C34   C     C_R   0.723511 0.760793 0.109792 -0.259256
H12   H     H_    0.778496 0.825310 0.176133 0.196830
C35   C     C_R   0.728326 0.769271 0.973077 -0.076359
H13   H     H_    0.788420 0.843947 0.938226 0.243037
C36   C     C_R   0.663975 0.683623 0.883821 0.244217
C37   C     C_R   0.578251 0.587062 0.933522 0.078963
C38   C     C_R   0.575251 0.584689 0.082137 0.115565
N1    N     N_R   0.501190 0.501210 0.147910 -0.252122
C39   C     C_R   0.430433 0.417071 0.066361 0.305572
C40   C     C_R   0.428435 0.420332 0.920323 0.405159
N2    N     N_R   0.501230 0.501290 0.852040 -0.217599
Br1   Br    Br    0.268016 0.633232 0.853753 -0.505922
Br2   Br    Br    0.846256 0.219646 0.690835 -0.379057
Br3   Br    Br    0.582606 0.202942 0.841602 -0.463697
Br4   Br    Br    0.214393 0.012538 0.782457 -0.323989
Br5   Br    Br    0.540918 0.962312 0.026888 -0.565473
Br6   Br    Br    0.335413 0.287570 0.148641 -0.378253
C41   C     C_3   0.284254 0.814580 0.097207 -0.682030
H14   H     H_    0.374653 0.792248 0.080527 0.259763
H15   H     H_    0.244897 0.856846 0.008174 0.296291
H16   H     H_    0.289095 0.878368 0.185176 0.235269
Br7   Br    Br    0.724148 0.731190 0.711338 -0.467907
Br8   Br    Br    0.318506 0.316733 0.810881 -0.359375
Br9   Br    Br    0.093924 0.349933 0.949469 -0.439139
Br10  Br    Br    0.999328 0.723449 0.818316 -0.405371

loop_
_geom_bond_atom_site_label_1
_geom_bond_atom_site_label_2
_geom_bond_distance
_ccdc_geom_bond_type
C34   H12   1.083694 S    
C14   C15   1.403077 A    
C23   C24   1.384673 A    
C8    H2    1.087233 S    
Cu1   Cu2   2.781929 S    
C33   H11   1.055553 S    
Cu1   O7    2.062322 S    
C5    C41   1.479030 S    
C13   C14   1.421616 A    
C15   C16   1.396714 A    
C20   H7    1.080952 S    
C8    C9    1.363376 A    
C7    C8    1.368564 A    
C41   H16   1.111497 S    
C21   C22   1.406042 A    
O7    C4    1.330055 A    
C13   C22   1.468984 S    
C35   C36   1.402949 A    
C5    C6    1.381895 A    
C27   C32   1.423164 A    
C1    C29   1.515182 S    
C19   H6    1.081179 S    
C40   Br8   1.881248 S    
O5    C3    1.327824 A    
C10   Br1   1.900575 S    
C33   C38   1.405391 A    
C5    C10   1.414003 A    
C28   C29   1.428597 A    
C6    H1    1.084945 S    
C30   C31   1.405330 A    
C9    Br9   1.886255 S    
C11   H3    1.083317 S    
C7    C16   1.399993 S    
C36   C37   1.472441 A    
C9    C10   1.418281 A    
O3    Cu1   2.040113 S    
C26   C27   1.437804 A    
C23   Br3   1.896662 S    
C33   C34   1.362981 A    
C31   C32   1.408015 A    
C11   C16   1.402301 A    
O3    C2    1.322779 A    
C12   C13   1.423437 A    
C24   Br4   1.921102 S    
C37   C38   1.472370 A    
O1    C1    1.327049 A    
C18   C19   1.391564 A    
C25   C26   1.391233 A    
N1    C39   1.381057 A    
Cu1   N2    2.089414 S    
C3    C32   1.497262 S    
C17   C18   1.396833 A    
Cu2   O8    2.040113 S    
H10   C31   1.078983 S    
C23   C28   1.402625 A    
C41   H15   1.105252 S    
C29   C30   1.402379 A    
C39   Br6   1.918027 S    
C37   N2    1.425986 A    
C25   Br5   1.915778 S    
C34   C35   1.360286 A    
C24   C25   1.371330 A    
C26   H9    1.054977 S    
Cu1   O5    2.035748 S    
C27   C28   1.430018 A    
O1    Cu1   2.028504 S    
Cu2   O6    2.028504 S    
O2    Cu2   2.035749 S    
O8    C4    1.343970 A    
C41   H14   1.100989 S    
O6    C3    1.339335 A    
O4    Cu2   2.062322 S    
C17   Br10  1.926362 S    
C40   N2    1.362234 A    
C20   C21   1.405031 A    
O2    C1    1.347503 A    
C18   H5    1.080110 S    
C35   H13   1.085607 S    
O4    C2    1.362403 A    
C17   C22   1.413337 A    
C19   C20   1.390360 A    
C11   C12   1.386789 A    
C4    C12   1.511010 S    
C38   N1    1.374251 A    
C39   C40   1.444291 A    
C2    C15   1.539927 S    
C21   Br2   1.927676 S    
C6    C7    1.377125 A    
C14   H4    1.069941 S    
C36   Br7   1.928588 S    
H8    C30   1.082333 S    
Cu2   N1    2.091772 S    
