data_mof_unit_17823.cif
_audit_creation_date              2012-12-10T17:36:47-0500
_audit_creation_method            fapswitch 2.2
_symmetry_space_group_name_H-M    P1
_symmetry_Int_Tables_number       1
_space_group_crystal_system       triclinic
_cell_length_a                    10.620855
_cell_length_b                    12.377156
_cell_length_c                    13.187584
_cell_angle_alpha                 117.126353
_cell_angle_beta                  76.882374
_cell_angle_gamma                 101.34086
_cell_volume                      1493.93238449

loop_
_atom_site_label
_atom_site_type_symbol
_atom_type_description
_atom_site_fract_x
_atom_site_fract_y
_atom_site_fract_z
_atom_type_partial_charge
C1    C     C_R   0.509164 0.855036 0.286580 0.841405
C2    C     C_3   0.011390 0.919276 0.538968 -0.102307
C3    C     C_3   0.952961 0.885890 0.429424 -0.145273
C4    C     C_3   0.877220 0.998730 0.497884 -0.139607
C5    C     C_R   0.331936 0.275957 0.025325 -0.170158
C6    C     C_R   0.458570 0.227659 0.836134 -0.050836
C7    C     C_R   0.583753 0.815795 0.082629 -0.265624
C8    C     C_R   0.606784 0.737335 0.965939 0.547782
C9    C     C_R   0.569573 0.612040 0.931060 -0.229739
C10   C     C_R   0.495007 0.566498 0.009909 -0.031310
C11   C     C_R   0.450544 0.651375 0.123582 -0.007393
C12   C     C_R   0.740390 0.998812 0.498249 0.791516
C13   C     C_R   0.459139 0.439709 0.978299 0.108826
C14   C     C_R   0.370460 0.400660 0.056297 0.091596
C15   C     C_R   0.313655 0.486425 0.160781 -0.274108
C16   C     C_R   0.347820 0.610376 0.192086 0.395461
C17   C     C_R   0.506881 0.350192 0.870516 -0.175840
C18   C     C_R   0.374501 0.189735 0.914970 -0.180306
C19   C     C_R   0.509490 0.773881 0.162903 -0.155079
C20   C     C_R   0.702804 0.340482 0.320432 -0.297437
C21   C     C_R   0.310140 0.750886 0.629992 -0.070161
C22   C     C_R   0.248422 0.640418 0.629270 0.251285
C23   C     C_R   0.482556 0.145017 0.713623 0.807904
C24   C     C_R   0.310849 0.534219 0.563820 0.498957
C25   C     C_R   0.444069 0.542817 0.515014 -0.184580
C26   C     C_R   0.493170 0.651950 0.501623 0.196202
C27   C     C_R   0.522681 0.442149 0.464340 -0.073124
C28   C     C_R   0.631781 0.441980 0.380002 0.125302
C29   C     C_R   0.669828 0.543764 0.356665 -0.245568
C30   C     C_R   0.604704 0.647797 0.418756 -0.124820
C31   C     C_R   0.502923 0.345111 0.498229 0.545107
C32   C     C_R   0.669778 0.241664 0.348483 0.016530
C33   C     C_R   0.259582 0.001141 0.501717 0.905714
C34   C     C_3   0.989569 0.076903 0.458805 0.477634
C35   C     C_3   0.067482 0.965505 0.390410 -0.288163
C36   C     C_3   0.122791 0.999740 0.500537 -0.096769
C37   C     C_3   0.045648 0.110226 0.567443 0.457272
C38   C     C_3   0.933444 0.031770 0.607676 -0.355305
Cu1   Cu    Cu3+1 0.529830 0.098270 0.475420 1.005951
Cu2   Cu    Cu3+1 0.470170 0.901730 0.524580 0.958505
H1    H     H_    0.125858 0.936715 0.302819 0.174306
H2    H     H_    0.579203 0.373028 0.809522 0.152099
H3    H     H_    0.626269 0.909927 0.110507 0.170577
H4    H     H_    0.598260 0.553381 0.841616 0.158199
H5    H     H_    0.721279 0.161672 0.299946 0.139468
H6    H     H_    0.753214 0.544430 0.291803 0.151763
H7    H     H_    0.783445 0.337519 0.252339 0.150733
H8    H     H_    0.258910 0.831465 0.675124 0.178514
H9    H     H_    0.641507 0.720571 0.394507 0.188353
H10   H     H_    0.876200 0.057886 0.695520 0.162785
H11   H     H_    0.023522 0.853651 0.570974 0.197202
H12   H     H_    0.911181 0.793419 0.373169 0.164509
H13   H     H_    0.336696 0.094698 0.889647 0.154197
H14   H     H_    0.236495 0.457083 0.215431 0.163185
H15   H     H_    0.263800 0.245727 0.084465 0.126720
N1    N     N_R   0.575030 0.246270 0.438190 -0.218688
N2    N     N_R   0.425760 0.754330 0.561190 -0.222999
O1    O     O_R   0.537510 0.972500 0.318130 -0.607053
O2    O     O_R   0.487140 0.806530 0.359650 -0.561354
O3    O     O_R   0.708330 0.082950 0.479220 -0.556404
O4    O     O_R   0.657960 0.916980 0.520740 -0.604134
O5    O     O_R   0.512860 0.193470 0.640350 -0.525666
O6    O     O_R   0.462490 0.027500 0.681870 -0.601854
O7    O     O_R   0.342040 0.083020 0.479260 -0.537570
O8    O     O_R   0.291670 0.917050 0.520780 -0.556826
O9    O     O_3   0.680168 0.783760 0.890349 -0.569026
C39   C     C_3   0.615335 0.750946 0.796211 -0.253801
H16   H     H_    0.509545 0.762068 0.823758 0.150576
H17   H     H_    0.630191 0.656207 0.730619 0.177482
H18   H     H_    0.658197 0.812202 0.753775 0.194890
Cl1   Cl    Cl    0.235696 0.706272 0.299532 -0.661648
Cl2   Cl    Cl    0.403715 0.363700 0.630816 -0.545743
O10   O     O_3   0.973553 0.165560 0.424685 -0.570384
C40   C     C_3   0.973730 0.111825 0.304758 -0.343662
H19   H     H_    0.897801 0.032570 0.278097 0.168737
H20   H     H_    0.071182 0.084288 0.256457 0.151606
H21   H     H_    0.952788 0.181018 0.281174 0.177877
O11   O     O_3   0.236609 0.422498 0.537863 -0.493902
C41   C     C_3   0.213497 0.371717 0.422777 -0.184853
H22   H     H_    0.122723 0.401868 0.420581 0.194490
H23   H     H_    0.201154 0.271095 0.389473 0.210938
H24   H     H_    0.294526 0.393431 0.362292 0.098359
Cl3   Cl    Cl    0.087207 0.633579 0.699354 -0.602742
O12   O     O_3   0.105029 0.225954 0.636040 -0.527026
C42   C     C_3   0.009251 0.306345 0.700703 -0.091107
H25   H     H_    0.944095 0.277782 0.765074 0.092506
H26   H     H_    0.951705 0.314689 0.644391 0.192387
H27   H     H_    0.058357 0.398334 0.749034 0.234543

loop_
_geom_bond_atom_site_label_1
_geom_bond_atom_site_label_2
_ccdc_geom_bond_type
C8    O9    S    
C34   C37   S    
O10   C40   S    
C35   C36   S    
C33   O8    A    
C7    C8    A    
C42   H25   S    
Cu1   O7    S    
C11   C19   A    
C29   C30   A    
Cu2   O6    S    
C40   H20   S    
C28   C29   A    
C1    O2    A    
C6    C23   S    
C15   C16   A    
C33   C36   S    
C34   C35   S    
C32   H5    S    
C6    C17   A    
C17   H2    S    
C18   H13   S    
C23   O5    A    
C8    C9    A    
C40   H21   S    
C37   O12   S    
C7    H3    S    
C31   N1    A    
C4    C12   S    
C9    C10   A    
C21   H8    S    
C23   O6    A    
O9    C39   S    
Cu2   O2    S    
C13   C14   A    
C16   Cl1   S    
C42   H26   S    
C6    C18   A    
C4    C34   S    
C1    C19   S    
C40   H19   S    
C27   C31   A    
C39   H16   S    
C15   H14   S    
O12   C42   S    
C2    H11   S    
Cu1   Cu2   S    
C41   H23   S    
O11   C41   S    
C5    C18   A    
C20   C28   A    
C25   C26   A    
Cu1   O1    S    
Cu2   O4    S    
C39   H17   S    
C21   N2    A    
C37   C38   S    
C11   C16   A    
C2    C38   S    
Cu1   N1    S    
C3    C35   S    
C24   C25   A    
C5    C14   A    
C24   O11   S    
C31   Cl2   S    
C30   H9    S    
C4    C38   S    
C26   C30   A    
C7    C19   A    
Cu2   O8    S    
C22   C24   A    
C3    C4    S    
C20   C32   A    
C42   H27   S    
C2    C36   S    
Cu1   O5    S    
C36   C37   S    
C9    H4    S    
Cu2   N2    S    
C5    H15   S    
C10   C13   A    
C41   H24   S    
C3    H12   S    
C38   H10   S    
C25   C27   A    
C13   C17   A    
C29   H6    S    
C39   H18   S    
C22   Cl3   S    
C2    C3    S    
C1    O1    A    
C12   O4    A    
C33   O7    A    
Cu1   O3    S    
C35   H1    S    
C26   N2    A    
C20   H7    S    
C10   C11   A    
C34   O10   S    
C41   H22   S    
C12   O3    A    
C27   C28   A    
C14   C15   A    
C21   C22   A    
C32   N1    A    
