data_mof_unit_58551.cif
_audit_creation_date              2013-03-05T16:18:52-0500
_audit_creation_method            fapswitch 2.2
_symmetry_space_group_name_H-M    P1
_symmetry_Int_Tables_number       1
_space_group_crystal_system       triclinic
_cell_length_a                    8.33734
_cell_length_b                    18.887699
_cell_length_c                    22.935515
_cell_angle_alpha                 99.786707
_cell_angle_beta                  90.679402
_cell_angle_gamma                 91.167606
_cell_volume                      3557.99874488

loop_
_atom_site_label
_atom_site_type_symbol
_atom_site_description
_atom_site_fract_x
_atom_site_fract_y
_atom_site_fract_z
_atom_type_partial_charge
P1    P     P_3+3 0.935930 0.665430 0.555670 0.440270
O1    O     O_2   0.110690 0.676100 0.539200 -0.364509
O2    O     O_3   0.863220 0.586720 0.534720 -0.419549
O3    O     O_3   0.368310 0.629070 0.432760 -0.382650
O4    O     O_2   0.239724 0.754682 0.473827 -0.406708
O5    O     O_3   0.941984 0.684888 0.632915 -0.572292
O6    O     O_3   0.343959 0.745757 0.366983 -0.533533
H1    H     H_    0.478107 0.654915 0.335215 -0.013797
C1    C     C_3   0.341409 0.683923 0.264489 -0.399959
H2    H     H_    0.388378 0.632760 0.240572 0.162549
H3    H     H_    0.216274 0.671929 0.274310 0.269023
P2    P     P_3+3 0.382700 0.439650 0.365620 0.493282
P3    P     P_3+3 0.946280 0.587677 0.324539 0.472135
O7    O     O_2   0.210480 0.460990 0.358130 -0.277587
O8    O     O_3   0.959520 0.592090 0.401630 -0.396532
O9    O     O_2   0.101666 0.553261 0.297714 -0.367907
O10   O     O_3   0.367556 0.345971 0.347756 -0.588261
O11   O     O_3   0.953764 0.676365 0.310849 -0.577110
C2    C     C_3   0.941701 0.724066 0.364890 0.444619
H4    H     H_    0.035656 0.714192 0.396744 0.186912
H5    H     H_    0.822234 0.717784 0.384563 0.009610
C3    C     C_3   0.964930 0.801412 0.355053 -0.901720
H6    H     H_    0.094067 0.814952 0.352595 0.265805
H7    H     H_    0.904727 0.809849 0.313514 0.278502
C4    C     C_3   0.760993 0.316993 0.331492 0.220527
H8    H     H_    0.661729 0.344617 0.356726 0.072311
C5    C     C_3   0.708838 0.238602 0.304352 -0.588978
H9    H     H_    0.648337 0.214722 0.339129 0.149532
Ba1   Ba    Ba6+2 0.157800 0.534120 0.474430 1.541954
C6    C     C_3   0.003566 0.627875 0.656734 0.409062
H10   H     H_    0.112537 0.607399 0.633304 0.119313
H11   H     H_    0.911489 0.584098 0.653739 0.103414
C7    C     C_3   0.045768 0.656076 0.721501 -0.936495
H12   H     H_    0.125352 0.704554 0.725031 0.282280
H13   H     H_    0.109324 0.615517 0.741934 0.232163
H14   H     H_    0.934754 0.670606 0.746612 0.247411
C8    C     C_3   0.310999 0.316495 0.395645 0.427445
H15   H     H_    0.201683 0.343932 0.413322 0.130303
H16   H     H_    0.404448 0.321201 0.430972 0.121047
C9    C     C_3   0.270703 0.237227 0.373868 -0.996250
H17   H     H_    0.167989 0.231815 0.342130 0.289840
H18   H     H_    0.239956 0.209389 0.411017 0.227942
H19   H     H_    0.374733 0.209877 0.351369 0.235593
P4    P     P_3+3 0.874370 0.334570 0.444280 0.469512
O12   O     O_2   0.699610 0.323860 0.460780 -0.408127
O13   O     O_3   0.947090 0.413280 0.465240 -0.374815
O14   O     O_3   0.442000 0.370930 0.567190 -0.350408
O15   O     O_3   0.899730 0.316414 0.366978 -0.544375
P5    P     P_3+3 0.862224 0.415711 0.675428 0.485562
O16   O     O_3   0.359410 0.538600 0.570730 -0.392067
O17   O     O_3   0.850780 0.407910 0.598320 -0.388605
O18   O     O_2   0.698226 0.443502 0.699139 -0.369594
O19   O     O_3   0.868492 0.330087 0.695124 -0.505481
Ba2   Ba    Ba6+2 0.652390 0.465870 0.525520 1.548589
P6    P     P_3+3 0.384574 0.723762 0.437584 0.424648
C10   C     C_3   0.439381 0.706030 0.322765 0.413215
O20   O     O_3   0.450900 0.461390 0.429220 -0.435545
C11   C     C_3   0.507224 0.688337 0.636161 0.422971
H20   H     H_    0.598170 0.655094 0.610063 0.109042
H21   H     H_    0.426694 0.710857 0.605334 0.084218
C12   C     C_3   0.597917 0.749487 0.675522 -0.932455
H22   H     H_    0.688231 0.727303 0.703021 0.274507
H23   H     H_    0.660060 0.784115 0.647870 0.222146
H24   H     H_    0.514636 0.782450 0.705546 0.260594
P7    P     P_3+3 0.417279 0.557955 0.645606 0.451769
O21   O     O_2   0.599830 0.538970 0.641850 -0.368576
O22   O     O_3   0.413327 0.650652 0.671819 -0.563031
H25   H     H_    0.914913 0.838860 0.392452 0.239860
C13   C     C_3   0.891707 0.278786 0.644212 0.490945
H26   H     H_    0.793945 0.280069 0.611184 0.170580
H27   H     H_    0.009014 0.288588 0.624441 -0.008024
C14   C     C_3   0.889842 0.204280 0.661008 -0.935650
H28   H     H_    0.908451 0.163105 0.621171 0.220123
H29   H     H_    0.986629 0.200566 0.693947 0.251444
H30   H     H_    0.772320 0.193290 0.680357 0.301734
P8    P     P_3+3 0.427840 0.279562 0.565888 0.433041
C15   C     C_3   0.338191 0.280190 0.672225 0.413751
H31   H     H_    0.249751 0.235962 0.656961 0.066727
O23   O     O_2   0.572014 0.249202 0.529018 -0.429558
O24   O     O_3   0.477504 0.270209 0.638363 -0.472373
H32   H     H_    0.284012 0.332895 0.669695 0.061842
H33   H     H_    0.269254 0.278803 0.762298 0.247169
C16   C     C_3   0.380875 0.278217 0.736447 -0.796186
H34   H     H_    0.457779 0.325651 0.754923 0.257241
H35   H     H_    0.445875 0.228333 0.739973 0.267069
C17   C     C_R   0.995911 0.950408 0.528265 -0.009930
C18   C     C_R   0.083454 0.901554 0.555644 0.059220
C19   C     C_R   0.236278 0.921552 0.580006 0.163123
C20   C     C_R   0.301790 0.988604 0.575468 -0.260694
C21   C     C_R   0.213401 0.040460 0.551482 0.074212
C22   C     C_R   0.059688 0.020779 0.527256 0.010282
C23   C     C_R   0.277067 0.110866 0.551799 -0.135801
C24   C     C_R   0.183757 0.164231 0.529489 -0.093681
C25   C     C_R   0.030477 0.142404 0.502672 0.014896
C26   C     C_R   0.970620 0.070503 0.501444 -0.007130
C27   C     C_R   0.232287 0.238653 0.533761 0.115113
C28   C     C_R   0.128858 0.287376 0.512614 -0.505403
C29   C     C_R   0.985268 0.265812 0.481703 0.260964
C30   C     C_R   0.935374 0.191928 0.476853 -0.045627
C31   C     C_R   0.844003 0.929008 0.502729 -0.006431
C32   C     C_R   0.781982 0.858173 0.502829 -0.019428
C33   C     C_R   0.874407 0.808681 0.528647 -0.046975
C34   C     C_R   0.019320 0.832824 0.557227 -0.123830
H36   H     H_    0.422248 0.999515 0.592960 0.165936
H37   H     H_    0.165535 0.343346 0.517504 0.168391
H38   H     H_    0.084331 0.798079 0.581080 0.197652
C35   C     C_R   0.790645 0.166092 0.447733 -0.092484
C36   C     C_R   0.731063 0.096166 0.447506 0.108874
C37   C     C_R   0.819485 0.048232 0.475056 0.011192
C38   C     C_R   0.755963 0.977913 0.476008 0.010606
C39   C     C_R   0.580495 0.074316 0.421576 -0.183580
C40   C     C_R   0.516995 0.005625 0.423435 -0.168512
C41   C     C_R   0.603801 0.956728 0.450310 0.118363
C42   C     C_R   0.629530 0.836593 0.476285 -0.026667
C43   C     C_R   0.540845 0.887116 0.451404 -0.137478
C44   C     C_R   0.570706 0.765502 0.476925 0.227490
C45   C     C_R   0.658922 0.721119 0.507526 -0.567970
C46   C     C_R   0.817032 0.737126 0.526904 0.236421
H39   H     H_    0.718078 0.200735 0.426793 0.154903
H40   H     H_    0.510242 0.110943 0.400688 0.135224
H41   H     H_    0.399843 0.990682 0.403646 0.144657
H42   H     H_    0.422779 0.872649 0.432419 0.174825
H43   H     H_    0.602628 0.672297 0.515720 0.147382
H44   H     H_    0.323332 0.322016 0.044580 0.179230
H45   H     H_    0.236374 0.317946 0.942676 0.173732
C47   C     C_R   0.662316 0.507321 0.330579 -0.226317
C48   C     C_R   0.387379 0.554194 0.944918 -0.054075
C49   C     C_R   0.339826 0.550480 0.885123 0.521174
O25   O     O_2   0.354395 0.603771 0.861777 -0.582060
N1    N     N_R   0.275158 0.487329 0.853013 -0.167530
C50   C     C_R   0.254219 0.427275 0.879705 0.526486
O26   O     O_2   0.194312 0.372214 0.851549 -0.596478
C51   C     C_R   0.302750 0.428907 0.939191 -0.052450
C52   C     C_R   0.369515 0.492845 0.971921 -0.016297
C53   C     C_R   0.452397 0.617898 0.978362 -0.116451
C54   C     C_R   0.499060 0.620657 0.037410 -0.117634
C55   C     C_R   0.483225 0.559662 0.064834 -0.035521
C56   C     C_R   0.418492 0.495486 0.031930 -0.020256
C57   C     C_R   0.286903 0.367951 0.966641 -0.113276
C58   C     C_R   0.337070 0.370293 0.025325 -0.099287
C59   C     C_R   0.403163 0.433885 0.058689 -0.063738
C60   C     C_R   0.454932 0.437082 0.118048 0.544952
N2    N     N_R   0.515643 0.500844 0.150825 -0.160769
C61   C     C_R   0.530306 0.561666 0.124457 0.513863
C62   C     C_2   0.076857 0.469716 0.771702 -0.157452
C63   C     C_3   0.029991 0.476902 0.708747 0.142792
C64   C     C_1   0.309245 0.504185 0.692303 0.295968
C65   C     C_2   0.353604 0.501368 0.747561 -0.185763
C66   C     C_2   0.230734 0.484470 0.791031 0.119983
C67   C     C_R   0.716108 0.533861 0.233244 -0.261467
C68   C     C_R   0.762429 0.537601 0.292567 0.248912
C69   C     C_R   0.509110 0.479619 0.312367 0.187780
C70   C     C_R   0.461089 0.477584 0.253107 -0.246463
C71   C     C_R   0.564826 0.503725 0.212533 0.117850
O27   O     O_2   0.448034 0.382701 0.140255 -0.575141
O28   O     O_2   0.583496 0.617937 0.152991 -0.630757
C72   C     C_2   0.175550 0.471754 0.669658 -0.478799
H46   H     H_    0.548229 0.670866 0.061515 0.169200
H47   H     H_    0.796876 0.555137 0.203570 0.187208
H48   H     H_    0.467362 0.666017 0.958973 0.172921
H49   H     H_    0.476526 0.514158 0.762258 0.169657
H50   H     H_    0.984307 0.460045 0.802496 0.157249
H51   H     H_    0.343584 0.455641 0.238584 0.203998
H52   H     H_    0.167468 0.446920 0.623355 0.165503
C73   C     C_2   0.586175 0.235125 0.254549 0.452480
H53   H     H_    0.473079 0.261821 0.262728 0.116846
O29   O     O_2   0.611585 0.202819 0.204801 -0.534098
C74   C     C_2   0.852359 0.193674 0.284315 0.806241
H54   H     H_    0.929879 0.208492 0.250430 0.024581
O30   O     O_2   0.882598 0.140736 0.306116 -0.602958
C75   C     C_2   0.586128 0.748596 0.311680 0.382431
H55   H     H_    0.678443 0.722479 0.283445 0.058956
O31   O     O_2   0.598752 0.812772 0.331007 -0.568724
N3    N     N_2   0.346525 0.736278 0.224677 -0.086584
H56   H     H_    0.456859 0.745055 0.207009 0.221976
C76   C     C_3   0.251252 0.799560 0.239815 -0.713029
H57   H     H_    0.296220 0.832669 0.281699 0.266139
H58   H     H_    0.123573 0.783712 0.243737 0.254716
H59   H     H_    0.259373 0.832391 0.204084 0.227593
N4    N     N_2   0.325371 0.874648 0.609957 -0.114087
H60   H     H_    0.448343 0.877970 0.605931 0.169536
C77   C     C_3   0.274010 0.871434 0.669679 -0.894629
H61   H     H_    0.366463 0.897206 0.702173 0.255073
H62   H     H_    0.256533 0.814396 0.674626 0.256674
H63   H     H_    0.158533 0.898990 0.680123 0.259955
C78   C     C_2   0.443234 0.124569 0.574635 0.576920
H64   H     H_    0.539987 0.127835 0.544372 0.043736
O32   O     O_2   0.474016 0.126894 0.627138 -0.586729
N5    N     N_2   0.712224 0.512104 0.389881 -0.080414
H65   H     H_    0.723611 0.465602 0.406972 0.214129
C79   C     C_3   0.657337 0.575823 0.427010 -0.503207
H66   H     H_    0.751133 0.603066 0.453365 0.222628
H67   H     H_    0.573318 0.564828 0.460804 0.255020
H68   H     H_    0.624087 0.616992 0.400663 0.135058
C80   C     C_2   0.802383 0.358316 0.282534 0.454080
H69   H     H_    0.710370 0.367756 0.251116 0.012464
O33   O     O_2   0.938535 0.381352 0.277359 -0.513786

loop_
_geom_bond_atom_site_label_1
_geom_bond_atom_site_label_2
_geom_bond_distance
_ccdc_geom_bond_type
C75   H55   1.083406 S    
C31   C38   1.406069 A    
C73   H53   1.081642 S    
P2    Ba1   3.414859 S    
C12   H24   1.107741 S    
P2    C69   1.866555 S    
C2    H4    1.104920 S    
P8    O23   1.541475 D    
O6    P6    1.769386 S    
C18   C19   1.403594 A    
O19   C13   1.402938 S    
C49   O25   1.222450 D    
H1    C10   1.105487 S    
C28   C29   1.401270 A    
C53   C54   1.396736 A    
C63   C72   1.512286 S    
C15   H31   1.110597 S    
H45   C57   1.083248 S    
C50   O26   1.221039 D    
C75   O31   1.219777 D    
C24   C25   1.433567 A    
P3    O11   1.756000 S    
C70   H51   1.082254 S    
O1    Ba1   2.873138 S    
C65   H49   1.084585 S    
C2    H5    1.110767 S    
C48   C53   1.407044 A    
O14   P8    1.722515 S    
O11   C2    1.408945 S    
C8    C9    1.524870 S    
C17   C22   1.425442 A    
C62   C63   1.520320 S    
C6    H10   1.104100 S    
O2    Ba2   2.829905 S    
C23   C78   1.477401 S    
C74   O30   1.220893 D    
C62   H50   1.085641 S    
C15   C16   1.518032 S    
C11   H21   1.110961 S    
N2    C61   1.390192 Am   
C7    H14   1.110378 S    
C36   C37   1.404664 A    
C13   H27   1.108201 S    
P1    O1    1.527489 D    
N5    C79   1.437462 S    
H44   C58   1.083244 S    
C77   H61   1.110975 S    
C23   C24   1.442524 A    
N3    H56   1.031194 S    
C47   C69   1.402002 A    
C9    H19   1.106180 S    
C25   C26   1.432881 A    
C64   C65   1.326073 D    
N4    C77   1.450677 S    
P7    O22   1.752980 S    
P2    O10   1.748636 S    
C35   C36   1.400707 A    
C48   C52   1.409809 A    
O8    Ba1   2.710983 S    
C60   O27   1.222232 D    
P7    C64   1.828980 S    
C17   C31   1.411213 A    
C1    H2    1.108330 S    
O3    Ba1   2.775643 S    
C4    C80   1.511702 S    
C5    C74   1.511602 S    
C54   H46   1.083319 S    
C11   C12   1.521350 S    
C76   H58   1.108739 S    
C78   H64   1.078009 S    
C73   O29   1.222046 D    
C43   H42   1.082429 S    
C32   C42   1.424247 A    
C33   C46   1.418386 A    
C13   H26   1.109582 S    
C59   C60   1.414390 A    
P4    C29   1.920216 S    
O6    C10   1.417483 S    
C14   H30   1.110599 S    
C35   H39   1.068142 S    
C40   C41   1.402446 A    
P4    O13   1.588147 S    
C19   N4    1.424790 S    
N3    C76   1.443688 S    
Ba1   O16   2.748361 S    
C76   H59   1.110448 S    
C67   H47   1.082099 S    
C33   C34   1.398027 A    
C32   C33   1.423032 A    
C74   H54   1.085595 S    
C2    C3    1.524533 S    
C58   C59   1.407983 A    
P3    C68   1.860202 S    
C14   H29   1.110260 S    
C26   C37   1.415895 A    
C42   C43   1.409571 A    
C20   C21   1.417036 A    
C17   C18   1.411389 A    
C14   H28   1.109241 S    
N2    C71   1.460583 S    
O10   C8    1.395771 S    
P5    O17   1.750789 S    
C4    H8    1.103810 S    
C79   H66   1.052776 S    
C39   H40   1.083370 S    
P1    O2    1.588087 S    
C77   H63   1.112972 S    
C61   O28   1.221477 D    
C47   N5    1.405160 S    
C79   H67   1.093730 S    
C6    C7    1.524839 S    
C8    H15   1.104606 S    
C47   C68   1.396854 A    
C21   C23   1.420570 A    
C16   H34   1.111039 S    
C72   H52   1.086291 S    
C15   H32   1.111624 S    
P5    O18   1.546172 D    
C27   C28   1.414180 A    
O13   Ba2   2.940777 S    
N1    C66   1.456567 S    
P1    Ba1   3.426718 S    
C7    H12   1.110840 S    
C1    N3    1.455876 S    
C1    C10   1.548715 S    
O16   Ba2   2.939639 S    
C65   C66   1.504790 S    
C1    H3    1.097183 S    
C4    O15   1.407724 S    
C3    H25   1.106423 S    
C5    C73   1.516252 S    
O14   Ba2   2.774886 S    
C18   C34   1.400234 A    
P2    O20   1.544965 S    
C9    H17   1.109082 S    
O5    C6    1.391942 S    
C55   C61   1.412299 A    
P2    O7    1.514904 D    
O12   Ba2   2.873517 S    
H33   C16   1.108603 S    
C24   C27   1.441612 A    
P3    O8    1.757910 S    
C20   H36   1.079786 S    
C67   C71   1.416018 A    
C51   C52   1.409343 A    
C3    H7    1.108385 S    
P7    O21   1.570767 D    
O7    Ba1   2.831215 S    
C78   O32   1.221507 D    
C48   C49   1.412854 A    
C64   C72   1.318224 D    
C5    H9    1.103019 S    
C13   C14   1.520701 S    
N4    H60   1.032093 S    
C15   O24   1.402964 S    
N5    H65   1.026480 S    
C76   H57   1.110001 S    
C53   H48   1.083249 S    
C39   C40   1.398841 A    
C16   H35   1.110688 S    
C67   C68   1.399683 A    
O4    P6    1.542078 D    
C12   H23   1.110588 S    
P4    O12   1.527801 D    
P8    O24   1.747076 S    
Ba1   O20   2.940484 S    
C54   C55   1.407987 A    
C50   C51   1.413578 A    
C56   C59   1.409027 A    
C49   N1    1.386198 Am   
C52   C56   1.423375 A    
C42   C44   1.422580 A    
C57   C58   1.397920 A    
C51   C57   1.407674 A    
Ba1   Ba2   4.544684 S    
Ba2   O21   2.831440 S    
C4    C5    1.556549 S    
C30   C35   1.409368 A    
C55   C56   1.408114 A    
C36   C39   1.406285 A    
Ba1   O13   2.829169 S    
O17   Ba2   2.711443 S    
N1    C50   1.386486 Am   
C11   H20   1.108983 S    
C79   H68   1.100536 S    
C28   H37   1.081353 S    
C40   H41   1.083683 S    
O3    P6    1.775367 S    
C37   C38   1.423526 A    
P8    C27   1.877429 S    
C6    H11   1.109638 S    
O2    Ba1   2.940080 S    
C21   C22   1.408112 A    
C25   C30   1.435864 A    
P5    O19   1.753132 S    
C44   C45   1.396136 A    
C9    H18   1.104572 S    
C31   C32   1.424872 A    
C7    H13   1.104521 S    
P5    C63   1.866748 S    
C34   H38   1.073896 S    
P1    C46   1.895951 S    
C10   C75   1.498229 S    
C45   H43   1.072051 S    
C12   H22   1.109846 S    
O16   P7    1.753661 S    
C77   H62   1.109160 S    
C22   C26   1.411022 A    
C80   H69   1.084302 S    
P4    Ba2   3.427110 S    
C11   O22   1.406674 S    
C19   C20   1.389635 A    
C8    H16   1.108654 S    
C29   C30   1.433636 A    
P6    C44   1.875901 S    
P3    O9    1.548116 D    
C38   C41   1.413620 A    
P1    O5    1.747036 S    
C60   N2    1.389272 Am   
C3    H6    1.105846 S    
C69   C70   1.406330 A    
C80   O33   1.221711 D    
C70   C71   1.419757 A    
C45   C46   1.396715 A    
C62   C66   1.360159 D    
P4    O15   1.763749 S    
C41   C43   1.410044 A    
Ba2   O20   2.747760 S    
