data_mof_unit_32366.cif
_audit_creation_date              2012-12-10T20:41:00-0500
_audit_creation_method            fapswitch 2.2
_symmetry_space_group_name_H-M    P1
_symmetry_Int_Tables_number       1
_space_group_crystal_system       triclinic
_cell_length_a                    27.697931
_cell_length_b                    10.658663
_cell_length_c                    9.855933
_cell_angle_alpha                 90.033365
_cell_angle_beta                  90.482683
_cell_angle_gamma                 90.01021
_cell_volume                      2909.59345091

loop_
_atom_site_label
_atom_site_type_symbol
_atom_type_description
_atom_site_fract_x
_atom_site_fract_y
_atom_site_fract_z
_atom_type_partial_charge
C1    C     C_R   0.501489 0.259954 0.500089 0.882806
C2    C     C_R   0.277166 0.449339 0.394071 -0.100889
C3    C     C_R   0.253098 0.503675 0.503590 0.315480
C4    C     C_R   0.102023 0.503340 0.526625 -0.096026
C5    C     C_R   0.128104 0.390366 0.539780 -0.007423
C6    C     C_R   0.103682 0.277791 0.563232 -0.137079
C7    C     C_R   0.126690 0.616784 0.499768 -0.027931
C8    C     C_R   0.353550 0.501891 0.499915 -0.029572
C9    C     C_R   0.647115 0.500611 0.504079 -0.043138
C10   C     C_R   0.975457 0.385472 0.545777 0.056275
C11   C     C_R   0.975125 0.616691 0.562440 0.007568
C12   C     C_R   0.406093 0.500177 0.499644 0.871849
C13   C     C_R   0.950006 0.500838 0.552990 0.049641
C14   C     C_R   0.948996 0.273119 0.528518 -0.215921
C15   C     C_R   0.898970 0.274232 0.520565 -0.134403
C16   C     C_R   0.873642 0.387057 0.530938 -0.013236
C17   C     C_R   0.899020 0.500376 0.549597 -0.056248
C18   C     C_R   0.873336 0.613324 0.563718 -0.071077
C19   C     C_R   0.822925 0.611627 0.554393 0.518509
C20   C     C_R   0.823234 0.389633 0.522160 0.507961
C21   C     C_R   0.725315 0.478022 0.397604 -0.154157
C22   C     C_R   0.674972 0.477170 0.387137 0.073357
C23   C     C_R   0.501518 0.740046 0.500097 0.882333
C24   C     C_R   0.670479 0.524552 0.628712 -0.259832
C25   C     C_R   0.720432 0.524935 0.637655 -0.102049
C26   C     C_R   0.747825 0.501585 0.522410 0.300375
C27   C     C_R   0.026465 0.386512 0.552515 0.056870
C28   C     C_R   0.051185 0.502282 0.539368 0.079598
C29   C     C_R   0.025352 0.616695 0.536234 0.024530
C30   C     C_R   0.053695 0.275532 0.568672 -0.226756
C31   C     C_R   0.099820 0.727972 0.480449 0.145344
C32   C     C_R   0.948453 0.726957 0.596360 0.081340
C33   C     C_R   0.898220 0.724421 0.591525 -0.125002
C34   C     C_R   0.594115 0.499787 0.500582 0.883725
C35   C     C_R   0.049868 0.726021 0.496567 -0.296261
C36   C     C_R   0.507705 0.064022 0.623816 0.145322
C37   C     C_R   0.509237 0.128620 0.501260 -0.104264
C38   C     C_R   0.520079 0.064796 0.380847 -0.217665
C39   C     C_R   0.520115 0.935093 0.380881 -0.217821
C40   C     C_R   0.509289 0.871393 0.501320 -0.103204
C41   C     C_R   0.507737 0.936167 0.623853 0.133599
C42   C     C_3   0.471939 0.929028 0.736359 -0.478373
C43   C     C_3   0.471902 0.071276 0.736307 -0.483844
C44   C     C_R   0.469858 0.421855 0.070190 0.190783
C45   C     C_R   0.178339 0.392673 0.530481 0.500841
C46   C     C_R   0.532407 0.569534 0.072844 -0.125587
C47   C     C_R   0.532305 0.569869 0.928797 -0.137966
C48   C     C_R   0.470487 0.420107 0.927495 0.177591
C49   C     C_3   0.416889 0.415133 0.916143 -0.542334
C50   C     C_3   0.415719 0.422018 0.070229 -0.145164
C51   C     C_R   0.177387 0.613691 0.490589 0.516400
C52   C     C_R   0.279121 0.557122 0.611138 -0.100560
C53   C     C_R   0.329217 0.556221 0.609447 -0.224958
C54   C     C_R   0.327343 0.448301 0.392286 -0.217260
H1    H     H_    0.345572 0.403498 0.308673 0.157688
H2    H     H_    0.260424 0.598853 0.696017 0.139367
H3    H     H_    0.650175 0.543313 0.719943 0.169106
H4    H     H_    0.878662 0.809866 0.614285 0.199236
H5    H     H_    0.737973 0.542947 0.734336 0.145334
H6    H     H_    0.030471 0.810716 0.471903 0.148576
H7    H     H_    0.525146 0.113941 0.285832 0.171737
H8    H     H_    0.525213 0.885832 0.285886 0.168766
H9    H     H_    0.436880 0.887486 0.703633 0.206408
H10   H     H_    0.256947 0.407408 0.311178 0.141970
H11   H     H_    0.487875 0.887993 0.830253 0.205048
H12   H     H_    0.436828 0.112642 0.703547 0.204807
H13   H     H_    0.487796 0.112556 0.830190 0.204758
H14   H     H_    0.557639 0.628494 0.875018 0.146013
H15   H     H_    0.400045 0.337747 0.119586 0.161461
H16   H     H_    0.123096 0.190299 0.576116 0.186010
H17   H     H_    0.880234 0.186024 0.505379 0.191723
H18   H     H_    0.037323 0.185740 0.589007 0.137616
H19   H     H_    0.348883 0.598938 0.692895 0.145549
N1    N     N_R   0.201671 0.503145 0.507119 -0.363905
N2    N     N_R   0.799174 0.501021 0.532563 -0.351963
N3    N     N_R   0.499670 0.499140 0.142800 -0.101944
N4    N     N_R   0.499670 0.499180 0.857150 -0.101054
O1    O     O_R   0.500010 0.316790 0.614690 -0.611933
O2    O     O_2   0.798350 0.281922 0.504010 -0.552969
O3    O     O_2   0.202553 0.719500 0.465805 -0.522275
O4    O     O_2   0.797773 0.719559 0.565637 -0.553725
O5    O     O_R   0.500000 0.316760 0.385350 -0.626879
O6    O     O_R   0.428760 0.500040 0.614660 -0.628202
O7    O     O_R   0.428750 0.500000 0.385310 -0.589328
O8    O     O_R   0.500000 0.683240 0.614650 -0.620641
O9    O     O_R   0.499990 0.683210 0.385310 -0.622101
O10   O     O_R   0.571250 0.500000 0.614690 -0.631381
O11   O     O_R   0.571240 0.499960 0.385340 -0.594739
O12   O     O_2   0.203881 0.285669 0.545967 -0.555284
Zn1   Zn    Zn3+2 0.500000 0.500020 0.653130 0.944954
Zn2   Zn    Zn3+2 0.500000 0.499980 0.346870 0.966308
N5    N     N_3   0.122561 0.843587 0.442947 -0.368996
H20   H     H_    0.114498 0.910843 0.516665 0.181681
H21   H     H_    0.107502 0.873517 0.350860 0.184861
N6    N     N_3   0.970061 0.836407 0.656621 -0.465397
H22   H     H_    0.003380 0.815990 0.701867 0.204724
H23   H     H_    0.973248 0.906744 0.583431 0.170397
H24   H     H_    0.557886 0.627708 0.127923 0.149969
H25   H     H_    0.401343 0.498533 0.864336 0.218045
H26   H     H_    0.404181 0.323514 0.875449 0.193509
N7    N     N_3   0.395402 0.540314 0.119877 -0.396082
H27   H     H_    0.358592 0.541080 0.095483 0.189298
H28   H     H_    0.411133 0.616591 0.070004 0.199849
N8    N     N_3   0.652631 0.450670 0.258662 -0.434331
H29   H     H_    0.664540 0.362669 0.226165 0.193584
H30   H     H_    0.664528 0.517438 0.188844 0.180395
H31   H     H_    0.747024 0.459959 0.308780 0.140727
H32   H     H_    0.966086 0.183120 0.515143 0.137555

loop_
_geom_bond_atom_site_label_1
_geom_bond_atom_site_label_2
_ccdc_geom_bond_type
C10   C27   A    
C44   C48   A    
C21   C26   A    
C40   C41   A    
N7    H27   S    
C41   C42   S    
N6    H22   S    
C51   N1    A    
C46   N3    A    
O1    Zn1   S    
C28   C29   A    
C33   H4    S    
C16   C20   A    
C50   H15   S    
O9    Zn2   S    
C5    C6    A    
C3    C52   A    
C9    C22   A    
C15   C16   A    
C22   N8    S    
C12   O7    A    
C18   C19   A    
C44   N3    A    
C3    N1    S    
C51   O3    S    
C46   C47   A    
C16   C17   A    
C23   O9    A    
C42   H11   S    
O7    Zn2   S    
C45   O12   S    
C1    C37   S    
C38   H7    S    
C14   H32   S    
C46   H24   S    
N7    H28   S    
C21   C22   A    
C27   C30   A    
C1    O1    A    
C36   C41   A    
C4    C7    A    
N8    H30   S    
N8    H29   S    
C4    C28   A    
C2    H10   S    
C17   C18   A    
N4    Zn1   S    
C7    C31   A    
C24   C25   A    
C2    C54   A    
C8    C54   A    
C39   C40   A    
C24   H3    S    
C1    O5    A    
C5    C45   A    
O6    Zn1   S    
O5    Zn2   S    
C20   N2    A    
C45   N1    A    
C48   N4    A    
C37   C38   A    
C49   H25   S    
O11   Zn2   S    
C8    C12   S    
N5    H21   S    
C26   N2    S    
C34   O11   A    
C11   C29   A    
C21   H31   S    
C48   C49   S    
C6    C30   A    
C11   C32   A    
C31   N5    S    
C10   C14   A    
C9    C34   S    
C31   C35   A    
C42   C43   S    
C47   N4    A    
C47   H14   S    
C52   C53   A    
C44   C50   S    
C6    H16   S    
C39   H8    S    
C54   H1    S    
C36   C37   A    
C20   O2    S    
C53   H19   S    
C4    C5    A    
C10   C13   A    
C8    C53   A    
C30   H18   S    
O8    Zn1   S    
N6    H23   S    
C9    C24   A    
C15   H17   S    
C29   C35   A    
C13   C17   A    
C32   C33   A    
C19   N2    A    
C2    C3    A    
C25   C26   A    
C7    C51   A    
C49   H26   S    
C11   C13   A    
C38   C39   A    
C43   H12   S    
N5    H20   S    
C34   O10   A    
C18   C33   A    
N3    Zn2   S    
C52   H2    S    
C32   N6    S    
C12   O6    A    
C50   N7    S    
C43   H13   S    
C49   C50   S    
C23   O8    A    
O10   Zn1   S    
C27   C28   A    
C14   C15   A    
C35   H6    S    
C36   C43   S    
C25   H5    S    
C19   O4    S    
C42   H9    S    
C23   C40   S    
