data_mof_unit_13729.cif
_audit_creation_date              2012-12-11T15:22:49-0500
_audit_creation_method            fapswitch 2.2
_symmetry_space_group_name_H-M    P1
_symmetry_Int_Tables_number       1
_space_group_crystal_system       triclinic
_cell_length_a                    22.433119
_cell_length_b                    13.004072
_cell_length_c                    26.948562
_cell_angle_alpha                 89.857647
_cell_angle_beta                  90.821291
_cell_angle_gamma                 90.069048
_cell_volume                      7860.64829001

loop_
_atom_site_label
_atom_site_type_symbol
_atom_type_description
_atom_site_fract_x
_atom_site_fract_y
_atom_site_fract_z
_atom_type_partial_charge
C1    C     C_R   0.719821 0.343415 0.177699 0.543682
C2    C     C_R   0.279370 0.344827 0.821710 0.547268
C3    C     C_R   0.219821 0.843414 0.177699 0.546261
C4    C     C_R   0.779372 0.844821 0.821712 0.547090
C5    C     C_R   0.474370 0.161220 0.872310 -0.003478
C6    C     C_R   0.521798 0.162996 0.129527 -0.000601
C7    C     C_R   0.974366 0.661218 0.872312 -0.003408
C8    C     C_R   0.021795 0.662998 0.129529 -0.001401
C9    C     C_R   0.518064 0.257026 0.103793 -0.211188
C10   C     C_R   0.480204 0.255544 0.897343 -0.192616
C11   C     C_R   0.018064 0.757027 0.103795 -0.211572
C12   C     C_R   0.980203 0.755543 0.897345 -0.192537
C13   C     C_R   0.506478 0.258207 0.052596 -0.004129
C14   C     C_R   0.490823 0.257237 0.948710 0.002287
C15   C     C_R   0.006476 0.758208 0.052597 -0.004124
C16   C     C_R   0.990821 0.757237 0.948712 0.002261
C17   C     C_R   0.499426 0.164194 0.027174 0.007155
C18   C     C_R   0.493535 0.163591 0.975220 0.006458
C19   C     C_R   0.999420 0.664196 0.027176 0.007176
C20   C     C_R   0.993529 0.663591 0.975222 0.006423
C21   C     C_R   0.504877 0.351045 0.025930 -0.125481
C22   C     C_R   0.496257 0.350618 0.974405 -0.116485
C23   C     C_R   0.004879 0.851046 0.025931 -0.125523
C24   C     C_R   0.996259 0.850618 0.974405 -0.116483
C25   C     C_R   0.738362 0.957818 0.129565 -0.036921
C26   C     C_R   0.258352 0.952308 0.868775 -0.032012
C27   C     C_R   0.238351 0.457855 0.129556 -0.037670
C28   C     C_R   0.758353 0.452312 0.868776 -0.032058
C29   C     C_R   0.793501 0.965358 0.105902 -0.195319
C30   C     C_R   0.208995 0.983842 0.896185 -0.210548
C31   C     C_R   0.293489 0.465388 0.105890 -0.195055
C32   C     C_R   0.709000 0.483857 0.896188 -0.210631
C33   C     C_R   0.797413 0.946569 0.055207 -0.192790
C34   C     C_R   0.204789 0.958259 0.945851 -0.207336
C35   C     C_R   0.297396 0.446617 0.055193 -0.192708
C36   C     C_R   0.704794 0.458277 0.945853 -0.207415
C37   C     C_R   0.746110 0.921413 0.027347 -0.025638
C38   C     C_R   0.249040 0.898428 0.969143 -0.021469
C39   C     C_R   0.246089 0.421487 0.027333 -0.025612
C40   C     C_R   0.749043 0.398438 0.969144 -0.021484
C41   C     C_R   0.691458 0.909103 0.051354 0.408389
C42   C     C_R   0.296598 0.860572 0.941233 0.405135
C43   C     C_R   0.191436 0.409197 0.051340 0.408563
C44   C     C_R   0.796597 0.360572 0.941233 0.405145
C45   C     C_R   0.552666 0.157257 0.178002 0.568100
C46   C     C_R   0.446505 0.156916 0.822538 0.561774
C47   C     C_R   0.052665 0.657258 0.178003 0.569263
C48   C     C_R   0.946504 0.656916 0.822539 0.561872
C49   C     C_R   0.687776 0.925125 0.102112 0.408727
C50   C     C_R   0.301381 0.887545 0.891238 0.415215
C51   C     C_R   0.187758 0.425200 0.102099 0.408430
C52   C     C_R   0.801379 0.387542 0.891238 0.415199
C53   C     C_R   0.720803 0.826133 0.950110 -0.060388
C54   C     C_R   0.293964 0.891076 0.054989 -0.063336
C55   C     C_R   0.220773 0.326204 0.950100 -0.060297
C56   C     C_R   0.793967 0.391074 0.054989 -0.063433
C57   C     C_R   0.726056 0.811391 0.899447 -0.119948
C58   C     C_R   0.286855 0.881281 0.106297 -0.131237
C59   C     C_R   0.226033 0.311442 0.899439 -0.119897
C60   C     C_R   0.786857 0.381277 0.106297 -0.131439
C61   C     C_R   0.789061 0.962696 0.894024 -0.115503
C62   C     C_R   0.181326 0.849324 0.092768 -0.112700
C63   C     C_R   0.289055 0.462726 0.894011 -0.115453
C64   C     C_R   0.681326 0.349340 0.092768 -0.112550
C65   C     C_R   0.782540 0.978927 0.944743 -0.110062
C66   C     C_R   0.188628 0.855541 0.042082 -0.121510
C67   C     C_R   0.282528 0.478975 0.944729 -0.110087
C68   C     C_R   0.688628 0.355558 0.042083 -0.121581
C69   C     C_R   0.749583 0.909147 0.973292 0.056794
C70   C     C_R   0.244582 0.878677 0.022663 0.063731
C71   C     C_R   0.249560 0.409214 0.973279 0.056791
C72   C     C_R   0.744584 0.378684 0.022663 0.063724
C73   C     C_R   0.761862 0.877465 0.871298 0.020425
C74   C     C_R   0.230027 0.862917 0.125258 0.030638
C75   C     C_R   0.261852 0.377493 0.871290 0.020487
C76   C     C_R   0.730028 0.362922 0.125259 0.031041
C77   C     C_R   0.528122 0.168642 0.371010 0.025597
C78   C     C_R   0.472453 0.169189 0.629224 0.024741
C79   C     C_R   0.029138 0.668547 0.371415 0.023532
C80   C     C_R   0.973083 0.669237 0.629501 0.025117
C81   C     C_R   0.537622 0.259334 0.398265 -0.118199
C82   C     C_R   0.462923 0.259637 0.601625 -0.119210
C83   C     C_R   0.039416 0.758947 0.398723 -0.121679
C84   C     C_R   0.963787 0.759631 0.601811 -0.117858
C85   C     C_R   0.526371 0.261758 0.448864 -0.107637
C86   C     C_R   0.474499 0.261907 0.551064 -0.108886
C87   C     C_R   0.028713 0.761304 0.449408 -0.101499
C88   C     C_R   0.976069 0.761918 0.551374 -0.106683
C89   C     C_R   0.730957 0.002160 0.179196 0.561865
C90   C     C_R   0.268604 0.001234 0.820449 0.564830
C91   C     C_R   0.230955 0.502168 0.179194 0.570234
C92   C     C_R   0.768604 0.501235 0.820449 0.564616
C93   C     C_R   0.504496 0.174111 0.473026 0.043172
C94   C     C_R   0.496709 0.174339 0.527313 0.042684
C95   C     C_R   0.006672 0.673871 0.473623 0.045946
C96   C     C_R   0.998703 0.674400 0.527866 0.046982
C97   C     C_R   0.491020 0.085726 0.445091 -0.109200
C98   C     C_R   0.510344 0.086352 0.555642 -0.108868
C99   C     C_R   0.992755 0.585623 0.445740 -0.110164
C100  C     C_R   0.012164 0.586538 0.556327 -0.102976
C101  C     C_R   0.503073 0.082794 0.394515 -0.118169
C102  C     C_R   0.497991 0.083581 0.606165 -0.118463
C103  C     C_R   0.004219 0.582769 0.395066 -0.118697
C104  C     C_R   0.999135 0.583759 0.606724 -0.116624
C105  C     C_R   0.733915 0.983916 0.376677 -0.016119
C106  C     C_R   0.265766 0.983561 0.623361 -0.017182
C107  C     C_R   0.221161 0.526420 0.380941 -0.024602
C108  C     C_R   0.765740 0.483568 0.623459 -0.016928
C109  C     C_R   0.720385 0.887353 0.396410 -0.152008
C110  C     C_R   0.281217 0.887870 0.603855 -0.146246
C111  C     C_R   0.222098 0.425089 0.398584 -0.130706
C112  C     C_R   0.779352 0.386973 0.604071 -0.151278
C113  C     C_R   0.717726 0.875147 0.447793 -0.161366
C114  C     C_R   0.283802 0.875601 0.552479 -0.146227
C115  C     C_R   0.221901 0.406170 0.449468 -0.178605
C116  C     C_R   0.781819 0.374386 0.552723 -0.160855
C117  C     C_R   0.726781 0.960201 0.479249 0.031953
C118  C     C_R   0.272672 0.959824 0.520761 0.037086
C119  C     C_R   0.220480 0.488321 0.483181 0.027885
C120  C     C_R   0.772519 0.459119 0.520935 0.032266
C121  C     C_R   0.736444 0.057877 0.458807 0.358162
C122  C     C_R   0.261072 0.056892 0.540947 0.356156
C123  C     C_R   0.217859 0.589790 0.465287 0.374382
C124  C     C_R   0.762727 0.556854 0.541021 0.357821
C125  C     C_R   0.740917 0.069024 0.408004 -0.075478
C126  C     C_R   0.256725 0.067932 0.591735 -0.076723
C127  C     C_R   0.218183 0.608416 0.414336 -0.104136
C128  C     C_R   0.758393 0.568343 0.591794 -0.076265
C129  C     C_R   0.782214 0.988514 0.557820 -0.066474
C130  C     C_R   0.216330 0.985448 0.442415 -0.057498
C131  C     C_R   0.273589 0.513652 0.563613 -0.072394
C132  C     C_R   0.717217 0.486999 0.442205 -0.066024
C133  C     C_R   0.721422 0.347703 0.321642 0.541914
C134  C     C_R   0.278541 0.348097 0.678227 0.542103
C135  C     C_R   0.221510 0.848019 0.321514 0.531818
C136  C     C_R   0.778561 0.847916 0.678383 0.543352
C137  C     C_R   0.794050 0.963591 0.606922 -0.134412
C138  C     C_R   0.204861 0.961254 0.393269 -0.131978
C139  C     C_R   0.287986 0.479198 0.611237 -0.133758
C140  C     C_R   0.705651 0.462488 0.393076 -0.134503
C141  C     C_R   0.705650 0.855833 0.607961 -0.123126
C142  C     C_R   0.294739 0.857651 0.391810 -0.130515
C143  C     C_R   0.206400 0.356894 0.606935 -0.118516
C144  C     C_R   0.793998 0.354980 0.392384 -0.123050
C145  C     C_R   0.693566 0.881475 0.558645 -0.096288
C146  C     C_R   0.306562 0.882890 0.441208 -0.105233
C147  C     C_R   0.192428 0.390676 0.559031 -0.096965
C148  C     C_R   0.805841 0.380282 0.441744 -0.094268
C149  C     C_R   0.732927 0.945350 0.532940 0.083549
C150  C     C_R   0.266371 0.944492 0.467111 0.089683
C151  C     C_R   0.227171 0.466929 0.536549 0.076494
C152  C     C_R   0.766406 0.443941 0.467274 0.084086
C153  C     C_R   0.757445 0.893380 0.631671 0.020002
C154  C     C_R   0.242427 0.893444 0.368234 0.015931
C155  C     C_R   0.255993 0.397725 0.632544 0.019108
C156  C     C_R   0.742376 0.392662 0.368451 0.019563
C157  C     C_R   0.554508 0.158776 0.321664 0.537213
C158  C     C_R   0.445632 0.158998 0.678411 0.537203
C159  C     C_R   0.054721 0.658757 0.321777 0.527443
C160  C     C_R   0.945727 0.659006 0.678470 0.537425
C161  C     C_R   0.731161 0.004634 0.323870 0.534925
C162  C     C_R   0.268834 0.004858 0.676119 0.538591
C163  C     C_R   0.219010 0.548052 0.327870 0.552221
C164  C     C_R   0.768786 0.504727 0.676184 0.537932
C165  C     C_R   0.506823 0.070880 0.104889 0.403298
C166  C     C_R   0.483993 0.068388 0.898467 0.386025
C167  C     C_R   0.006814 0.570883 0.104892 0.403054
C168  C     C_R   0.983984 0.568387 0.898470 0.386085
C169  C     C_R   0.498898 0.070430 0.053587 0.027642
C170  C     C_R   0.490170 0.069035 0.949893 0.020832
C171  C     C_R   0.998888 0.570432 0.053590 0.027654
C172  C     C_R   0.990159 0.569035 0.949897 0.020798
C173  C     C_R   0.490454 0.976310 0.976554 -0.064590
C174  C     C_R   0.493601 0.977096 0.028025 -0.061965
C175  C     C_R   0.990438 0.476310 0.976558 -0.064566
C176  C     C_R   0.993585 0.477098 0.028029 -0.061947
Cr1   Cr    Cr6+3 0.756570 0.170940 0.251190 1.031168
Cr2   Cr    Cr6+3 0.243430 0.170940 0.748810 1.027209
Cr3   Cr    Cr6+3 0.256570 0.670940 0.251190 1.028656
Cr4   Cr    Cr6+3 0.743430 0.670940 0.748810 1.025683
Cr5   Cr    Cr6+3 0.623740 0.299110 0.249580 1.020546
Cr6   Cr    Cr6+3 0.376260 0.299110 0.750420 1.025300
Cr7   Cr    Cr6+3 0.123740 0.799110 0.249580 1.014297
Cr8   Cr    Cr6+3 0.876260 0.799110 0.750420 1.025765
Cr9   Cr    Cr6+3 0.625990 0.036240 0.250480 1.114370
Cr10  Cr    Cr6+3 0.374010 0.036240 0.749520 1.119632
Cr11  Cr    Cr6+3 0.125990 0.536240 0.250480 1.112517
Cr12  Cr    Cr6+3 0.874010 0.536240 0.749520 1.120781
H1    H     H_    0.817131 0.014222 0.873014 0.158465
H2    H     H_    0.137587 0.830692 0.106620 0.136455
H3    H     H_    0.317134 0.514237 0.873001 0.158367
H4    H     H_    0.637586 0.330716 0.106620 0.136431
H5    H     H_    0.557552 0.326476 0.381327 0.134058
H6    H     H_    0.442673 0.326580 0.618244 0.135423
H7    H     H_    0.059412 0.825937 0.381702 0.133805
H8    H     H_    0.943177 0.826470 0.618221 0.133748
H9    H     H_    0.529225 0.018796 0.538510 0.106766
H10   H     H_    0.472423 0.018049 0.462556 0.105829
H11   H     H_    0.031330 0.519042 0.539356 0.108326
H12   H     H_    0.974102 0.518090 0.463291 0.106516
H13   H     H_    0.505969 0.013059 0.626663 0.131748
H14   H     H_    0.495187 0.012058 0.374312 0.131381
H15   H     H_    0.006977 0.513314 0.627318 0.132644
H16   H     H_    0.995875 0.512193 0.374854 0.132777
H17   H     H_    0.537493 0.330753 0.469429 0.107631
H18   H     H_    0.463292 0.330629 0.530189 0.108508
H19   H     H_    0.040198 0.830135 0.469973 0.112072
H20   H     H_    0.964994 0.830527 0.530360 0.107106
H21   H     H_    0.813786 0.036662 0.538478 0.148749
H22   H     H_    0.183995 0.031458 0.461890 0.152978
H23   H     H_    0.301193 0.572125 0.546736 0.135927
H24   H     H_    0.685552 0.534898 0.461395 0.148841
H25   H     H_    0.834163 0.993985 0.624304 0.129303
H26   H     H_    0.164245 0.990136 0.376095 0.130883
H27   H     H_    0.326094 0.512806 0.630285 0.128649
H28   H     H_    0.665640 0.492961 0.375556 0.128549
H29   H     H_    0.487126 0.902883 0.957807 0.219851
H30   H     H_    0.493498 0.904237 0.047606 0.213720
H31   H     H_    0.987107 0.402882 0.957812 0.219894
H32   H     H_    0.993478 0.404240 0.047611 0.213776
H33   H     H_    0.710023 0.799218 0.462944 0.189351
H34   H     H_    0.293113 0.800192 0.537554 0.173377
H35   H     H_    0.224524 0.327480 0.462572 0.188377
H36   H     H_    0.789619 0.298418 0.537868 0.188601
H37   H     H_    0.654988 0.848393 0.540035 0.107868
H38   H     H_    0.345681 0.851379 0.459679 0.099944
H39   H     H_    0.156147 0.354342 0.538695 0.115826
H40   H     H_    0.844343 0.347241 0.460493 0.108498
H41   H     H_    0.747837 0.145279 0.392881 0.146732
H42   H     H_    0.248425 0.143770 0.606595 0.144460
H43   H     H_    0.215166 0.686647 0.400881 0.123855
H44   H     H_    0.751373 0.644656 0.606615 0.146484
H45   H     H_    0.473603 0.327228 0.877399 0.143406
H46   H     H_    0.527858 0.328510 0.122862 0.136509
H47   H     H_    0.973606 0.827227 0.877399 0.143518
H48   H     H_    0.027861 0.828511 0.122862 0.136561
H49   H     H_    0.494246 0.423203 0.954627 0.124964
H50   H     H_    0.510307 0.423883 0.044909 0.122488
H51   H     H_    0.994251 0.923202 0.954627 0.125043
H52   H     H_    0.010313 0.923884 0.044909 0.122568
H53   H     H_    0.833054 0.990024 0.126116 0.163254
H54   H     H_    0.175155 0.033723 0.880191 0.163165
H55   H     H_    0.333047 0.490030 0.126106 0.163737
H56   H     H_    0.675161 0.533744 0.880194 0.163080
H57   H     H_    0.696272 0.769958 0.971436 0.165421
H58   H     H_    0.337471 0.910379 0.040739 0.163160
H59   H     H_    0.196233 0.270044 0.971428 0.165524
H60   H     H_    0.837475 0.410369 0.040740 0.163122
H61   H     H_    0.705522 0.743796 0.883117 0.138322
H62   H     H_    0.325068 0.889377 0.131002 0.135470
H63   H     H_    0.205494 0.243848 0.883112 0.138328
H64   H     H_    0.825071 0.389365 0.131003 0.135169
H65   H     H_    0.840257 0.954181 0.037511 0.145959
H66   H     H_    0.167864 0.989028 0.966589 0.141814
H67   H     H_    0.340241 0.454215 0.037497 0.145991
H68   H     H_    0.667872 0.489055 0.966593 0.141736
H69   H     H_    0.804331 0.044487 0.961873 0.161306
H70   H     H_    0.150200 0.843251 0.017983 0.126089
H71   H     H_    0.304325 0.544534 0.961856 0.161265
H72   H     H_    0.650199 0.343276 0.017983 0.126050
O1    O     O_R   0.769900 0.064540 0.196060 -0.521839
O2    O     O_R   0.230100 0.064540 0.803940 -0.533768
O3    O     O_R   0.269900 0.564540 0.196060 -0.518876
O4    O     O_R   0.730100 0.564540 0.803940 -0.534018
O5    O     O_R   0.574760 0.239320 0.300850 -0.508043
O6    O     O_R   0.425240 0.239320 0.699150 -0.507906
O7    O     O_R   0.074760 0.739320 0.300850 -0.510405
O8    O     O_R   0.925240 0.739320 0.699150 -0.507920
O9    O     O_R   0.566290 0.069580 0.305400 -0.516326
O10   O     O_R   0.433710 0.069580 0.694600 -0.515002
O11   O     O_R   0.066290 0.569580 0.305400 -0.522583
O12   O     O_R   0.933710 0.569580 0.694600 -0.514523
O13   O     O_R   0.680760 0.993330 0.302620 -0.498522
O14   O     O_R   0.319240 0.993330 0.697380 -0.496072
O15   O     O_R   0.180760 0.493330 0.302620 -0.499668
O16   O     O_R   0.819240 0.493330 0.697380 -0.495007
O17   O     O_3   0.668770 0.168760 0.250420 -0.265899
O18   O     O_3   0.331230 0.168760 0.749580 -0.267097
O19   O     O_3   0.168770 0.668760 0.250420 -0.287492
O20   O     O_3   0.831230 0.668760 0.749580 -0.267257
O21   O     O_R   0.750800 0.274080 0.199250 -0.491906
O22   O     O_R   0.249200 0.274080 0.800750 -0.501412
O23   O     O_R   0.250800 0.774080 0.199250 -0.491420
O24   O     O_R   0.749200 0.774080 0.800750 -0.501731
O25   O     O_R   0.669990 0.371670 0.194150 -0.513744
O26   O     O_R   0.330010 0.371670 0.805850 -0.511702
O27   O     O_R   0.169990 0.871670 0.194150 -0.511152
O28   O     O_R   0.830010 0.871670 0.805850 -0.511440
O29   O     O_R   0.574600 0.238480 0.197800 -0.529389
O30   O     O_R   0.425400 0.238480 0.802200 -0.520647
O31   O     O_R   0.074600 0.738480 0.197800 -0.527238
O32   O     O_R   0.925400 0.738480 0.802200 -0.520562
O33   O     O_R   0.566130 0.068680 0.194240 -0.389823
O34   O     O_R   0.433870 0.068680 0.805760 -0.405803
O35   O     O_R   0.066130 0.568680 0.194240 -0.388686
O36   O     O_R   0.933870 0.568680 0.805760 -0.405722
O37   O     O_R   0.680610 0.992490 0.199570 -0.428977
O38   O     O_R   0.319390 0.992490 0.800430 -0.425516
O39   O     O_R   0.180610 0.492490 0.199570 -0.423861
O40   O     O_R   0.819390 0.492490 0.800430 -0.425509
O41   O     O_R   0.770060 0.065440 0.307230 -0.520645
O42   O     O_R   0.229940 0.065440 0.692770 -0.518911
O43   O     O_R   0.270060 0.565440 0.307230 -0.505140
O44   O     O_R   0.729940 0.565440 0.692770 -0.519388
O45   O     O_R   0.750960 0.274920 0.302300 -0.510484
O46   O     O_R   0.249040 0.274920 0.697700 -0.507902
O47   O     O_R   0.250960 0.774920 0.302300 -0.523481
O48   O     O_R   0.749040 0.774920 0.697700 -0.508893
O49   O     O_R   0.670160 0.372580 0.305320 -0.519036
O50   O     O_R   0.329840 0.372580 0.694680 -0.517960
O51   O     O_R   0.170160 0.872580 0.305320 -0.518567
O52   O     O_R   0.829840 0.872580 0.694680 -0.518789
F1    F     F_    0.482988 0.976244 0.874610 -0.578451
F2    F     F_    0.504544 0.980109 0.130049 -0.582585
F3    F     F_    0.982975 0.476241 0.874615 -0.578247
F4    F     F_    0.004531 0.480114 0.130053 -0.582411
F5    F     F_    0.640583 0.888335 0.025302 -0.612663
F6    F     F_    0.338485 0.798413 0.962323 -0.619131
F7    F     F_    0.140557 0.388458 0.025287 -0.612565
F8    F     F_    0.838480 0.298405 0.962322 -0.619069
F9    F     F_    0.633434 0.915989 0.123257 -0.542672
F10   F     F_    0.349048 0.853326 0.865576 -0.552777
F11   F     F_    0.133415 0.416081 0.123244 -0.542218
F12   F     F_    0.849043 0.353314 0.865574 -0.552641
H73   H     H_    0.712629 0.822053 0.372285 0.131831
H74   H     H_    0.290606 0.823258 0.628164 0.131453
H75   H     H_    0.223598 0.360988 0.373038 0.150667
H76   H     H_    0.787349 0.321934 0.628445 0.133776
H77   H     H_    0.676506 0.801950 0.626440 0.127696
H78   H     H_    0.324471 0.805314 0.373169 0.130684
H79   H     H_    0.180519 0.294828 0.622670 0.127828
H80   H     H_    0.823204 0.301332 0.374025 0.127176
F13   F     F_    0.741203 0.142580 0.487951 -0.675415
F14   F     F_    0.254266 0.141209 0.511568 -0.674073
F15   F     F_    0.214315 0.670364 0.497005 -0.663670
F16   F     F_    0.757787 0.641339 0.511562 -0.676114

loop_
_geom_bond_atom_site_label_1
_geom_bond_atom_site_label_2
_ccdc_geom_bond_type
C99   C103  A    
C7    C168  A    
C158  O6    A    
C55   C59   A    
C142  C146  A    
C77   C101  A    
C19   C20   A    
C47   O31   A    
C165  C169  A    
Cr4   O48   S    
C89   O37   A    
C62   H2    S    
C108  C164  S    
Cr10  O38   S    
C37   C69   S    
C26   C50   A    
Cr4   O4    S    
C95   C99   A    
C29   C33   A    
C100  C104  A    
Cr7   O7    S    
C3    C74   S    
C9    C13   A    
C146  C150  A    
C11   C15   A    
C112  H76   S    
C12   C16   A    
C56   C72   A    
C143  H79   S    
C169  C174  A    
C110  H74   S    
C161  O41   A    
Cr8   O32   S    
C172  C175  A    
C135  O51   A    
C138  C154  A    
C6    C165  A    
C53   C69   A    
C128  H44   S    
C21   C22   A    
C61   H1    S    
C88   H20   S    
C41   C49   A    
C64   H4    S    
C18   C170  A    
C25   C29   A    
C160  O12   A    
C27   C31   A    
C28   C32   A    
C68   H72   S    
C62   C66   A    
C167  C171  A    
C98   C102  A    
C145  H37   S    
C60   C76   A    
C65   H69   S    
C56   H60   S    
C78   C82   A    
C134  C155  S    
C54   C70   A    
C68   C72   A    
C97   C101  A    
C13   C21   A    
C113  H33   S    
C92   O4    A    
C161  O13   A    
C140  C156  A    
C20   C172  A    
C119  C123  A    
Cr2   O2    S    
C132  C152  A    
C89   O1    A    
C57   H61   S    
C130  C138  A    
C91   O3    A    
Cr12  O20   S    
C31   H55   S    
C106  C126  A    
C10   H45   S    
C84   C88   A    
Cr9   O17   S    
Cr10  O14   S    
Cr7   O19   S    
Cr11  O19   S    
C26   C90   S    
C5    C46   S    
Cr4   O44   S    
C52   F12   S    
C105  C125  A    
Cr2   O42   S    
C7    C48   S    
C8    C47   S    
Cr7   O31   S    
C1    O21   A    
C136  C153  S    
C66   C70   A    
Cr2   O22   S    
C83   H7    S    
C81   H5    S    
C61   C65   A    
C129  C137  A    
C45   O29   A    
C117  C149  S    
C55   C71   A    
C2    C75   S    
C23   H52   S    
C148  H40   S    
Cr4   O20   S    
C6    C9    A    
C85   H17   S    
Cr6   O18   S    
C129  C149  A    
C50   F10   S    
C167  F4    S    
C64   C68   A    
Cr2   O46   S    
C102  H13   S    
C164  O44   A    
C125  H41   S    
C63   H3    S    
C118  C122  A    
C57   C73   A    
Cr1   O1    S    
C85   C93   A    
C78   C158  S    
C87   C95   A    
C99   H12   S    
C130  C150  A    
C23   C24   A    
C27   C91   S    
C174  H30   S    
C47   O35   A    
C110  C114  A    
Cr9   O37   S    
C48   O36   A    
C121  F13   S    
C22   H49   S    
C44   C52   A    
C106  C162  S    
C123  F15   S    
C32   H56   S    
C35   H67   S    
C79   C103  A    
Cr3   O3    S    
Cr11  O39   S    
C142  H78   S    
C127  H43   S    
C27   C51   A    
C7    C12   A    
C30   C34   A    
C10   C14   A    
C147  H39   S    
C44   F8    S    
C116  C120  A    
C175  H31   S    
C144  C156  A    
C147  C151  A    
C121  C125  A    
C162  O42   A    
C136  O48   A    
C123  C127  A    
C139  C155  A    
C157  O9    A    
C17   C18   A    
C43   F7    S    
C5    C166  A    
C108  C128  A    
C4    C73   S    
Cr12  O36   S    
C49   F9    S    
C42   C50   A    
C113  C117  A    
C107  C163  S    
C26   C30   A    
C115  C119  A    
C59   H63   S    
C105  C161  S    
Cr9   O33   S    
C93   C97   A    
C112  C116  A    
Cr11  O35   S    
C58   C74   A    
C105  C109  A    
C39   C71   S    
C40   C72   S    
C98   H9    S    
C1    C76   S    
Cr5   O25   S    
C148  C152  A    
C66   H70   S    
C160  O8    A    
C141  C145  A    
Cr8   O20   S    
C171  C176  A    
C13   C17   A    
C34   H66   S    
C14   C22   A    
C134  O46   A    
C131  H23   S    
C162  O14   A    
C136  O52   A    
C63   C75   A    
C84   H8    S    
C96   C100  A    
C4    O24   A    
C37   C41   A    
C90   O2    A    
C131  C139  A    
Cr12  O40   S    
C40   C44   A    
C30   H54   S    
C142  C154  A    
C144  H80   S    
C67   H71   S    
Cr10  O18   S    
Cr11  O15   S    
C12   H47   S    
C83   C87   A    
C88   C96   A    
C6    C45   S    
Cr5   O49   S    
C78   C102  A    
C133  C156  S    
C80   C84   A    
C1    O25   A    
C2    O22   A    
C163  O15   A    
C124  F16   S    
C15   C19   A    
Cr3   O23   S    
C36   H68   S    
C135  C154  S    
C80   C104  A    
C115  H35   S    
C79   C159  S    
C80   C160  S    
C94   C98   A    
C118  C150  S    
C103  H16   S    
C139  H27   S    
C16   C24   A    
Cr4   O24   S    
C109  H73   S    
Cr9   O9    S    
C124  C128  A    
Cr7   O27   S    
Cr11  O11   S    
C159  O11   A    
Cr5   O29   S    
C107  C111  A    
Cr3   O47   S    
C133  O49   A    
C104  H15   S    
C53   C57   A    
C146  H38   S    
C61   C73   A    
C82   C86   A    
C33   C37   A    
C108  C112  A    
C116  H36   S    
C35   C39   A    
C130  H22   S    
C48   O32   A    
C8    C167  A    
C165  F2    S    
C91   O39   A    
C114  H34   S    
C24   H51   S    
Cr5   O5    S    
C38   C70   S    
C31   C35   A    
C32   C36   A    
C11   H48   S    
C138  H26   S    
C9    H46   S    
C164  O16   A    
C132  C140  A    
C157  O5    A    
C42   F6    S    
C25   C89   S    
C158  O10   A    
C143  C155  A    
C79   C83   A    
C43   C51   A    
C3    O27   A    
C65   C69   A    
C67   C71   A    
C54   H58   S    
Cr10  O34   S    
C25   C49   A    
C82   H6    S    
C56   C60   A    
C168  C172  A    
C176  H32   S    
Cr7   O51   S    
C62   C74   A    
C145  C149  A    
Cr8   O52   S    
C170  C173  A    
C93   C94   S    
C14   C18   A    
C95   C96   S    
C132  H24   S    
C144  C148  A    
C141  C153  A    
C86   H18   S    
C135  O47   A    
C51   F11   S    
C173  C174  A    
C143  C147  A    
C4    O28   A    
C92   O40   A    
C126  H42   S    
C19   C171  A    
C38   C42   A    
C101  H14   S    
C17   C169  A    
C159  O7    A    
C46   O30   A    
Cr2   O18   S    
C117  C121  A    
C86   C94   A    
C175  C176  A    
Cr6   O50   S    
C77   C81   A    
C173  H29   S    
C122  F14   S    
C16   C20   A    
C2    O26   A    
C163  O43   A    
C15   C23   A    
C21   H50   S    
Cr3   O19   S    
Cr8   O28   S    
C55   H59   S    
C81   C85   A    
C119  C151  S    
C63   C67   A    
C120  C152  S    
C137  C153  A    
C36   C40   A    
C39   C43   A    
Cr12  O16   S    
C122  C126  A    
Cr9   O13   S    
Cr6   O26   S    
Cr10  O10   S    
Cr1   O41   S    
C64   C76   A    
C28   C92   S    
C168  F3    S    
Cr6   O30   S    
Cr3   O43   S    
C109  C113  A    
C133  O45   A    
C114  C118  A    
Cr1   O21   S    
C134  O50   A    
Cr8   O8    S    
C58   H62   S    
C59   C75   A    
C54   C58   A    
C137  H25   S    
C34   C38   A    
C45   O33   A    
C97   H10   S    
Cr1   O17   S    
C166  F1    S    
C46   O34   A    
C33   H65   S    
C5    C10   A    
Cr5   O17   S    
C28   C52   A    
C90   O38   A    
Cr6   O6    S    
C8    C11   A    
C3    O23   A    
C166  C170  A    
C141  H77   S    
C131  C151  A    
C87   H19   S    
Cr1   O45   S    
C53   H57   S    
C140  H28   S    
C100  H11   S    
C106  C110  A    
C41   F5    S    
C60   H64   S    
C29   H53   S    
C111  C115  A    
C107  C127  A    
C111  H75   S    
C129  H21   S    
Cr12  O12   S    
C120  C124  A    
C77   C157  S    
