data_mof_unit_6259.cif
_audit_creation_date              2013-03-05T15:40:07-0500
_audit_creation_method            fapswitch 2.2
_symmetry_space_group_name_H-M    P1
_symmetry_Int_Tables_number       1
_space_group_crystal_system       triclinic
_cell_length_a                    28.265709
_cell_length_b                    18.49195
_cell_length_c                    17.030127
_cell_angle_alpha                 90.00018
_cell_angle_beta                  60.982687
_cell_angle_gamma                 89.999421
_cell_volume                      7784.07427587

loop_
_atom_site_label
_atom_site_type_symbol
_atom_site_description
_atom_site_fract_x
_atom_site_fract_y
_atom_site_fract_z
_atom_type_partial_charge
O1    O     O_R   0.746490 0.236330 0.638080 -0.629727
O2    O     O_R   0.253510 0.763670 0.361920 -0.630161
O3    O     O_R   0.253510 0.236330 0.361920 -0.631140
O4    O     O_R   0.746490 0.763670 0.638080 -0.648928
O5    O     O_R   0.246490 0.736330 0.638080 -0.631180
O6    O     O_R   0.753510 0.263670 0.361920 -0.648919
O7    O     O_R   0.753510 0.736330 0.361920 -0.629743
O8    O     O_R   0.246490 0.263670 0.638080 -0.630136
O9    O     O_R   0.674170 0.186160 0.516270 -0.636329
O10   O     O_R   0.325830 0.813840 0.483730 -0.639952
O11   O     O_R   0.325830 0.186160 0.483730 -0.635997
O12   O     O_R   0.674170 0.813840 0.516270 -0.637931
O13   O     O_R   0.174170 0.686160 0.516270 -0.636025
O14   O     O_R   0.825830 0.313840 0.483730 -0.637946
O15   O     O_R   0.825830 0.686160 0.483730 -0.636341
O16   O     O_R   0.174170 0.313840 0.516270 -0.639943
O17   O     O_R   0.739960 0.127620 0.525000 -0.628050
O18   O     O_R   0.260040 0.872380 0.475000 -0.625012
O19   O     O_R   0.260040 0.127620 0.475000 -0.623787
O20   O     O_R   0.739960 0.872380 0.525000 -0.620266
O21   O     O_R   0.239960 0.627620 0.525000 -0.623816
O22   O     O_R   0.760040 0.372380 0.475000 -0.620266
O23   O     O_R   0.760040 0.627620 0.475000 -0.628059
O24   O     O_R   0.239960 0.372380 0.525000 -0.625045
O25   O     O_R   0.680700 0.294870 0.629350 -0.619729
O26   O     O_R   0.319300 0.705130 0.370650 -0.632521
O27   O     O_R   0.319300 0.294870 0.370650 -0.632973
O28   O     O_R   0.680700 0.705130 0.629350 -0.633580
O29   O     O_R   0.180700 0.794870 0.629350 -0.632976
O30   O     O_R   0.819300 0.205130 0.370650 -0.633661
O31   O     O_R   0.819300 0.794870 0.370650 -0.619736
O32   O     O_R   0.180700 0.205130 0.629350 -0.632537
C1    C     C_R   0.701990 0.268885 0.675818 0.920876
C2    C     C_R   0.298001 0.731089 0.324181 0.902272
C3    C     C_R   0.298017 0.268864 0.324176 0.900243
C4    C     C_R   0.702045 0.731011 0.675787 0.880805
C5    C     C_R   0.201985 0.768869 0.675822 0.900251
C6    C     C_R   0.797960 0.231023 0.324211 0.880757
C7    C     C_R   0.798009 0.768885 0.324183 0.920847
C8    C     C_R   0.201982 0.231130 0.675825 0.902182
C9    C     C_R   0.696854 0.127974 0.516776 0.903075
C10   C     C_R   0.308447 0.870657 0.465611 0.897107
C11   C     C_R   0.308793 0.129374 0.464696 0.892859
C12   C     C_R   0.691736 0.870985 0.532462 0.894768
C13   C     C_R   0.191207 0.629374 0.535303 0.892801
C14   C     C_R   0.808263 0.370985 0.467539 0.894710
C15   C     C_R   0.803146 0.627974 0.483224 0.903016
C16   C     C_R   0.191553 0.370657 0.534389 0.897010
Zn1   Zn    Zn3+2 0.792340 0.208750 0.507670 0.972287
Zn2   Zn    Zn3+2 0.207660 0.791250 0.492330 0.973579
Zn3   Zn    Zn3+2 0.207660 0.208750 0.492330 0.970111
Zn4   Zn    Zn3+2 0.792340 0.791250 0.507670 0.972370
Zn5   Zn    Zn3+2 0.292340 0.708750 0.507670 0.970098
Zn6   Zn    Zn3+2 0.707660 0.291250 0.492330 0.972374
Zn7   Zn    Zn3+2 0.707660 0.708750 0.492330 0.972409
Zn8   Zn    Zn3+2 0.292340 0.291250 0.507670 0.973558
C17   C     C_R   0.558509 0.998016 0.472228 0.023704
C18   C     C_R   0.469653 0.998764 0.439722 0.023448
C19   C     C_R   0.030347 0.498766 0.560278 0.023427
C20   C     C_R   0.941490 0.498017 0.527776 0.023687
C21   C     C_R   0.545834 0.061592 0.439505 0.049728
C22   C     C_R   0.488953 0.932935 0.455660 0.046738
C23   C     C_R   0.498203 0.063602 0.430837 0.045450
C24   C     C_R   0.529238 0.933814 0.482076 0.044931
C25   C     C_R   0.001796 0.563604 0.569162 0.045444
C26   C     C_R   0.970761 0.433814 0.517929 0.044977
C27   C     C_R   0.954165 0.561594 0.560497 0.049715
C28   C     C_R   0.011047 0.432936 0.544344 0.046744
C29   C     C_R   0.613639 0.935633 0.527770 0.072531
C30   C     C_R   0.397311 0.065312 0.429782 0.066971
C31   C     C_R   0.395814 0.933431 0.434234 0.063771
C32   C     C_R   0.632392 0.061037 0.480031 0.061562
C33   C     C_R   0.104186 0.433433 0.565768 0.063791
C34   C     C_R   0.867606 0.561037 0.519973 0.061549
C35   C     C_R   0.886359 0.435631 0.472236 0.072603
C36   C     C_R   0.102689 0.565313 0.570215 0.066962
C37   C     C_R   0.660336 0.935939 0.540040 -0.127307
C38   C     C_R   0.343445 0.064875 0.441914 -0.125874
C39   C     C_R   0.342875 0.934777 0.443300 -0.124275
C40   C     C_R   0.670588 0.062500 0.512142 -0.113321
C41   C     C_R   0.157126 0.434778 0.556700 -0.124290
C42   C     C_R   0.829411 0.562500 0.487860 -0.113309
C43   C     C_R   0.839662 0.435939 0.459964 -0.127356
C44   C     C_R   0.156555 0.564875 0.558084 -0.125861
C45   C     C_R   0.684165 0.000249 0.540771 -0.295117
C46   C     C_R   0.318628 0.999912 0.444522 -0.290286
C47   C     C_R   0.181373 0.499913 0.555476 -0.290340
C48   C     C_R   0.815834 0.500248 0.459232 -0.295167
H1    H     H_    0.716203 0.000940 0.558532 0.196699
H2    H     H_    0.277852 0.000055 0.453927 0.201106
H3    H     H_    0.222148 0.500055 0.546072 0.201109
H4    H     H_    0.783797 0.500940 0.441469 0.196701
C49   C     C_R   0.601164 0.998386 0.494038 0.073130
C50   C     C_R   0.421049 0.999260 0.433982 0.076325
C51   C     C_R   0.078951 0.499262 0.566017 0.076313
C52   C     C_R   0.898834 0.498385 0.505966 0.073124
C53   C     C_R   0.074998 0.369038 0.574969 -0.164128
C54   C     C_R   0.874884 0.618895 0.567216 -0.173683
C55   C     C_R   0.920512 0.375153 0.453060 -0.159576
C56   C     C_R   0.071305 0.628567 0.586971 -0.171541
C57   C     C_R   0.579486 0.875155 0.546948 -0.159380
C58   C     C_R   0.428696 0.128565 0.413025 -0.171506
C59   C     C_R   0.425002 0.869035 0.425038 -0.164018
C60   C     C_R   0.625115 0.118894 0.432786 -0.173672
C61   C     C_R   0.031436 0.368244 0.558743 -0.205579
C62   C     C_R   0.918240 0.620261 0.584271 -0.204883
C63   C     C_R   0.960816 0.373508 0.477636 -0.206215
C64   C     C_R   0.022255 0.627877 0.585869 -0.195075
C65   C     C_R   0.539183 0.873509 0.522372 -0.206152
C66   C     C_R   0.477745 0.127875 0.414129 -0.195051
C67   C     C_R   0.468563 0.868243 0.441264 -0.205544
C68   C     C_R   0.581759 0.120259 0.415729 -0.204877
H5    H     H_    0.084469 0.318285 0.595232 0.183727
H6    H     H_    0.846788 0.663403 0.593883 0.178725
H7    H     H_    0.917853 0.329085 0.416382 0.178368
H8    H     H_    0.082949 0.679359 0.603709 0.180980
H9    H     H_    0.582145 0.829089 0.583628 0.178506
H10   H     H_    0.417051 0.179358 0.396287 0.180978
H11   H     H_    0.415531 0.818281 0.404776 0.183784
H12   H     H_    0.653209 0.163402 0.406119 0.178734
H13   H     H_    0.012580 0.316722 0.561454 0.154885
H14   H     H_    0.921670 0.667022 0.619090 0.153182
H15   H     H_    0.985666 0.325471 0.460758 0.154912
H16   H     H_    0.002177 0.679262 0.594986 0.153586
H17   H     H_    0.514333 0.825473 0.539252 0.154968
H18   H     H_    0.497821 0.179260 0.405014 0.153588
H19   H     H_    0.487419 0.816720 0.438556 0.154909
H20   H     H_    0.578329 0.167019 0.380908 0.153188
H21   H     H_    0.746634 0.375430 0.953188 0.158998
H22   H     H_    0.253519 0.624293 0.046630 0.159875
H23   H     H_    0.253080 0.376105 0.047102 0.159625
H24   H     H_    0.747303 0.623597 0.952484 0.158820
H25   H     H_    0.246979 0.876173 0.952821 0.159798
H26   H     H_    0.752686 0.123546 0.047495 0.158823
H27   H     H_    0.753285 0.875451 0.046936 0.159029
H28   H     H_    0.246637 0.124226 0.953196 0.159733
C69   C     C_R   0.722559 0.264661 0.950959 0.126541
C70   C     C_R   0.277429 0.735122 0.048998 0.124772
C71   C     C_R   0.277002 0.265277 0.049479 0.125291
C72   C     C_R   0.723174 0.734356 0.950374 0.124586
C73   C     C_R   0.223067 0.765340 0.950450 0.125216
C74   C     C_R   0.776764 0.234318 0.049701 0.124900
C75   C     C_R   0.777407 0.764694 0.049075 0.126530
C76   C     C_R   0.222731 0.235056 0.950794 0.125859
C77   C     C_R   0.724860 0.193680 0.977801 -0.135338
C78   C     C_R   0.274976 0.806099 0.022310 -0.135676
C79   C     C_R   0.274562 0.194299 0.022782 -0.134955
C80   C     C_R   0.725473 0.805326 0.977233 -0.135481
C81   C     C_R   0.225546 0.694359 0.977104 -0.135177
C82   C     C_R   0.774443 0.305296 0.022887 -0.135422
C83   C     C_R   0.775124 0.693721 0.022195 -0.135385
C84   C     C_R   0.225157 0.306032 0.977510 -0.135164
H29   H     H_    0.705231 0.150195 0.961935 0.145122
H30   H     H_    0.294532 0.849640 0.038238 0.145324
H31   H     H_    0.294124 0.150761 0.038705 0.145219
H32   H     H_    0.705819 0.848811 0.961419 0.145308
H33   H     H_    0.205977 0.650816 0.961205 0.145265
H34   H     H_    0.794075 0.348786 0.038741 0.145194
H35   H     H_    0.794778 0.650241 0.038014 0.145121
H36   H     H_    0.205597 0.349568 0.961580 0.145013
C85   C     C_R   0.751537 0.178696 0.027096 -0.097204
C86   C     C_R   0.248228 0.821019 0.973112 -0.091634
C87   C     C_R   0.247863 0.179379 0.973514 -0.090184
C88   C     C_R   0.752158 0.820305 0.026504 -0.093092
C89   C     C_R   0.252286 0.679443 0.026309 -0.090558
C90   C     C_R   0.747774 0.320277 0.973593 -0.092983
C91   C     C_R   0.748433 0.678740 0.972922 -0.097369
C92   C     C_R   0.251857 0.320953 0.026781 -0.091366
C93   C     C_R   0.644666 0.326155 0.947167 0.307284
C94   C     C_R   0.355436 0.673943 0.052763 0.306402
C95   C     C_R   0.354954 0.326745 0.053162 0.305320
C96   C     C_R   0.645133 0.673098 0.946768 0.307434
C97   C     C_R   0.145075 0.826772 0.946818 0.305447
C98   C     C_R   0.854794 0.172999 0.053289 0.307299
C99   C     C_R   0.855309 0.826187 0.052853 0.307329
C100  C     C_R   0.144782 0.173653 0.947063 0.305974
C101  C     C_R   0.617599 0.348088 0.898903 -0.184007
C102  C     C_R   0.382503 0.652049 0.101027 -0.182154
C103  C     C_R   0.382232 0.348322 0.101226 -0.182286
C104  C     C_R   0.617823 0.651588 0.898735 -0.184595
C105  C     C_R   0.117780 0.848331 0.898770 -0.182302
C106  C     C_R   0.882134 0.151529 0.101296 -0.184730
C107  C     C_R   0.882388 0.848103 0.101105 -0.184038
C108  C     C_R   0.117634 0.151863 0.898875 -0.182672
C109  C     C_R   0.634447 0.323716 0.813136 -0.286620
C110  C     C_R   0.365624 0.676396 0.186815 -0.290569
C111  C     C_R   0.365544 0.323683 0.186837 -0.290805
C112  C     C_R   0.634567 0.676141 0.813083 -0.289872
C113  C     C_R   0.134463 0.823686 0.813165 -0.290874
C114  C     C_R   0.865422 0.176130 0.186918 -0.290228
C115  C     C_R   0.865548 0.823720 0.186864 -0.286644
C116  C     C_R   0.134417 0.176350 0.813172 -0.290583
H37   H     H_    0.613693 0.341000 0.776943 0.198752
H38   H     H_    0.386404 0.659176 0.222991 0.196665
H39   H     H_    0.386431 0.340732 0.222903 0.196426
H40   H     H_    0.613631 0.659187 0.777060 0.197553
H41   H     H_    0.113564 0.840717 0.777110 0.196414
H42   H     H_    0.886372 0.159196 0.222927 0.197407
H43   H     H_    0.886309 0.840993 0.223051 0.198747
H44   H     H_    0.113606 0.159171 0.777030 0.196591
C117  C     C_R   0.680034 0.281838 0.770933 -0.055911
C118  C     C_R   0.319965 0.718143 0.229059 -0.051257
C119  C     C_R   0.319930 0.281865 0.229084 -0.050169
C120  C     C_R   0.680248 0.717816 0.770785 -0.043576
C121  C     C_R   0.180084 0.781882 0.770907 -0.050092
C122  C     C_R   0.819752 0.217827 0.229215 -0.043437
C123  C     C_R   0.819960 0.781845 0.229070 -0.055885
C124  C     C_R   0.180027 0.218183 0.770943 -0.051055
C125  C     C_R   0.707967 0.259390 0.816909 -0.240816
C126  C     C_R   0.291978 0.740452 0.183113 -0.238554
C127  C     C_R   0.291882 0.259605 0.183227 -0.239741
C128  C     C_R   0.708411 0.739863 0.816528 -0.251518
C129  C     C_R   0.208151 0.759647 0.816742 -0.239872
C130  C     C_R   0.791586 0.239880 0.183481 -0.251687
C131  C     C_R   0.792020 0.759408 0.183103 -0.240868
C132  C     C_R   0.208011 0.240539 0.816871 -0.239099
H45   H     H_    0.744475 0.227188 0.783263 0.183793
H46   H     H_    0.255409 0.772531 0.216795 0.184357
H47   H     H_    0.255393 0.227366 0.216881 0.183594
H48   H     H_    0.744987 0.771925 0.782798 0.180905
H49   H     H_    0.244646 0.727422 0.783076 0.183527
H50   H     H_    0.755026 0.271975 0.217206 0.180878
H51   H     H_    0.755513 0.727205 0.216750 0.183777
H52   H     H_    0.244520 0.272736 0.783217 0.184273
C133  C     C_R   0.690666 0.282056 0.905032 -0.045377
C134  C     C_R   0.309328 0.717828 0.094953 -0.046310
C135  C     C_R   0.308999 0.282564 0.095272 -0.045375
C136  C     C_R   0.691217 0.717028 0.904542 -0.044194
C137  C     C_R   0.191044 0.782613 0.904691 -0.045301
C138  C     C_R   0.808741 0.216990 0.095502 -0.044017
C139  C     C_R   0.809311 0.782086 0.094989 -0.045368
C140  C     C_R   0.190781 0.217751 0.904929 -0.045680
O33   O     O_R   0.062020 0.072840 0.007170 -0.559092
O34   O     O_R   0.937980 0.927160 0.992830 -0.559405
O35   O     O_R   0.937980 0.072840 0.992830 -0.559555
O36   O     O_R   0.062020 0.927160 0.007170 -0.558847
O37   O     O_R   0.562020 0.572840 0.007170 -0.559587
O38   O     O_R   0.437980 0.427160 0.992830 -0.559022
O39   O     O_R   0.437980 0.572840 0.992830 -0.558798
O40   O     O_R   0.562020 0.427160 0.007170 -0.559471
O41   O     O_R   0.947860 0.073950 0.109290 -0.632867
O42   O     O_R   0.052140 0.926050 0.890710 -0.633169
O43   O     O_R   0.052140 0.073950 0.890710 -0.633100
O44   O     O_R   0.947860 0.926050 0.109290 -0.631907
O45   O     O_R   0.447860 0.573950 0.109290 -0.633120
O46   O     O_R   0.552140 0.426050 0.890710 -0.631926
O47   O     O_R   0.552140 0.573950 0.890710 -0.632599
O48   O     O_R   0.447860 0.426050 0.109290 -0.633146
C141  C     C_R   0.074424 0.099346 0.933915 0.907021
C142  C     C_R   0.925585 0.900642 0.066075 0.907012
C143  C     C_R   0.925502 0.099251 0.066147 0.906473
C144  C     C_R   0.074486 0.900730 0.933861 0.907424
C145  C     C_R   0.574475 0.599281 0.933873 0.906547
C146  C     C_R   0.425516 0.400730 0.066138 0.907346
C147  C     C_R   0.425654 0.599444 0.066017 0.907100
C148  C     C_R   0.574410 0.400636 0.933929 0.906920
Zn9   Zn    Zn3+2 0.505960 0.500000 0.080520 1.091732
Zn10  Zn    Zn3+2 0.494040 0.500000 0.919480 1.095864
Zn11  Zn    Zn3+2 0.005960 1.000000 0.080520 1.095329
Zn12  Zn    Zn3+2 0.994040 0.000000 0.919480 1.091572
N1    N     N_R   0.625749 0.347649 0.038559 0.207445
O49   O     O_R   0.602780 0.300258 0.102586 -0.398405
O50   O     O_R   0.639615 0.410222 0.055984 -0.355611
N2    N     N_R   0.374568 0.652776 0.961218 0.207710
O51   O     O_R   0.360414 0.590630 0.943217 -0.354946
O52   O     O_R   0.398940 0.699900 0.897213 -0.392668
N3    N     N_R   0.373589 0.348727 0.962014 0.207658
O53   O     O_R   0.396175 0.301565 0.897617 -0.386504
O54   O     O_R   0.359829 0.411627 0.945247 -0.354739
N4    N     N_R   0.626356 0.651375 0.038035 0.207929
O55   O     O_R   0.640251 0.588706 0.055172 -0.355401
O56   O     O_R   0.603198 0.698534 0.102328 -0.392934
N5    N     N_R   0.126435 0.848736 0.037972 0.207666
O57   O     O_R   0.103846 0.801563 0.102353 -0.386533
O58   O     O_R   0.140200 0.911623 0.054759 -0.353955
N6    N     N_R   0.873477 0.151121 0.962096 0.207804
O59   O     O_R   0.859704 0.088282 0.945199 -0.355068
O60   O     O_R   0.896160 0.198322 0.897767 -0.393068
N7    N     N_R   0.874209 0.847706 0.961477 0.207456
O61   O     O_R   0.897172 0.800332 0.897427 -0.398427
O62   O     O_R   0.860329 0.910283 0.944092 -0.355324
N8    N     N_R   0.125944 0.152022 0.038387 0.207373
O63   O     O_R   0.139760 0.089342 0.055630 -0.354007
O64   O     O_R   0.103109 0.199362 0.102513 -0.392995

loop_
_geom_bond_atom_site_label_1
_geom_bond_atom_site_label_2
_geom_bond_distance
_ccdc_geom_bond_type
C18   C22   1.413060 A    
O21   Zn5   2.026337 S    
C8    C124  1.446081 S    
O43   C141  1.268182 A    
O5    C5    1.254272 A    
N3    O54   1.301319 A    
O10   C10   1.260012 A    
C126  C134  1.398339 A    
H27   C88   1.082938 S    
O39   Zn10  1.991283 S    
C29   C37   1.432992 A    
O41   C143  1.268300 A    
H24   C91   1.082933 S    
C63   H15   1.081283 S    
O31   Zn4   2.074885 S    
C95   C103  1.426881 A    
H25   C86   1.082907 S    
O16   C16   1.260022 A    
C9    C40   1.442280 S    
C31   C39   1.428088 A    
O42   C144  1.268279 A    
O1    C1    1.254300 A    
O14   C14   1.253819 A    
C31   C50   1.409839 A    
C11   C38   1.470970 S    
C33   C53   1.413444 A    
O45   C147  1.268094 A    
O30   C6    1.296674 A    
N8    O63   1.301323 A    
O11   Zn8   2.112899 S    
O44   C142  1.268202 A    
H21   C90   1.082955 S    
O38   C146  1.222670 A    
C70   C89   1.407435 A    
C131  C139  1.398221 A    
C75   C83   1.401724 A    
O7    C7    1.254303 A    
O37   C145  1.222624 A    
C12   C37   1.461493 S    
C30   C50   1.412001 A    
C99   N7    1.434856 S    
C29   C49   1.413316 A    
O18   C10   1.298629 A    
C36   C51   1.412000 A    
C55   H7    1.080302 S    
N1    O49   1.300645 A    
O48   C146  1.268230 A    
C84   H36   1.083000 S    
C74   C138  1.487238 S    
O14   Zn1   2.112919 S    
C103  C111  1.374239 A    
C26   C28   1.412873 A    
C73   C137  1.487575 S    
C82   C90   1.401311 A    
C111  C119  1.370410 A    
C18   C23   1.411821 A    
O33   Zn11  1.991310 S    
C101  C109  1.374226 A    
C16   C41   1.462366 S    
C110  C118  1.370525 A    
C59   C67   1.386632 A    
C15   C42   1.442275 S    
C33   C41   1.428084 A    
C21   C23   1.424260 A    
O10   Zn5   2.112919 S    
C100  N8    1.434901 S    
C22   C24   1.412878 A    
C130  H50   1.083610 S    
C37   C45   1.369730 A    
C84   C92   1.401459 A    
C103  C146  1.443560 S    
C105  C113  1.374219 A    
O26   C2    1.296669 A    
C98   N6    1.434854 S    
C22   C67   1.400158 A    
C48   H4    1.085119 S    
C20   C27   1.419426 A    
C113  C121  1.370386 A    
O35   Zn12  1.991283 S    
C25   C27   1.424259 A    
C7    C123  1.446057 S    
C69   C133  1.487273 S    
N7    O61   1.300630 A    
C108  C116  1.374279 A    
C23   C66   1.409817 A    
C95   N3    1.434922 S    
C71   C135  1.487481 S    
O15   C15   1.254697 A    
O40   Zn9   1.991285 S    
C79   H31   1.083002 S    
C123  C131  1.417205 A    
O36   C144  1.222652 A    
C25   C64   1.409814 A    
C58   H10   1.078346 S    
C114  H42   1.084919 S    
C77   H29   1.083008 S    
C96   C104  1.426838 A    
C72   C91   1.407420 A    
C116  H44   1.084907 S    
C43   C48   1.369724 A    
C57   C65   1.391551 A    
C121  C129  1.417238 A    
C73   C86   1.407540 A    
C124  C132  1.417237 A    
C128  C136  1.398015 A    
C127  C135  1.398190 A    
O4    C4    1.254074 A    
C65   H17   1.081282 S    
C14   C43   1.461500 S    
O8    Zn8   2.019843 S    
C116  C124  1.370474 A    
C119  C127  1.417234 A    
O44   Zn11  2.006603 S    
C19   C51   1.423848 A    
C55   C63   1.391554 A    
C118  C126  1.417315 A    
C117  C125  1.417205 A    
C69   C90   1.407401 A    
O20   C12   1.306419 A    
O28   Zn7   2.074885 S    
O19   C11   1.302394 A    
C35   C52   1.413319 A    
O4    Zn4   2.019843 S    
O21   C13   1.302392 A    
O29   Zn2   2.074884 S    
O7    Zn7   2.019843 S    
C132  C140  1.398250 A    
C36   C44   1.433805 A    
C56   C64   1.395693 A    
C72   C136  1.487228 S    
C47   H3    1.083952 S    
O33   C141  1.222785 A    
C80   C88   1.401342 A    
N4    O56   1.300955 A    
C34   C52   1.404994 A    
C61   H13   1.081697 S    
C74   C85   1.407456 A    
O23   C15   1.292193 A    
O25   Zn6   2.074884 S    
C105  C144  1.443619 S    
C34   C54   1.412402 A    
C46   H2    1.083951 S    
O17   Zn1   2.026337 S    
N1    O50   1.301299 A    
O3    Zn3   2.019843 S    
O27   Zn8   2.074885 S    
N2    O51   1.301435 A    
O34   C142  1.222777 A    
C32   C60   1.412402 A    
O27   C3    1.296711 A    
C93   N1    1.434892 S    
C112  C120  1.370306 A    
O13   Zn2   2.112919 S    
C107  C115  1.374223 A    
O24   C16   1.298626 A    
O34   Zn12  1.991311 S    
C106  C143  1.443471 S    
C132  H52   1.083572 S    
O32   Zn3   2.074885 S    
C6    C122  1.445492 S    
C40   C45   1.375376 A    
O46   Zn10  2.006578 S    
C4    C120  1.445506 S    
C19   C28   1.413063 A    
C77   C85   1.401501 A    
C78   C86   1.401523 A    
C80   H32   1.083004 S    
C69   C77   1.401738 A    
C128  H48   1.083610 S    
C78   H30   1.082993 S    
N2    O52   1.301383 A    
O3    C3    1.254305 A    
O38   Zn10  1.991311 S    
C115  H43   1.084894 S    
C71   C79   1.401648 A    
C110  H38   1.084904 S    
C120  C128  1.417161 A    
C35   C55   1.408354 A    
N5    O57   1.300624 A    
N6    O60   1.300641 A    
C81   C89   1.401448 A    
C26   C63   1.407364 A    
C115  C123  1.370457 A    
O15   Zn4   2.112899 S    
O11   C11   1.261396 A    
C98   C138  1.401859 A    
C112  H40   1.084919 S    
O40   C148  1.222784 A    
C41   C47   1.380968 A    
C104  C112  1.374078 A    
C97   C137  1.401952 A    
C66   H18   1.078693 S    
C20   C26   1.409807 A    
C98   C106  1.426917 A    
C32   C49   1.404999 A    
O47   C145  1.268277 A    
C129  C137  1.398166 A    
C96   N4    1.434784 S    
O22   C14   1.306417 A    
O30   Zn1   2.074884 S    
C94   C102  1.426489 A    
H23   C92   1.082910 S    
O6    Zn6   2.019833 S    
C45   H1    1.085119 S    
O22   Zn6   2.026337 S    
C93   C101  1.426699 A    
C76   C87   1.407483 A    
O37   Zn9   1.991310 S    
C97   N5    1.434878 S    
C58   C66   1.395692 A    
C13   C44   1.470971 S    
O24   Zn8   2.026313 S    
C28   C61   1.400157 A    
C33   C51   1.409836 A    
C53   H5    1.077592 S    
C130  C138  1.397988 A    
O26   Zn5   2.074884 S    
C20   C52   1.423423 A    
C75   C88   1.407387 A    
C35   C43   1.433000 A    
O47   Zn10  2.006602 S    
O8    C8    1.254364 A    
O18   Zn2   2.026337 S    
C17   C24   1.409808 A    
C60   C68   1.390026 A    
C34   C42   1.427634 A    
C30   C38   1.433798 A    
C113  H41   1.084917 S    
O2    Zn2   2.019833 S    
C100  C108  1.426748 A    
C101  C148  1.443563 S    
C31   C59   1.413447 A    
O16   Zn3   2.112899 S    
O39   C147  1.222949 A    
O45   Zn9   2.006577 S    
O41   Zn11  2.006577 S    
C111  H39   1.084918 S    
O2    C2    1.254355 A    
C99   C107  1.426733 A    
C5    C121  1.445946 S    
C53   C61   1.386631 A    
C3    C119  1.445983 S    
C59   H11   1.077593 S    
C44   C47   1.380902 A    
C94   N2    1.434666 S    
C95   C135  1.401909 A    
C99   C139  1.401898 A    
C131  H51   1.083577 S    
C10   C39   1.462374 S    
C72   C80   1.401643 A    
C104  C145  1.443486 S    
C30   C58   1.411006 A    
C27   C62   1.404670 A    
C17   C21   1.419421 A    
C82   H34   1.083021 S    
C102  C147  1.443560 S    
O35   C143  1.222563 A    
C29   C57   1.408352 A    
C36   C56   1.411000 A    
C127  H47   1.083576 S    
C62   H14   1.079125 S    
C67   H19   1.081697 S    
O9    C9    1.254691 A    
C54   C62   1.390022 A    
H26   C85   1.082945 S    
C17   C49   1.423425 A    
C83   H35   1.082992 S    
O20   Zn4   2.026313 S    
N3    O53   1.300634 A    
C129  H49   1.083578 S    
C56   H8    1.078327 S    
C74   C82   1.401662 A    
N8    O64   1.300666 A    
C94   C134  1.401731 A    
C114  C122  1.370279 A    
O5    Zn5   2.019833 S    
C107  C142  1.443601 S    
C57   H9    1.080304 S    
C125  C133  1.398231 A    
C79   C87   1.401416 A    
C108  C141  1.443580 S    
N7    O62   1.301275 A    
O13   C13   1.261387 A    
O36   Zn11  1.991285 S    
H22   C89   1.082926 S    
C122  C130  1.417138 A    
C24   C65   1.407363 A    
C73   C81   1.401669 A    
O46   C148  1.268181 A    
C70   C78   1.401651 A    
C83   C91   1.401512 A    
C96   C136  1.401811 A    
O23   Zn7   2.026313 S    
C1    C117  1.446064 S    
N5    O58   1.301295 A    
O31   C7    1.296658 A    
C64   H16   1.078688 S    
C70   C134  1.487389 S    
C93   C133  1.401883 A    
O43   Zn12  2.006602 S    
O32   C8    1.296686 A    
C18   C50   1.423851 A    
C71   C92   1.407527 A    
O17   C9    1.292192 A    
C76   C140  1.487414 S    
C68   H20   1.079126 S    
O12   Zn7   2.112899 S    
C54   H6    1.079076 S    
O12   C12   1.253830 A    
C97   C105  1.426948 A    
O48   Zn9   2.006603 S    
C102  C110  1.374256 A    
O19   Zn3   2.026313 S    
C2    C118  1.446108 S    
N6    O59   1.301294 A    
O28   C4    1.296671 A    
C32   C40   1.427639 A    
C38   C46   1.380907 A    
O29   C5    1.296709 A    
O42   Zn12  2.006578 S    
C81   H33   1.082998 S    
C42   C48   1.375376 A    
N4    O55   1.301381 A    
C109  C117  1.370456 A    
C109  H37   1.084896 S    
O9    Zn6   2.112919 S    
C106  C114  1.374081 A    
C75   C139  1.487302 S    
O6    C6    1.254060 A    
C21   C68   1.404673 A    
O1    Zn1   2.019833 S    
C39   C46   1.380967 A    
C19   C25   1.411819 A    
C126  H46   1.083570 S    
C76   C84   1.401647 A    
O25   C1    1.296651 A    
C125  H45   1.083578 S    
C60   H12   1.079074 S    
H28   C87   1.082920 S    
C100  C140  1.401875 A    
