data_mof_unit_29389.cif
_audit_creation_date              2012-10-26T19:46:32-0400
_audit_creation_method            fapswitch 2.2
_symmetry_space_group_name_H-M    P1
_symmetry_Int_Tables_number       1
_space_group_crystal_system       triclinic
_cell_length_a                    10.839092
_cell_length_b                    9.640548
_cell_length_c                    15.194558
_cell_angle_alpha                 89.790987
_cell_angle_beta                  93.600396
_cell_angle_gamma                 90.039192
_cell_volume                      1584.60763368

loop_
_atom_site_label
_atom_site_type_symbol
_atom_type_description
_atom_site_fract_x
_atom_site_fract_y
_atom_site_fract_z
_atom_type_partial_charge
C1    C     C_R   0.262426 0.500001 0.500260 0.532354
C2    C     C_R   0.936379 0.626159 0.501686 -0.148916
C3    C     C_R   0.935967 0.374385 0.498876 -0.153958
C4    C     C_R   0.064154 0.626108 0.502232 -0.149486
C5    C     C_R   0.407263 0.543763 0.085524 0.207177
C6    C     C_R   0.405934 0.392659 0.898240 0.243293
C7    C     C_R   0.591508 0.536219 0.914532 0.256047
C8    C     C_R   0.584282 0.388385 0.101010 0.233922
C9    C     C_R   0.412036 0.564750 0.177425 -0.033100
C10   C     C_R   0.402309 0.409965 0.805995 0.010401
C11   C     C_R   0.586709 0.560052 0.822733 -0.041089
C12   C     C_R   0.737592 0.500063 0.499922 0.530431
C13   C     C_R   0.593742 0.409617 0.193717 -0.025731
C14   C     C_R   0.504212 0.495320 0.232469 -0.026058
C15   C     C_R   0.493792 0.493312 0.767321 -0.038343
C16   C     C_R   0.495563 0.461041 0.048527 0.116842
C17   C     C_R   0.499097 0.458701 0.951783 0.140488
C18   C     C_R   0.871656 0.500232 0.500174 0.009932
C19   C     C_R   0.128373 0.500169 0.500097 0.010791
C20   C     C_3   0.319604 0.663630 0.214137 -0.242369
C21   C     C_3   0.214388 0.583851 0.254636 -0.316789
C22   C     C_3   0.103774 0.676993 0.269246 -0.445222
C23   C     C_R   0.500494 0.499824 0.329881 0.530185
C24   C     C_3   0.297929 0.336772 0.752152 -0.206735
C25   C     C_3   0.173059 0.409443 0.759658 -0.286795
C26   C     C_3   0.066561 0.312518 0.730943 -0.432820
C27   C     C_3   0.678697 0.661033 0.786917 -0.245191
C28   C     C_3   0.785571 0.584609 0.746558 -0.317127
C29   C     C_3   0.895193 0.680809 0.734185 -0.446105
C30   C     C_3   0.701918 0.344925 0.249024 -0.244996
C31   C     C_3   0.827725 0.401430 0.223718 -0.307296
C32   C     C_3   0.932169 0.303829 0.255489 -0.442384
C33   C     C_R   0.498034 0.499219 0.670027 0.533980
C34   C     C_R   0.405480 0.073932 0.457743 0.360561
C35   C     C_R   0.595362 0.927155 0.541125 0.357519
C36   C     C_R   0.594457 0.073602 0.542346 0.361119
C37   C     C_R   0.404609 0.927504 0.458951 0.356231
C38   C     C_R   0.063564 0.374404 0.497783 -0.153574
Cu1   Cu    Cu3+1 0.500000 0.640660 0.500000 0.937577
Cu2   Cu    Cu3+1 0.500000 0.359340 0.500000 0.922938
H1    H     H_    0.111176 0.275851 0.495899 0.176087
H2    H     H_    0.339914 0.288666 0.996236 0.329093
H3    H     H_    0.763613 0.579936 0.942760 0.326503
H4    H     H_    0.696104 0.229126 0.099652 0.329157
H5    H     H_    0.132004 0.768583 0.309461 0.209454
H6    H     H_    0.060569 0.712752 0.204923 0.157611
H7    H     H_    0.034142 0.617784 0.304489 0.153898
H8    H     H_    0.182868 0.498773 0.209533 0.157038
H9    H     H_    0.247913 0.536805 0.318322 0.175589
H10   H     H_    0.368020 0.734958 0.260775 0.167129
H11   H     H_    0.280294 0.735572 0.162531 0.180281
H12   H     H_    0.888690 0.724716 0.502888 0.180283
H13   H     H_    0.082014 0.265260 0.666135 0.165253
H14   H     H_    0.058630 0.228291 0.780347 0.180107
H15   H     H_    0.978419 0.370818 0.725218 0.150739
H16   H     H_    0.160645 0.443363 0.828335 0.223667
H17   H     H_    0.169678 0.503188 0.716751 0.152260
H18   H     H_    0.312408 0.328863 0.681261 0.169756
H19   H     H_    0.292913 0.227524 0.775534 0.190365
H20   H     H_    0.866200 0.773678 0.695040 0.210271
H21   H     H_    0.936696 0.714522 0.799318 0.160102
H22   H     H_    0.966622 0.625189 0.698889 0.151254
H23   H     H_    0.887948 0.275800 0.497769 0.175292
H24   H     H_    0.817597 0.497968 0.790711 0.164415
H25   H     H_    0.753540 0.539948 0.682023 0.175546
H26   H     H_    0.630294 0.732998 0.740289 0.169069
H27   H     H_    0.716315 0.732231 0.839266 0.179299
H28   H     H_    0.930064 0.284575 0.327290 0.170767
H29   H     H_    0.922980 0.203270 0.220232 0.165116
H30   H     H_    0.022531 0.350236 0.242018 0.151110
H31   H     H_    0.831538 0.415291 0.151440 0.220346
H32   H     H_    0.843059 0.504944 0.254422 0.162161
H33   H     H_    0.698999 0.364933 0.320312 0.184103
H34   H     H_    0.112254 0.724633 0.503963 0.178798
H35   H     H_    0.697190 0.230225 0.242778 0.138481
H36   H     H_    0.341097 0.222730 0.384274 0.358713
H37   H     H_    0.664808 0.775552 0.607068 0.355531
H38   H     H_    0.658357 0.221730 0.615908 0.359987
H39   H     H_    0.335233 0.776488 0.393288 0.355395
H40   H     H_    0.236723 0.590922 0.055438 0.325563
N1    N     N_R   0.500000 0.852070 0.500000 -0.310270
N2    N     N_R   0.500000 0.147930 0.500000 -0.313941
O1    O     O_R   0.319640 0.618740 0.499990 -0.502665
O2    O     O_3   0.694286 0.864204 0.585135 -0.685442
O3    O     O_3   0.690841 0.137522 0.589366 -0.662689
O4    O     O_3   0.305683 0.864929 0.414984 -0.685379
O5    O     O_3   0.317437 0.604150 0.029338 -0.697814
O6    O     O_3   0.316904 0.309588 0.933576 -0.706878
O7    O     O_3   0.684054 0.591429 0.970630 -0.687530
O8    O     O_3   0.660961 0.299787 0.058155 -0.701461
O9    O     O_R   0.680360 0.381260 0.500010 -0.504123
O10   O     O_R   0.680360 0.618740 0.500010 -0.501758
O11   O     O_R   0.319640 0.381260 0.499990 -0.504762
O12   O     O_R   0.499990 0.618780 0.371460 -0.517519
O13   O     O_R   0.500010 0.381220 0.628540 -0.534627
O14   O     O_R   0.500010 0.618780 0.628540 -0.517579
O15   O     O_R   0.499990 0.381220 0.371460 -0.532977
O16   O     O_3   0.308852 0.138170 0.410944 -0.665878

loop_
_geom_bond_atom_site_label_1
_geom_bond_atom_site_label_2
_ccdc_geom_bond_type
C26   H13   S    
C8    C13   A    
C2    C18   A    
C34   C37   A    
C12   O9    A    
C35   C36   A    
C25   H16   S    
Cu2   O11   S    
C26   H15   S    
C21   H9    S    
C35   N1    A    
C7    C11   A    
H3    O7    S    
C1    O1    A    
C28   C29   S    
H40   O5    S    
C10   C15   A    
C30   C31   S    
H36   O16   S    
C7    O7    S    
C26   H14   S    
C6    O6    S    
C3    C18   A    
C5    C16   A    
C20   H10   S    
C4    C19   A    
C11   C15   A    
C3    C38   A    
C36   N2    A    
C16   C17   S    
C7    C17   A    
C4    H34   S    
C32   H28   S    
C21   H8    S    
C31   H31   S    
C22   H7    S    
C8    C16   A    
C13   C14   A    
C37   N1    A    
C25   H17   S    
C33   O13   A    
C29   H21   S    
C1    C19   S    
Cu2   N2    S    
C37   O4    S    
C24   C25   S    
Cu1   N1    S    
C38   H1    S    
Cu2   O15   S    
C30   H33   S    
C32   H30   S    
H37   O2    S    
C10   C24   S    
C25   C26   S    
C14   C23   S    
C2    C4    A    
C9    C14   A    
Cu1   O12   S    
C5    C9    A    
C19   C38   A    
C13   C30   S    
C9    C20   S    
C31   C32   S    
C29   H20   S    
C11   C27   S    
C2    H12   S    
C28   H24   S    
H38   O3    S    
C24   H18   S    
C31   H32   S    
C22   H6    S    
C8    O8    S    
Cu2   O13   S    
C33   O14   A    
Cu1   O10   S    
Cu1   Cu2   S    
H4    O8    S    
C6    C17   A    
C29   H22   S    
C23   O15   A    
C12   O10   A    
C6    C10   A    
C35   O2    S    
C32   H29   S    
C3    H23   S    
C36   O3    S    
C20   H11   S    
C23   O12   A    
C28   H25   S    
Cu1   O1    S    
C27   H26   S    
C30   H35   S    
C24   H19   S    
C34   O16   S    
Cu2   O9    S    
Cu1   O14   S    
C27   H27   S    
C5    O5    S    
C22   H5    S    
H2    O6    S    
C20   C21   S    
C1    O11   A    
C12   C18   S    
C27   C28   S    
C34   N2    A    
C21   C22   S    
C15   C33   S    
H39   O4    S    
