data_mof_unit_45497.cif
_audit_creation_date              2012-10-26T17:11:02-0400
_audit_creation_method            fapswitch 2.2
_symmetry_space_group_name_H-M    P1
_symmetry_Int_Tables_number       1
_space_group_crystal_system       triclinic
_cell_length_a                    27.768738
_cell_length_b                    18.740734
_cell_length_c                    16.803607
_cell_angle_alpha                 90.036827
_cell_angle_beta                  62.584787
_cell_angle_gamma                 89.777292
_cell_volume                      7762.52869829

loop_
_atom_site_label
_atom_site_type_symbol
_atom_type_description
_atom_site_fract_x
_atom_site_fract_y
_atom_site_fract_z
_atom_type_partial_charge
C1    C     C_R   0.296938 0.732717 0.328132 0.551665
C2    C     C_R   0.472766 0.120266 0.423954 -0.142079
C3    C     C_R   0.927537 0.098981 0.065777 0.551792
C4    C     C_R   0.427772 0.401187 0.065297 0.561056
C5    C     C_R   0.572313 0.599269 0.934256 0.550458
C6    C     C_R   0.572711 0.401451 0.933578 0.557532
C7    C     C_R   0.427537 0.598981 0.065777 0.551792
C8    C     C_R   0.049443 0.498656 0.505158 0.034205
C9    C     C_R   0.951996 0.501988 0.489859 0.033408
C10   C     C_R   0.549443 0.998656 0.505158 0.034205
C11   C     C_R   0.451996 0.001988 0.489859 0.033408
C12   C     C_R   0.037695 0.558184 0.464711 0.010242
C13   C     C_R   0.423832 0.889366 0.568485 -0.145270
C14   C     C_R   0.963742 0.442649 0.530435 0.009710
C15   C     C_R   0.988157 0.560589 0.458654 0.009618
C16   C     C_R   0.013533 0.439858 0.535207 0.010725
C17   C     C_R   0.537695 0.058183 0.464711 0.010242
C18   C     C_R   0.463742 0.942649 0.530435 0.009710
C19   C     C_R   0.488157 0.060589 0.458654 0.009618
C20   C     C_R   0.513533 0.939858 0.535207 0.010725
C21   C     C_R   0.113363 0.435896 0.545200 -0.009774
C22   C     C_R   0.887785 0.564333 0.450494 -0.007486
C23   C     C_R   0.869198 0.442665 0.505007 -0.011687
C24   C     C_R   0.577285 0.112024 0.428563 -0.145554
C25   C     C_R   0.131693 0.557893 0.492375 -0.010775
C26   C     C_R   0.613363 0.935896 0.545200 -0.009774
C27   C     C_R   0.387785 0.064333 0.450494 -0.007486
C28   C     C_R   0.369198 0.942665 0.505007 -0.011687
C29   C     C_R   0.631693 0.057893 0.492376 -0.010775
C30   C     C_R   0.163828 0.434535 0.547855 -0.031191
C31   C     C_R   0.836871 0.565624 0.449887 -0.032037
C32   C     C_R   0.828188 0.437970 0.476337 -0.019418
C33   C     C_R   0.172622 0.562130 0.521370 -0.020256
C34   C     C_R   0.663828 0.934535 0.547855 -0.031191
C35   C     C_R   0.029397 0.379305 0.567330 -0.147195
C36   C     C_R   0.336871 0.065624 0.449887 -0.032037
C37   C     C_R   0.328188 0.937970 0.476337 -0.019418
C38   C     C_R   0.672622 0.062130 0.521370 -0.020255
C39   C     C_R   0.187501 0.499605 0.553198 -0.038071
C40   C     C_R   0.813811 0.500341 0.443621 -0.036802
C41   C     C_R   0.687501 0.999605 0.553198 -0.038071
C42   C     C_R   0.313811 0.000341 0.443621 -0.036802
C43   C     C_R   0.097818 0.497732 0.515215 0.028806
C44   C     C_R   0.903355 0.502767 0.480848 0.028854
C45   C     C_R   0.597818 0.997732 0.515215 0.028806
C46   C     C_R   0.972766 0.620266 0.423954 -0.142079
C47   C     C_R   0.403355 0.002767 0.480848 0.028854
C48   C     C_R   0.578051 0.877454 0.571777 -0.131554
C49   C     C_R   0.423710 0.122081 0.420370 -0.123119
C50   C     C_R   0.377644 0.889623 0.556372 -0.120966
C51   C     C_R   0.623208 0.111488 0.441577 -0.122028
C52   C     C_R   0.078051 0.377454 0.571777 -0.131554
C53   C     C_R   0.923710 0.622081 0.420370 -0.123119
C54   C     C_R   0.877644 0.389623 0.556372 -0.120967
C55   C     C_R   0.123208 0.611488 0.441577 -0.122027
C56   C     C_3   0.219667 0.502757 0.607677 -0.200814
C57   C     C_R   0.923832 0.389366 0.568485 -0.145270
C58   C     C_3   0.282652 0.501293 0.551446 -0.233911
C59   C     C_3   0.311403 0.545643 0.593160 -0.460836
C60   C     C_3   0.786075 0.497143 0.382769 -0.205636
C61   C     C_3   0.723116 0.499240 0.431579 -0.237958
C62   C     C_3   0.699918 0.545133 0.382104 -0.463899
C63   C     C_3   0.719667 0.002757 0.607677 -0.200814
C64   C     C_3   0.782652 0.001293 0.551446 -0.233911
C65   C     C_3   0.811403 0.045643 0.593159 -0.460837
C66   C     C_3   0.286074 0.997143 0.382769 -0.205636
C67   C     C_3   0.223116 0.999240 0.431579 -0.237958
C68   C     C_R   0.077285 0.612024 0.428563 -0.145554
C69   C     C_3   0.199918 0.045133 0.382104 -0.463900
C70   C     C_3   0.079166 0.798020 0.788501 -0.210639
C71   C     C_3   0.074674 0.852755 0.723174 -0.241497
C72   C     C_3   0.015702 0.866303 0.743941 -0.455663
C73   C     C_3   0.917982 0.205109 0.210368 -0.230916
C74   C     C_3   0.924423 0.284800 0.225962 -0.306060
C75   C     C_3   0.969323 0.296168 0.253029 -0.447646
C76   C     C_3   0.913451 0.786204 0.203772 -0.217365
C77   C     C_3   0.928774 0.832300 0.265131 -0.247639
C78   C     C_3   0.989988 0.832789 0.233102 -0.458949
C79   C     C_R   0.217162 0.757556 0.953132 0.032919
C80   C     C_3   0.079534 0.206473 0.791221 -0.234610
C81   C     C_3   0.069995 0.286825 0.785560 -0.314228
C82   C     C_3   0.016284 0.300986 0.783689 -0.466948
C83   C     C_3   0.579167 0.298020 0.788501 -0.210639
C84   C     C_3   0.574674 0.352755 0.723174 -0.241497
C85   C     C_3   0.515702 0.366303 0.743941 -0.455663
C86   C     C_3   0.417982 0.705110 0.210368 -0.230916
C87   C     C_3   0.424423 0.784800 0.225962 -0.306062
C88   C     C_3   0.469325 0.796168 0.253025 -0.447647
C89   C     C_3   0.413451 0.286204 0.203772 -0.217365
C90   C     C_R   0.777192 0.226157 0.045542 0.031989
C91   C     C_3   0.428774 0.332300 0.265131 -0.247639
C92   C     C_3   0.489988 0.332789 0.233102 -0.458948
C93   C     C_3   0.579534 0.706472 0.791221 -0.234610
C94   C     C_3   0.569995 0.786825 0.785560 -0.314228
C95   C     C_3   0.516284 0.800986 0.783689 -0.466948
C96   C     C_3   0.223087 0.666483 0.803222 -0.244782
C97   C     C_3   0.185396 0.610137 0.868668 -0.302347
C98   C     C_3   0.212186 0.536607 0.851883 -0.467571
C99   C     C_3   0.756266 0.311193 0.208291 -0.219152
C100  C     C_3   0.695275 0.293248 0.258122 -0.265774
C101  C     C_R   0.769152 0.792860 0.054195 0.029409
C102  C     C_3   0.662615 0.350003 0.327497 -0.446114
C103  C     C_3   0.715449 0.792088 0.252476 -0.215589
C104  C     C_3   0.695421 0.715843 0.251858 -0.275480
C105  C     C_3   0.638324 0.704943 0.328072 -0.453270
C106  C     C_3   0.237051 0.320810 0.792202 -0.227168
C107  C     C_3   0.296981 0.300096 0.757747 -0.265109
C108  C     C_3   0.334092 0.362653 0.710027 -0.455812
C109  C     C_3   0.723086 0.166483 0.803222 -0.244782
C110  C     C_3   0.685395 0.110137 0.868668 -0.302347
C111  C     C_3   0.712185 0.036607 0.851884 -0.467572
C112  C     C_R   0.701402 0.264058 0.671697 0.560150
C113  C     C_R   0.210586 0.248812 0.964212 0.029277
C114  C     C_3   0.256266 0.811193 0.208291 -0.219152
C115  C     C_3   0.195275 0.793248 0.258122 -0.265774
C116  C     C_3   0.162615 0.850003 0.327497 -0.446115
C117  C     C_3   0.215449 0.292088 0.252476 -0.215589
C118  C     C_3   0.195421 0.215843 0.251857 -0.275480
C119  C     C_3   0.138324 0.204943 0.328072 -0.453270
C120  C     C_3   0.737051 0.820810 0.792202 -0.227168
C121  C     C_3   0.796981 0.800095 0.757747 -0.265109
C122  C     C_3   0.834092 0.862653 0.710027 -0.455812
C123  C     C_R   0.717162 0.257556 0.953132 0.032919
C124  C     C_R   0.277192 0.726157 0.045542 0.031989
C125  C     C_R   0.269152 0.292860 0.054195 0.029409
C126  C     C_R   0.710586 0.748812 0.964212 0.029277
C127  C     C_R   0.271891 0.777356 0.917012 -0.118099
C128  C     C_R   0.723375 0.203139 0.079103 -0.118122
C129  C     C_R   0.729802 0.838020 0.050700 -0.123249
C130  C     C_R   0.249727 0.203639 0.968249 -0.134076
C131  C     C_R   0.771891 0.277357 0.917012 -0.118100
C132  C     C_R   0.702179 0.734280 0.672034 0.553820
C133  C     C_R   0.223375 0.703139 0.079104 -0.118121
C134  C     C_R   0.229802 0.338020 0.050700 -0.123249
C135  C     C_R   0.749727 0.703639 0.968249 -0.134076
C136  C     C_R   0.301637 0.762249 0.963315 -0.127236
C137  C     C_R   0.692884 0.221222 0.035119 -0.132568
C138  C     C_R   0.699894 0.815480 0.007430 -0.121926
C139  C     C_R   0.278947 0.225651 0.012737 -0.130237
C140  C     C_R   0.801637 0.262249 0.963315 -0.127236
C141  C     C_R   0.192884 0.721222 0.035119 -0.132569
C142  C     C_R   0.199894 0.315480 0.007430 -0.121926
C143  C     C_R   0.293819 0.274172 0.330185 0.557017
C144  C     C_R   0.778947 0.725651 0.012737 -0.130238
C145  C     C_R   0.146917 0.829373 0.937163 -0.157716
C146  C     C_R   0.851182 0.164675 0.061426 -0.151956
C147  C     C_R   0.849814 0.842289 0.060045 -0.152420
C148  C     C_R   0.144076 0.174084 0.942718 -0.152803
C149  C     C_R   0.646918 0.329373 0.937163 -0.157716
C150  C     C_R   0.351182 0.664674 0.061426 -0.151956
C151  C     C_R   0.349814 0.342289 0.060045 -0.152420
C152  C     C_R   0.644076 0.674084 0.942718 -0.152803
C153  C     C_R   0.114844 0.845632 0.894755 -0.019162
C154  C     C_R   0.796938 0.232717 0.328132 0.551665
C155  C     C_R   0.884591 0.154114 0.102775 -0.017022
C156  C     C_R   0.882401 0.850847 0.103083 -0.016884
C157  C     C_R   0.113693 0.156602 0.897832 -0.016952
C158  C     C_R   0.614844 0.345632 0.894755 -0.019162
C159  C     C_R   0.384591 0.654114 0.102775 -0.017022
C160  C     C_R   0.382401 0.350847 0.103083 -0.016884
C161  C     C_R   0.613692 0.656602 0.897832 -0.016952
C162  C     C_R   0.125195 0.810655 0.813417 -0.020346
C163  C     C_R   0.873623 0.192219 0.181994 -0.028154
C164  C     C_R   0.868188 0.816282 0.185059 -0.025924
C165  C     C_R   0.201402 0.764058 0.671697 0.560150
C166  C     C_R   0.124695 0.192850 0.817367 -0.019754
C167  C     C_R   0.625196 0.310655 0.813417 -0.020346
C168  C     C_R   0.373623 0.692219 0.181994 -0.028154
C169  C     C_R   0.368188 0.316282 0.185059 -0.025924
C170  C     C_R   0.624695 0.692850 0.817367 -0.019754
C171  C     C_R   0.172838 0.768962 0.770982 -0.011259
C172  C     C_R   0.822203 0.225020 0.228946 -0.004901
C173  C     C_R   0.813368 0.795420 0.236230 -0.002874
C174  C     C_R   0.174751 0.228985 0.771965 -0.004259
C175  C     C_R   0.672838 0.268962 0.770982 -0.011258
C176  C     C_R   0.202178 0.234280 0.672034 0.553820
C177  C     C_R   0.322203 0.725020 0.228946 -0.004901
C178  C     C_R   0.313368 0.295420 0.236230 -0.002874
C179  C     C_R   0.674751 0.728985 0.771965 -0.004259
C180  C     C_R   0.195901 0.739848 0.823852 -0.007188
C181  C     C_R   0.793460 0.245525 0.180420 -0.010442
C182  C     C_R   0.776953 0.798350 0.197359 -0.014762
C183  C     C_R   0.199233 0.256483 0.823822 -0.011733
C184  C     C_R   0.695901 0.239848 0.823852 -0.007188
C185  C     C_R   0.293460 0.745525 0.180420 -0.010442
C186  C     C_R   0.276953 0.298350 0.197359 -0.014762
C187  C     C_R   0.793819 0.774172 0.330185 0.557017
C188  C     C_R   0.699233 0.756483 0.823822 -0.011733
C189  C     C_R   0.185682 0.774794 0.904552 -0.004430
C190  C     C_R   0.807802 0.212747 0.096616 -0.010869
C191  C     C_R   0.798474 0.812592 0.105193 -0.010541
C192  C     C_R   0.183487 0.227598 0.910059 -0.006080
C193  C     C_R   0.685682 0.274794 0.904552 -0.004430
C194  C     C_R   0.307802 0.712747 0.096616 -0.010869
C195  C     C_R   0.298474 0.312592 0.105193 -0.010541
C196  C     C_R   0.683487 0.727597 0.910059 -0.006080
C197  C     C_R   0.199383 0.630693 0.518922 0.556953
C198  C     C_R   0.529397 0.879305 0.567330 -0.147195
C199  C     C_R   0.800943 0.369343 0.480067 0.558191
C200  C     C_R   0.804378 0.632404 0.468040 0.565443
C201  C     C_R   0.195797 0.367662 0.531298 0.546879
C202  C     C_R   0.699383 0.130693 0.518922 0.556953
C203  C     C_R   0.300943 0.869343 0.480067 0.558191
C204  C     C_R   0.304378 0.132404 0.468040 0.565443
C205  C     C_R   0.695797 0.867662 0.531298 0.546879
C206  C     C_R   0.927772 0.901187 0.065297 0.561057
C207  C     C_R   0.072313 0.099269 0.934256 0.550458
C208  C     C_R   0.072711 0.901451 0.933578 0.557532
Cu1   Cu    Cu3+1 0.209920 0.785290 0.495070 0.822519
Cu2   Cu    Cu3+1 0.504760 0.500000 0.075850 0.867846
Cu3   Cu    Cu3+1 0.995240 0.000000 0.924150 0.858056
Cu4   Cu    Cu3+1 0.004760 0.000000 0.075850 0.867846
Cu5   Cu    Cu3+1 0.790080 0.214710 0.504930 0.842115
Cu6   Cu    Cu3+1 0.790080 0.785290 0.504930 0.836871
Cu7   Cu    Cu3+1 0.209920 0.214710 0.495070 0.835276
Cu8   Cu    Cu3+1 0.709920 0.285290 0.495070 0.822519
Cu9   Cu    Cu3+1 0.290080 0.714710 0.504930 0.842116
Cu10  Cu    Cu3+1 0.290080 0.285290 0.504930 0.836871
Cu11  Cu    Cu3+1 0.709920 0.714710 0.495070 0.835277
Cu12  Cu    Cu3+1 0.495240 0.500000 0.924150 0.858056
H1    H     H_    0.586151 0.830302 0.600284 0.145627
H2    H     H_    0.497289 0.167442 0.400256 0.097421
H3    H     H_    0.594480 0.404017 0.723577 0.191506
H4    H     H_    0.594945 0.331741 0.653693 0.175665
H5    H     H_    0.583671 0.243903 0.758538 0.119554
H6    H     H_    0.540262 0.295305 0.851518 0.138465
H7    H     H_    0.459695 0.767337 0.316309 0.160985
H8    H     H_    0.508838 0.776765 0.199389 0.145839
H9    H     H_    0.472853 0.853957 0.263989 0.147255
H10   H     H_    0.434532 0.814950 0.163303 0.148644
H11   H     H_    0.386394 0.807496 0.279672 0.175172
H12   H     H_    0.410185 0.673166 0.270625 0.176548
H13   H     H_    0.426538 0.847033 0.609616 0.097315
H14   H     H_    0.458186 0.688409 0.156701 0.162460
H15   H     H_    0.504915 0.277637 0.232784 0.129128
H16   H     H_    0.511746 0.355163 0.164615 0.198293
H17   H     H_    0.499216 0.366026 0.279068 0.120210
H18   H     H_    0.413486 0.387841 0.270756 0.193009
H19   H     H_    0.410529 0.309668 0.333713 0.170642
H20   H     H_    0.402042 0.232016 0.233354 0.113815
H21   H     H_    0.449896 0.276851 0.138257 0.128967
H22   H     H_    0.514511 0.770627 0.728330 0.142439
H23   H     H_    0.481680 0.784823 0.848238 0.148967
H24   H     H_    0.574480 0.155247 0.388658 0.094486
H25   H     H_    0.512272 0.858834 0.773622 0.150495
H26   H     H_    0.568838 0.814733 0.844869 0.158416
H27   H     H_    0.603715 0.809683 0.724509 0.159517
H28   H     H_    0.588123 0.679201 0.727450 0.169877
H29   H     H_    0.540303 0.685799 0.842889 0.171058
H30   H     H_    0.218054 0.515090 0.786610 0.139127
H31   H     H_    0.251915 0.539501 0.852659 0.155151
H32   H     H_    0.185604 0.499265 0.905216 0.135534
H33   H     H_    0.173567 0.625290 0.938824 0.173520
H34   H     H_    0.147681 0.606373 0.861309 0.150493
H35   H     H_    0.005634 0.331276 0.587883 0.096829
H36   H     H_    0.231828 0.647299 0.735884 0.161787
H37   H     H_    0.262265 0.668686 0.805949 0.147339
H38   H     H_    0.673638 0.350255 0.383018 0.174359
H39   H     H_    0.670072 0.403588 0.295929 0.137198
H40   H     H_    0.618668 0.337963 0.356090 0.119571
H41   H     H_    0.678569 0.291031 0.209730 0.149682
H42   H     H_    0.688596 0.240629 0.291764 0.168864
H43   H     H_    0.767862 0.347570 0.248855 0.148877
H44   H     H_    0.764102 0.343428 0.148043 0.125045
H45   H     H_    0.638041 0.712093 0.393930 0.168129
H46   H     H_    0.997289 0.667443 0.400256 0.097421
H47   H     H_    0.609664 0.743660 0.322405 0.149890
H48   H     H_    0.624533 0.650014 0.324651 0.126094
H49   H     H_    0.694635 0.705499 0.187441 0.166472
H50   H     H_    0.723266 0.676090 0.257892 0.170322
H51   H     H_    0.701662 0.812557 0.321567 0.178996
H52   H     H_    0.694803 0.828942 0.226272 0.124424
H53   H     H_    0.329593 0.378020 0.649960 0.150783
H54   H     H_    0.324052 0.409253 0.755935 0.143902
H55   H     H_    0.376974 0.347030 0.688172 0.133455
H56   H     H_    0.304459 0.284012 0.814588 0.166565
H57   H     H_    0.926538 0.347033 0.609616 0.097315
H58   H     H_    0.307919 0.254170 0.710742 0.192631
H59   H     H_    0.231124 0.351443 0.740872 0.150892
H60   H     H_    0.225427 0.360282 0.847092 0.124153
H61   H     H_    0.718054 0.015090 0.786611 0.139127
H62   H     H_    0.751913 0.039501 0.852662 0.155152
H63   H     H_    0.685603 0.999265 0.905216 0.135534
H64   H     H_    0.673565 0.125290 0.938824 0.173520
H65   H     H_    0.647681 0.106372 0.861307 0.150493
H66   H     H_    0.731828 0.147299 0.735883 0.161787
H67   H     H_    0.762264 0.168686 0.805950 0.147340
H68   H     H_    0.074479 0.655247 0.388658 0.094486
H69   H     H_    0.173638 0.850255 0.383018 0.174360
H70   H     H_    0.170073 0.903589 0.295929 0.137199
H71   H     H_    0.118669 0.837964 0.356090 0.119571
H72   H     H_    0.178569 0.791032 0.209730 0.149682
H73   H     H_    0.188596 0.740630 0.291764 0.168863
H74   H     H_    0.267862 0.847571 0.248854 0.148877
H75   H     H_    0.264103 0.843429 0.148043 0.125045
H76   H     H_    0.138041 0.212093 0.393930 0.168129
H77   H     H_    0.109664 0.243660 0.322405 0.149890
H78   H     H_    0.124533 0.150013 0.324651 0.126094
H79   H     H_    0.150675 0.705669 0.064038 0.093643
H80   H     H_    0.194635 0.205499 0.187441 0.166473
H81   H     H_    0.223266 0.176090 0.257892 0.170322
H82   H     H_    0.201662 0.312557 0.321567 0.178996
H83   H     H_    0.194803 0.328942 0.226272 0.124424
H84   H     H_    0.829593 0.878020 0.649960 0.150783
H85   H     H_    0.824052 0.909253 0.755934 0.143902
H86   H     H_    0.876974 0.847030 0.688172 0.133455
H87   H     H_    0.804459 0.784012 0.814588 0.166565
H88   H     H_    0.807919 0.754170 0.710742 0.192631
H89   H     H_    0.731124 0.851443 0.740872 0.150892
H90   H     H_    0.843451 0.279367 0.935692 0.101436
H91   H     H_    0.725427 0.860282 0.847092 0.124154
H92   H     H_    0.808961 0.690081 0.015574 0.106490
H93   H     H_    0.415540 0.168155 0.389654 0.130303
H94   H     H_    0.169267 0.350575 0.005836 0.096575
H95   H     H_    0.650675 0.205668 0.064037 0.093643
H96   H     H_    0.343451 0.779367 0.935692 0.101436
H97   H     H_    0.308961 0.190080 0.015574 0.106490
H98   H     H_    0.669267 0.850575 0.005836 0.096575
H99   H     H_    0.291231 0.805360 0.853663 0.107236
H100  H     H_    0.704476 0.173168 0.141011 0.102702
H101  H     H_    0.721751 0.889990 0.082579 0.103520
H102  H     H_    0.258375 0.152061 0.935322 0.111165
H103  H     H_    0.791230 0.305361 0.853663 0.107236
H104  H     H_    0.347994 0.848757 0.590709 0.152460
H105  H     H_    0.204475 0.673169 0.141011 0.102702
H106  H     H_    0.221751 0.389990 0.082579 0.103520
H107  H     H_    0.758375 0.652061 0.935322 0.111165
H108  H     H_    0.140424 0.857196 0.997903 0.133346
H109  H     H_    0.859423 0.136498 0.000070 0.136880
H110  H     H_    0.863529 0.860518 0.991829 0.135720
H111  H     H_    0.135520 0.148455 0.005626 0.134211
H112  H     H_    0.640424 0.357196 0.997903 0.133346
H113  H     H_    0.359423 0.636497 0.000070 0.136880
H114  H     H_    0.363529 0.360518 0.991829 0.135720
H115  H     H_    0.652684 0.152674 0.408382 0.144056
H116  H     H_    0.635520 0.648455 0.005627 0.134211
H117  H     H_    0.299419 0.602516 0.599372 0.194735
H118  H     H_    0.302355 0.524506 0.660188 0.126700
H119  H     H_    0.355940 0.542306 0.549913 0.114661
H120  H     H_    0.298797 0.446704 0.547634 0.171863
H121  H     H_    0.295630 0.518915 0.481446 0.190263
H122  H     H_    0.206120 0.550562 0.651872 0.139442
H123  H     H_    0.207501 0.457608 0.655860 0.109339
H124  H     H_    0.712108 0.601508 0.379974 0.200549
H125  H     H_    0.714489 0.525280 0.312452 0.126934
H126  H     H_    0.086151 0.330302 0.600284 0.145627
H127  H     H_    0.654921 0.542626 0.417282 0.116200
H128  H     H_    0.706493 0.445350 0.434183 0.167217
H129  H     H_    0.707143 0.517915 0.501942 0.193316
H130  H     H_    0.801653 0.542023 0.334184 0.129084
H131  H     H_    0.800007 0.448772 0.339577 0.118048
H132  H     H_    0.799419 0.102516 0.599372 0.194735
H133  H     H_    0.802355 0.024506 0.660187 0.126700
H134  H     H_    0.855940 0.042306 0.549913 0.114661
H135  H     H_    0.798797 0.946704 0.547634 0.171862
H136  H     H_    0.795630 0.018915 0.481446 0.190263
H137  H     H_    0.915540 0.668155 0.389654 0.130303
H138  H     H_    0.706120 0.050562 0.651872 0.139442
H139  H     H_    0.707501 0.957608 0.655860 0.109339
H140  H     H_    0.212108 0.101508 0.379974 0.200549
H141  H     H_    0.214489 0.025280 0.312452 0.126934
H142  H     H_    0.154921 0.042625 0.417282 0.116200
H143  H     H_    0.206493 0.945350 0.434184 0.167217
H144  H     H_    0.207143 0.017915 0.501942 0.193316
H145  H     H_    0.301653 0.042023 0.334184 0.129084
H146  H     H_    0.300007 0.948772 0.339577 0.118047
H147  H     H_    0.996438 0.815617 0.739521 0.136013
H148  H     H_    0.847994 0.348757 0.590709 0.152460
H149  H     H_    0.992127 0.889239 0.811959 0.197757
H150  H     H_    0.014338 0.904501 0.694514 0.114802
H151  H     H_    0.094481 0.904017 0.723577 0.191506
H152  H     H_    0.094945 0.831741 0.653693 0.175665
H153  H     H_    0.083671 0.743903 0.758538 0.119554
H154  H     H_    0.040262 0.795305 0.851518 0.138465
H155  H     H_    0.959691 0.267338 0.316316 0.160987
H156  H     H_    0.008836 0.276762 0.199397 0.145838
H157  H     H_    0.972852 0.353956 0.263992 0.147254
H158  H     H_    0.934535 0.314949 0.163302 0.148643
H159  H     H_    0.152685 0.652674 0.408382 0.144056
H160  H     H_    0.886393 0.307497 0.279669 0.175169
H161  H     H_    0.910185 0.173166 0.270626 0.176548
H162  H     H_    0.958186 0.188409 0.156702 0.162459
H163  H     H_    0.004915 0.777637 0.232784 0.129128
H164  H     H_    0.011746 0.855163 0.164615 0.198293
H165  H     H_    0.999216 0.866026 0.279068 0.120210
H166  H     H_    0.913486 0.887841 0.270756 0.193009
H167  H     H_    0.910529 0.809668 0.333713 0.170641
H168  H     H_    0.902042 0.732016 0.233354 0.113815
H169  H     H_    0.949895 0.776851 0.138257 0.128967
H170  H     H_    0.505634 0.831276 0.587883 0.096829
H171  H     H_    0.014511 0.270628 0.728330 0.142439
H172  H     H_    0.981680 0.284823 0.848238 0.148967
H173  H     H_    0.012272 0.358834 0.773622 0.150495
H174  H     H_    0.068838 0.314733 0.844869 0.158416
H175  H     H_    0.103715 0.309684 0.724509 0.159517
H176  H     H_    0.088123 0.179201 0.727450 0.169877
H177  H     H_    0.040303 0.185799 0.842889 0.171058
H178  H     H_    0.496438 0.315617 0.739521 0.136013
H179  H     H_    0.492127 0.389239 0.811959 0.197757
H180  H     H_    0.514338 0.404501 0.694514 0.114802
O1    O     O_R   0.255040 0.869590 0.478480 -0.520488
O2    O     O_R   0.817950 0.203450 0.375560 -0.504053
O3    O     O_R   0.817950 0.796550 0.375560 -0.517153
O4    O     O_R   0.182050 0.203450 0.624440 -0.506439
O5    O     O_R   0.682050 0.296550 0.624440 -0.510756
O6    O     O_R   0.317950 0.703450 0.375560 -0.504053
O7    O     O_R   0.317950 0.296550 0.375560 -0.517153
O8    O     O_R   0.682050 0.703450 0.624440 -0.506439
O9    O     O_R   0.250530 0.763330 0.367210 -0.519679
O10   O     O_R   0.749470 0.236670 0.632790 -0.531510
O11   O     O_R   0.749470 0.763330 0.632790 -0.512226
O12   O     O_R   0.744960 0.130410 0.521520 -0.514287
O13   O     O_R   0.250530 0.236670 0.367210 -0.527710
O14   O     O_R   0.750530 0.263330 0.367210 -0.519679
O15   O     O_R   0.249470 0.736670 0.632790 -0.531510
O16   O     O_R   0.249470 0.263330 0.632790 -0.512226
O17   O     O_R   0.750530 0.736670 0.367210 -0.527710
O18   O     O_R   0.177260 0.690030 0.513710 -0.518314
O19   O     O_R   0.822740 0.309970 0.486290 -0.513513
O20   O     O_R   0.822740 0.690030 0.486290 -0.508524
O21   O     O_R   0.177260 0.309970 0.513710 -0.524959
O22   O     O_R   0.677260 0.190030 0.513710 -0.518314
O23   O     O_R   0.744960 0.869590 0.521520 -0.518431
O24   O     O_R   0.322740 0.809970 0.486290 -0.513514
O25   O     O_R   0.322740 0.190030 0.486290 -0.508524
O26   O     O_R   0.677260 0.809970 0.513710 -0.524959
O27   O     O_R   0.051640 0.926880 0.885090 -0.507359
O28   O     O_R   0.948360 0.073120 0.114910 -0.512576
O29   O     O_R   0.948360 0.926880 0.114910 -0.503739
O30   O     O_R   0.051640 0.073120 0.885090 -0.513547
O31   O     O_R   0.551640 0.426880 0.885090 -0.507359
O32   O     O_R   0.448360 0.573120 0.114910 -0.512576
O33   O     O_R   0.448360 0.426880 0.114910 -0.503739
O34   O     O_R   0.255040 0.130410 0.478480 -0.502535
O35   O     O_R   0.551640 0.573120 0.885090 -0.513547
O36   O     O_R   0.940620 0.926560 0.986760 -0.528580
O37   O     O_R   0.059380 0.073440 0.013240 -0.512536
O38   O     O_R   0.059380 0.926560 0.013240 -0.524727
O39   O     O_R   0.940620 0.073440 0.986760 -0.515091
O40   O     O_R   0.440620 0.426560 0.986760 -0.528580
O41   O     O_R   0.559380 0.573440 0.013240 -0.512536
O42   O     O_R   0.559380 0.426560 0.013240 -0.524728
O43   O     O_R   0.440620 0.573440 0.986760 -0.515091
O44   O     O_R   0.755040 0.369590 0.478480 -0.520487
O45   O     O_R   0.244960 0.630410 0.521520 -0.514287
O46   O     O_R   0.244960 0.369590 0.521520 -0.518431
O47   O     O_R   0.755040 0.630410 0.478480 -0.502535
O48   O     O_R   0.182050 0.796550 0.624440 -0.510756

loop_
_geom_bond_atom_site_label_1
_geom_bond_atom_site_label_2
_ccdc_geom_bond_type
C206  O29   A    
C28   C47   A    
C203  O24   A    
C120  H89   S    
C36   C42   A    
C201  O46   A    
C7    O32   A    
C114  C115  S    
C117  H83   S    
C105  H48   S    
C1    O9    A    
C124  C133  A    
C122  H84   S    
C16   C35   A    
C77   H167  S    
C98   H31   S    
C88   H7    S    
C7    C159  S    
C106  C107  S    
C184  C193  A    
C113  C142  A    
Cu3   O27   S    
C145  H108  S    
C201  O21   A    
C143  C178  S    
C37   C42   A    
C104  H49   S    
C150  C194  A    
C131  C140  A    
C162  C171  A    
C59   H117  S    
C10   C20   A    
C96   H37   S    
Cu5   O12   S    
C122  H85   S    
Cu6   O11   S    
Cu1   O48   S    
C187  O17   A    
Cu12  O35   S    
C156  C206  S    
C94   H27   S    
C123  C131  A    
C24   C51   A    
C99   H43   S    
C114  H75   S    
C8    C16   A    
C62   H127  S    
C73   H161  S    
C120  C188  S    
C80   C166  S    
C31   C200  S    
C158  C167  A    
Cu1   O1    S    
C77   H166  S    
Cu5   O19   S    
C93   C170  S    
C166  C174  A    
Cu6   O20   S    
C150  C159  A    
C127  C136  A    
C108  H53   S    
Cu10  O46   S    
C179  C188  A    
C137  H95   S    
C50   H104  S    
C92   H16   S    
C29   C45   A    
C5    C161  S    
C74   H160  S    
C153  C208  S    
C181  C190  A    
C39   C56   S    
C64   H136  S    
C22   C31   A    
C164  C173  A    
C96   C180  S    
C206  O36   A    
C163  C172  A    
C20   C198  A    
C13   C18   A    
Cu10  O25   S    
C205  O26   A    
C173  C182  A    
C204  O25   A    
C120  H91   S    
C6    O31   A    
C41   C63   S    
C119  H78   S    
C62   H125  S    
C72   H150  S    
Cu8   O44   S    
Cu3   O30   S    
C82   H171  S    
C14   C57   A    
C79   C127  A    
C2    C19   A    
C25   C55   A    
C148  H111  S    
C101  C191  S    
C84   H3    S    
C90   C140  A    
C108  H54   S    
C118  H80   S    
Cu1   Cu9   S    
C9    C15   A    
C72   H147  S    
C89   C169  S    
C73   C163  S    
C203  O1    A    
C199  O19   A    
Cu2   O42   S    
C46   C53   A    
C116  H70   S    
Cu4   O37   S    
C102  H40   S    
C24   H24   S    
C97   H33   S    
Cu11  O8    S    
C106  C183  S    
C178  C186  A    
C75   H155  S    
C63   H139  S    
C38   C202  S    
C124  C194  S    
C115  H72   S    
C67   C69   S    
C80   H176  S    
C139  H97   S    
C165  C171  S    
C125  C139  A    
C11   C18   A    
C40   C60   S    
Cu8   O14   S    
C200  O47   A    
C157  C207  S    
C108  H55   S    
C25   C43   A    
C97   C98   S    
C12   C68   A    
C114  C185  S    
C74   H158  S    
C32   C199  S    
C117  C186  S    
C110  H64   S    
Cu7   O4    S    
C125  C195  S    
C105  H45   S    
C115  C116  S    
C58   H121  S    
Cu5   O2    S    
C69   H140  S    
C197  O45   A    
C81   H175  S    
C26   C45   A    
C149  C193  A    
C75   H157  S    
C172  C181  A    
C147  C191  A    
C117  H82   S    
C107  C108  S    
C14   C16   A    
C89   C91   S    
C149  C158  A    
C152  C161  A    
C66   C67   S    
C121  H87   S    
C35   H35   S    
C89   H20   S    
C67   H143  S    
C81   H174  S    
Cu9   O6    S    
C6    C158  S    
C55   H159  S    
C66   H145  S    
C140  H90   S    
C113  C130  A    
C152  C196  A    
C202  O22   A    
C86   C168  S    
C96   H36   S    
C38   C41   A    
C80   H177  S    
Cu7   Cu10  S    
C91   C92   S    
C133  H105  S    
C155  C163  A    
C83   C167  S    
Cu6   O23   S    
C102  H38   S    
C48   C198  A    
Cu10  O7    S    
C103  H51   S    
C129  H101  S    
C83   C84   S    
C8    C12   A    
C10   C45   A    
Cu7   O21   S    
C138  H98   S    
C109  H66   S    
Cu2   O33   S    
C78   H165  S    
C82   H173  S    
C79   C189  S    
C70   H153  S    
C103  C104  S    
C132  O11   A    
C120  C121  S    
C167  C175  A    
C29   C51   A    
C27   C47   A    
C113  C192  S    
C173  C187  S    
C111  H63   S    
C100  H42   S    
C111  H62   S    
C144  H92   S    
C105  H47   S    
Cu8   O5    S    
C123  C137  A    
C170  C179  A    
C86   H12   S    
Cu6   O3    S    
Cu12  O43   S    
C71   C72   S    
C117  C118  S    
C95   H25   S    
C98   H32   S    
C88   H8    S    
C28   C37   A    
C78   H163  S    
C85   H180  S    
C56   C58   S    
C30   C39   A    
C143  O13   A    
C146  H109  S    
C61   H129  S    
C148  C157  A    
C61   C62   S    
C3    O28   A    
C104  H50   S    
C99   C181  S    
C13   C50   A    
C126  C196  S    
C141  H79   S    
Cu1   O9    S    
C100  H41   S    
C122  H86   S    
C69   H141  S    
C56   H123  S    
C106  H59   S    
C15   C46   A    
C130  H102  S    
C107  H58   S    
C147  H110  S    
C27   C49   A    
C25   C33   A    
C83   H6    S    
C101  C129  A    
C125  C134  A    
C148  C192  A    
C87   C88   S    
C208  O38   A    
C115  H73   S    
C73   C74   S    
C11   C47   A    
C8    C43   A    
C185  C194  A    
C183  C192  A    
C76   H169  S    
C55   C68   A    
C71   H151  S    
C1    O6    A    
C77   C78   S    
C4    O40   A    
C11   C19   A    
C86   H14   S    
C13   H13   S    
Cu9   O15   S    
C58   H120  S    
Cu12  O31   S    
C90   C190  S    
C132  O8    A    
C101  C144  A    
C168  C177  A    
C70   C162  S    
C2    H2    S    
C177  C185  A    
C31   C40   A    
C151  C195  A    
C67   H144  S    
C104  C105  S    
C127  H99   S    
C146  C155  A    
Cu7   O13   S    
C128  H100  S    
C71   H152  S    
C160  C169  A    
C70   C71   S    
Cu8   O22   S    
C26   C48   A    
C88   H9    S    
C65   H133  S    
C93   H28   S    
C111  H61   S    
C34   C41   A    
C119  H77   S    
C130  C139  A    
Cu2   O32   S    
C82   H172  S    
C124  C136  A    
Cu4   O29   S    
C60   H131  S    
C84   C85   S    
C84   H4    S    
C98   H30   S    
C112  O5    A    
Cu11  O26   S    
C58   C59   S    
C136  H96   S    
C23   C44   A    
C110  C111  S    
C118  H81   S    
C60   C61   S    
C9    C14   A    
C134  C142  A    
Cu3   Cu4   S    
C59   H118  S    
C4    O33   A    
C46   H46   S    
C165  O15   A    
C3    C155  S    
C107  H56   S    
C94   H26   S    
C121  C122  S    
C176  O4    A    
C126  C135  A    
C154  O14   A    
C142  H94   S    
C182  C191  A    
C73   H162  S    
C165  O48   A    
Cu1   O18   S    
Cu5   Cu8   S    
C198  H170  S    
C30   C201  S    
C5    O35   A    
C145  C189  A    
C86   C87   S    
C65   H132  S    
C187  O3    A    
C174  C183  A    
C27   C36   A    
C87   H10   S    
C21   C30   A    
C92   H15   S    
C133  C141  A    
C153  C162  A    
C180  C189  A    
C64   C65   S    
C143  O7    A    
C109  C110  S    
C151  C160  A    
C110  H65   S    
Cu3   O36   S    
C91   H18   S    
Cu11  O17   S    
C94   C95   S    
C174  C176  S    
C95   H22   S    
C35   C52   A    
C134  H106  S    
C123  C193  S    
Cu2   O41   S    
C62   H124  S    
C72   H149  S    
C131  H103  S    
C150  H113  S    
C175  C184  A    
C57   H57   S    
C102  H39   S    
C93   C94   S    
C103  C182  S    
C56   H122  S    
C81   C82   S    
C54   H148  S    
C79   C141  A    
C66   H146  S    
C207  O30   A    
C95   H23   S    
C33   C39   A    
Cu6   Cu11  S    
C151  H114  S    
C154  O2    A    
C48   H1    S    
C10   C17   A    
C116  H69   S    
Cu2   Cu12  S    
C197  O18   A    
Cu12  O40   S    
C118  C119  S    
C21   C43   A    
Cu11  O47   S    
C159  C168  A    
C26   C34   A    
C22   C44   A    
C75   H156  S    
C207  O37   A    
C69   H142  S    
C12   C15   A    
Cu9   O24   S    
C5    O41   A    
C6    O42   A    
C18   C20   A    
C145  C153  A    
C200  O20   A    
C202  O12   A    
C68   H68   S    
C23   C32   A    
C76   H168  S    
C149  H112  S    
C1    C177  S    
C70   H154  S    
Cu4   O38   S    
C93   H29   S    
C22   C53   A    
C135  H107  S    
C51   H115  S    
C92   H17   S    
C17   C24   A    
C74   C75   S    
C129  C138  A    
C186  C195  A    
C29   C38   A    
C76   C77   S    
C28   C50   A    
C3    O39   A    
C152  H116  S    
C63   C64   S    
Cu4   O28   S    
C60   H130  S    
C85   H178  S    
C128  C137  A    
C147  C156  A    
C2    C49   A    
C205  O23   A    
C52   H126  S    
C99   C100  S    
C33   C197  S    
C78   H164  S    
C96   C97   S    
C85   H179  S    
C100  C102  S    
C37   C203  S    
C154  C172  S    
Cu7   O34   S    
C188  C196  A    
C161  C170  A    
C7    O43   A    
C135  C144  A    
C59   H119  S    
C121  H88   S    
Cu5   O10   S    
C89   H21   S    
C171  C180  A    
C76   C164  S    
C106  H60   S    
C65   H134  S    
C169  C178  A    
C49   H93   S    
C109  C184  S    
C23   C54   A    
C83   H5    S    
Cu9   O45   S    
C126  C138  A    
C9    C44   A    
C208  O27   A    
C119  H76   S    
C64   H135  S    
C53   H137  S    
C80   C81   S    
C157  C166  A    
C99   H44   S    
C114  H74   S    
C116  H71   S    
C61   H128  S    
C199  O44   A    
C103  H52   S    
C112  O10   A    
C176  O16   A    
C4    C160  S    
C63   H138  S    
C87   H11   S    
C17   C19   A    
C204  O34   A    
C32   C40   A    
C132  C179  S    
Cu3   O39   S    
C109  H67   S    
C112  C175  S    
C156  C164  A    
C91   H19   S    
C42   C66   S    
C90   C128  A    
C146  C190  A    
C36   C204  S    
Cu10  O16   S    
C54   C57   A    
C21   C52   A    
C34   C205  S    
C97   H34   S    
