data_mof_unit_53706.cif
_audit_creation_date              2012-12-10T19:09:29-0500
_audit_creation_method            fapswitch 2.2
_symmetry_space_group_name_H-M    P1
_symmetry_Int_Tables_number       1
_space_group_crystal_system       triclinic
_cell_length_a                    15.222658
_cell_length_b                    15.54244
_cell_length_c                    9.933359
_cell_angle_alpha                 91.04374
_cell_angle_beta                  90.836935
_cell_angle_gamma                 89.599966
_cell_volume                      2349.51176134

loop_
_atom_site_label
_atom_site_type_symbol
_atom_type_description
_atom_site_fract_x
_atom_site_fract_y
_atom_site_fract_z
_atom_type_partial_charge
C1    C     C_R   0.120817 0.379768 0.500101 0.944651
C2    C     C_R   0.125524 0.616128 0.500930 0.952871
C3    C     C_R   0.620798 0.879744 0.500096 0.944572
C4    C     C_R   0.625556 0.116104 0.500932 0.952798
C5    C     C_3   0.935016 0.564513 0.081244 0.453538
C6    C     C_3   0.935143 0.564518 0.918002 0.444060
C7    C     C_3   0.435111 0.064605 0.081249 0.453476
C8    C     C_3   0.435187 0.064563 0.917997 0.443915
C9    C     C_R   0.883386 0.374862 0.499026 0.949313
C10   C     C_R   0.877507 0.620298 0.500390 0.994526
C11   C     C_R   0.383394 0.874844 0.499024 0.949278
C12   C     C_R   0.377504 0.120301 0.500389 0.994692
C13   C     C_3   0.822019 0.252556 0.636579 0.069695
C14   C     C_3   0.833493 0.231817 0.384061 0.075028
C15   C     C_3   0.727592 0.664206 0.408058 0.088872
C16   C     C_3   0.847213 0.774863 0.450342 0.071133
C17   C     C_3   0.322188 0.752322 0.636394 0.069812
C18   C     C_3   0.333250 0.731943 0.383752 0.075294
C19   C     C_3   0.227431 0.164132 0.408421 0.088849
C20   C     C_3   0.347129 0.274794 0.449884 0.071034
C21   C     C_3   0.270927 0.667451 0.614225 0.084518
C22   C     C_3   0.247818 0.679889 0.362363 0.077806
C23   C     C_3   0.150977 0.230007 0.428024 0.044595
C24   C     C_3   0.271584 0.340346 0.424309 0.044623
C25   C     C_3   0.770824 0.167653 0.614534 0.084800
C26   C     C_3   0.748106 0.179679 0.362553 0.078024
C27   C     C_3   0.651143 0.730118 0.427391 0.044858
C28   C     C_3   0.771731 0.840508 0.424877 0.044470
C29   C     C_3   0.724680 0.341036 0.486759 -0.294031
C30   C     C_3   0.770322 0.705908 0.644466 -0.299246
C31   C     C_3   0.224661 0.841063 0.487231 -0.294147
C32   C     C_3   0.270549 0.206158 0.644548 -0.299363
C33   C     C_3   0.818623 0.302706 0.499329 -0.172159
C34   C     C_3   0.807727 0.689007 0.501290 -0.159272
C35   C     C_3   0.318609 0.802685 0.499326 -0.172146
C36   C     C_3   0.307725 0.189021 0.501287 -0.159252
C37   C     C_3   0.197441 0.681018 0.500662 -0.170277
C38   C     C_3   0.188208 0.311714 0.500522 -0.096878
C39   C     C_3   0.697491 0.181003 0.500664 -0.170296
C40   C     C_3   0.688198 0.811683 0.500506 -0.096784
C41   C     C_3   0.155572 0.771634 0.516153 -0.305679
C42   C     C_3   0.215410 0.288451 0.647127 -0.352755
C43   C     C_3   0.655571 0.271626 0.515670 -0.305782
C44   C     C_3   0.715071 0.788126 0.647131 -0.352693
C45   C     C_3   0.975123 0.415374 0.076056 -0.274799
C46   C     C_3   0.978467 0.414362 0.916937 -0.299013
C47   C     C_3   0.086060 0.520343 0.923806 -0.278350
C48   C     C_3   0.086890 0.517370 0.082974 -0.299493
C49   C     C_3   0.474978 0.915421 0.076048 -0.274720
C50   C     C_3   0.478427 0.914380 0.916941 -0.299002
C51   C     C_3   0.586065 0.020295 0.923818 -0.278355
C52   C     C_3   0.586923 0.017207 0.082971 -0.299537
H1    H     H_    0.891086 0.236997 0.664886 0.170709
H2    H     H_    0.883744 0.186562 0.422349 0.163437
H3    H     H_    0.748699 0.669530 0.302291 0.160340
H4    H     H_    0.879994 0.763863 0.353556 0.179312
H5    H     H_    0.391288 0.736708 0.664426 0.170644
H6    H     H_    0.383505 0.686590 0.421711 0.163564
H7    H     H_    0.248326 0.169444 0.302555 0.160195
H8    H     H_    0.379802 0.263646 0.353058 0.179577
H9    H     H_    0.318283 0.619652 0.574201 0.165645
H10   H     H_    0.265383 0.613109 0.331831 0.174912
H11   H     H_    0.124464 0.246629 0.326589 0.150036
H12   H     H_    0.255766 0.338851 0.314407 0.121778
H13   H     H_    0.818279 0.119851 0.574831 0.165660
H14   H     H_    0.765744 0.112857 0.332356 0.174708
H15   H     H_    0.624983 0.746947 0.325849 0.149732
H16   H     H_    0.756140 0.839368 0.314897 0.121800
H17   H     H_    0.715523 0.395226 0.559405 0.255622
H18   H     H_    0.714510 0.366559 0.384050 0.271824
H19   H     H_    0.728424 0.651235 0.673166 0.267732
H20   H     H_    0.821646 0.713750 0.721727 0.266809
H21   H     H_    0.215627 0.895179 0.560060 0.255759
H22   H     H_    0.214349 0.866697 0.384625 0.271766
H23   H     H_    0.228629 0.151579 0.673576 0.267933
H24   H     H_    0.321981 0.214050 0.721600 0.266779
H25   H     H_    0.129340 0.780195 0.619303 0.271881
H26   H     H_    0.099143 0.779595 0.445351 0.247465
H27   H     H_    0.157903 0.278328 0.712716 0.221003
H28   H     H_    0.253777 0.342161 0.694074 0.250687
H29   H     H_    0.629193 0.280326 0.618705 0.271786
H30   H     H_    0.599235 0.279468 0.444656 0.247645
H31   H     H_    0.657377 0.777784 0.712270 0.220913
H32   H     H_    0.753256 0.841785 0.694629 0.250523
H33   H     H_    0.907887 0.398505 0.103766 0.265225
H34   H     H_    0.915978 0.391240 0.875635 0.258061
H35   H     H_    0.105649 0.585383 0.896799 0.264144
H36   H     H_    0.112589 0.578054 0.124758 0.255441
H37   H     H_    0.407672 0.898726 0.103635 0.265251
H38   H     H_    0.415967 0.891282 0.875562 0.258197
H39   H     H_    0.605605 0.085369 0.896991 0.264179
H40   H     H_    0.612774 0.077791 0.124868 0.255485
H41   H     H_    0.019746 0.364540 0.115786 0.207207
H42   H     H_    0.027911 0.365992 0.882305 0.184573
H43   H     H_    0.136839 0.475431 0.883236 0.206594
H44   H     H_    0.134684 0.467483 0.117114 0.187186
H45   H     H_    0.519462 0.864500 0.115863 0.207339
H46   H     H_    0.527879 0.865992 0.882397 0.184462
H47   H     H_    0.636850 0.975438 0.883127 0.206677
H48   H     H_    0.634608 0.967186 0.116992 0.186926
N1    N     N_3   0.998760 0.500000 0.138610 -0.127628
N2    N     N_3   0.998760 0.500000 0.861390 -0.129056
N3    N     N_3   0.498760 0.000000 0.138610 -0.127638
N4    N     N_3   0.498760 1.000000 0.861390 -0.129088
O1    O     O_R   0.092530 0.407440 0.616040 -0.629539
O2    O     O_R   0.092530 0.407440 0.383960 -0.644290
O3    O     O_R   0.092530 0.592560 0.383960 -0.597058
O4    O     O_R   0.092530 0.592560 0.616040 -0.561295
O5    O     O_R   0.592530 0.907440 0.616040 -0.629550
O6    O     O_R   0.592530 0.907440 0.383960 -0.644435
O7    O     O_R   0.592530 0.092560 0.383960 -0.596968
O8    O     O_R   0.592530 0.092560 0.616040 -0.561147
O9    O     O_R   0.907330 0.407420 0.616040 -0.598335
O10   O     O_R   0.907330 0.407420 0.383960 -0.562039
O11   O     O_R   0.907330 0.592580 0.383960 -0.576073
O12   O     O_R   0.907330 0.592580 0.616040 -0.563132
O13   O     O_R   0.407330 0.907420 0.616040 -0.598326
O14   O     O_R   0.407330 0.907420 0.383960 -0.561989
O15   O     O_R   0.407330 0.092580 0.383960 -0.576072
O16   O     O_R   0.407330 0.092580 0.616040 -0.563158
Zn1   Zn    Zn3+2 0.999890 0.500000 0.654960 1.030003
Zn2   Zn    Zn3+2 0.999890 0.500000 0.345040 1.025437
Zn3   Zn    Zn3+2 0.499890 1.000000 0.654960 1.030023
Zn4   Zn    Zn3+2 0.499890 0.000000 0.345040 1.025424
Br1   Br    Br    0.771785 0.316347 0.791311 -0.318246
Br2   Br    Br    0.892688 0.250846 0.217064 -0.394721
Br3   Br    Br    0.689429 0.545920 0.427285 -0.365067
Br4   Br    Br    0.939454 0.817797 0.573593 -0.366710
Br5   Br    Br    0.272159 0.815897 0.791502 -0.318734
Br6   Br    Br    0.392179 0.751066 0.216590 -0.394152
Br7   Br    Br    0.189366 0.045851 0.427780 -0.365263
Br8   Br    Br    0.439465 0.317982 0.572769 -0.367088
Br9   Br    Br    0.253289 0.607721 0.780199 -0.374042
Br10  Br    Br    0.180481 0.727381 0.209338 -0.315708
Br11  Br    Br    0.050440 0.186047 0.527209 -0.466600
Br12  Br    Br    0.305182 0.459233 0.459062 -0.461938
Br13  Br    Br    0.753106 0.108135 0.780636 -0.373516
Br14  Br    Br    0.681019 0.226934 0.209107 -0.315806
Br15  Br    Br    0.550250 0.686079 0.525590 -0.466776
Br16  Br    Br    0.805261 0.959306 0.460801 -0.461982
Br17  Br    Br    0.816875 0.539787 0.148753 -0.357438
Br18  Br    Br    0.817489 0.539101 0.841022 -0.374661
Br19  Br    Br    0.967018 0.679304 0.849988 -0.349728
Br20  Br    Br    0.961990 0.679078 0.157353 -0.383097
Br21  Br    Br    0.316908 0.040123 0.148787 -0.357841
Br22  Br    Br    0.317509 0.039137 0.841058 -0.374545
Br23  Br    Br    0.467100 0.179330 0.849933 -0.349892
Br24  Br    Br    0.462362 0.179103 0.157352 -0.382713

loop_
_geom_bond_atom_site_label_1
_geom_bond_atom_site_label_2
_ccdc_geom_bond_type
C16   C28   S    
C52   N3    S    
C42   H28   S    
C20   C36   S    
C25   Br13  S    
C28   Br16  S    
O4    Zn1   S    
C44   H31   S    
C45   H41   S    
C14   C33   S    
C17   H5    S    
C30   H19   S    
C7    C8    S    
N4    Zn3   S    
C45   C46   S    
C50   N4    S    
C46   N2    S    
C22   Br10  S    
C9    O10   A    
C32   C36   S    
C28   H16   S    
C38   C42   S    
C19   C36   S    
C41   H25   S    
C5    C6    S    
C26   C39   S    
C31   H21   S    
C28   C40   S    
C3    O6    A    
C29   C33   S    
C2    O3    A    
C51   H39   S    
C12   O16   A    
C15   C27   S    
C50   H38   S    
C20   C24   S    
C32   H24   S    
C24   C38   S    
C48   H36   S    
C6    Br18  S    
N2    Zn1   S    
C48   H44   S    
C18   C35   S    
C15   C34   S    
C21   H9    S    
O16   Zn3   S    
C1    O2    A    
O6    Zn4   S    
C24   Br12  S    
C23   H11   S    
C4    O8    A    
C42   H27   S    
C24   H12   S    
C47   N2    S    
C15   Br3   S    
C29   C43   S    
C9    C33   S    
C30   C44   S    
C20   Br8   S    
N3    Zn4   S    
C21   Br9   S    
C18   H6    S    
C29   H17   S    
C19   Br7   S    
C5    N1    S    
C50   H46   S    
O12   Zn1   S    
C30   C34   S    
C17   Br5   S    
C51   C52   S    
C26   H14   S    
C25   H13   S    
O8    Zn3   S    
C41   H26   S    
O5    Zn3   S    
C31   H22   S    
C39   C43   S    
C19   H7    S    
C51   N4    S    
O15   Zn4   S    
C22   C37   S    
C52   H48   S    
C27   Br15  S    
C47   H35   S    
C19   C23   S    
C16   H4    S    
C13   H1    S    
C13   C33   S    
C32   H23   S    
C22   H10   S    
C12   O15   A    
C16   Br4   S    
C5    Br17  S    
C47   C48   S    
C46   H42   S    
C4    C39   S    
C27   C40   S    
C5    Br20  S    
C16   C34   S    
O2    Zn2   S    
O1    Zn1   S    
C10   C34   S    
C27   H15   S    
O14   Zn4   S    
C14   C26   S    
C8    N4    S    
C45   N1    S    
C1    C38   S    
C14   H2    S    
C4    O7    A    
C3    C40   S    
O9    Zn1   S    
C43   H29   S    
C31   C35   S    
C52   H40   S    
C8    Br23  S    
C12   C36   S    
C51   H47   S    
C11   O13   A    
C7    Br24  S    
C10   O12   A    
C29   H18   S    
C47   H43   S    
C31   C41   S    
O7    Zn4   S    
C18   C22   S    
C8    Br22  S    
C13   C25   S    
C49   H37   S    
C26   Br14  S    
C49   N3    S    
C30   H20   S    
C23   Br11  S    
C23   C38   S    
N1    Zn2   S    
C14   Br2   S    
C44   H32   S    
C45   H33   S    
C9    O9    A    
C11   C35   S    
O13   Zn3   S    
C13   Br1   S    
C6    Br19  S    
C25   C39   S    
C2    C37   S    
C3    O5    A    
C48   N1    S    
C2    O4    A    
C6    N2    S    
C37   C41   S    
C17   C21   S    
C18   Br6   S    
C49   H45   S    
O10   Zn2   S    
C40   C44   S    
C21   C37   S    
C49   C50   S    
C1    O1    A    
O11   Zn2   S    
C43   H30   S    
C32   C42   S    
C7    N3    S    
C17   C35   S    
O3    Zn2   S    
C46   H34   S    
C20   H8    S    
C11   O14   A    
C10   O11   A    
C15   H3    S    
C7    Br21  S    
