data_mof_unit_29111.cif
_audit_creation_date              2012-12-10T17:09:51-0500
_audit_creation_method            fapswitch 2.2
_symmetry_space_group_name_H-M    P1
_symmetry_Int_Tables_number       1
_space_group_crystal_system       triclinic
_cell_length_a                    10.813734
_cell_length_b                    13.021275
_cell_length_c                    11.775178
_cell_angle_alpha                 99.635504
_cell_angle_beta                  95.147116
_cell_angle_gamma                 90.076029
_cell_volume                      1627.83843857

loop_
_atom_site_label
_atom_site_type_symbol
_atom_type_description
_atom_site_fract_x
_atom_site_fract_y
_atom_site_fract_z
_atom_type_partial_charge
C1    C     C_R   0.497498 0.299112 0.479153 0.803744
C2    C     C_R   0.073928 0.416134 0.546419 0.010219
C3    C     C_R   0.129713 0.491338 0.494398 -0.071851
C4    C     C_R   0.060154 0.567878 0.450515 -0.275492
C5    C     C_R   0.932214 0.570711 0.456882 0.446578
C6    C     C_R   0.874888 0.497935 0.511912 -0.094468
C7    C     C_R   0.517841 0.811313 0.530117 -0.042821
C8    C     C_R   0.491670 0.184933 0.468617 -0.174676
C9    C     C_R   0.387118 0.021443 0.385162 -0.261431
C10   C     C_R   0.402953 0.128333 0.387016 0.419825
C11   C     C_R   0.566518 0.133259 0.545965 -0.181154
C12   C     C_R   0.262934 0.499057 0.498528 0.814940
C13   C     C_R   0.561287 0.023481 0.532980 0.142396
C14   C     C_R   0.463421 0.969707 0.458404 0.091793
C15   C     C_R   0.442484 0.864112 0.457700 -0.187613
C16   C     C_R   0.620998 0.860719 0.596125 -0.270124
C17   C     C_R   0.648130 0.964714 0.593199 0.043080
C18   C     C_R   0.388631 0.394594 0.019460 -0.197297
C19   C     C_R   0.393607 0.410700 0.143874 0.565504
C20   C     C_R   0.549747 0.541263 0.156264 0.060533
C21   C     C_R   0.531502 0.540942 0.034365 0.024866
C22   C     C_R   0.459110 0.460892 0.964087 -0.037131
C23   C     C_R   0.502687 0.700009 0.520717 0.807814
C24   C     C_R   0.456371 0.452486 0.840756 0.113135
C25   C     C_R   0.588277 0.601016 0.859193 0.142371
C26   C     C_R   0.585005 0.618082 0.980637 -0.113430
C27   C     C_R   0.738452 0.495735 0.502305 0.868512
C28   C     C_R   0.141396 0.330449 0.575794 -0.238359
C29   C     C_R   0.093076 0.264502 0.643665 0.325014
C30   C     C_R   0.981186 0.290493 0.692286 -0.017248
C31   C     C_R   0.910551 0.374003 0.658634 0.284351
C32   C     C_R   0.949621 0.428437 0.571557 -0.116648
Cu1   Cu    Cu3+1 0.509250 0.507730 0.615930 0.997732
Cu2   Cu    Cu3+1 0.490750 0.492270 0.384070 1.031394
H1    H     H_    0.106206 0.626622 0.413240 0.137709
H2    H     H_    0.399484 0.393538 0.784148 0.166252
H3    H     H_    0.232541 0.314628 0.546318 0.153149
H4    H     H_    0.367151 0.822704 0.401225 0.146768
H5    H     H_    0.686877 0.815332 0.640997 0.167983
H6    H     H_    0.314520 0.978554 0.326636 0.149435
N1    N     N_R   0.523180 0.519350 0.790130 -0.204702
N2    N     N_R   0.476820 0.480650 0.209890 -0.241397
O1    O     O_R   0.506570 0.354460 0.582000 -0.615056
O2    O     O_R   0.490940 0.341410 0.386200 -0.481880
O3    O     O_R   0.327470 0.506530 0.597920 -0.603277
O4    O     O_R   0.311840 0.493480 0.402120 -0.529056
O5    O     O_R   0.509060 0.658590 0.613800 -0.596051
O6    O     O_R   0.493430 0.645540 0.418000 -0.617116
O7    O     O_R   0.688160 0.506520 0.597880 -0.524549
O8    O     O_R   0.672530 0.493470 0.402080 -0.586556
C33   C     C_2   0.775617 0.001640 0.638356 0.396291
H7    H     H_    0.821208 0.973911 0.713171 0.086011
O9    O     O_2   0.833824 0.057444 0.587721 -0.567229
O10   O     O_3   0.326335 0.180264 0.316117 -0.684165
H8    H     H_    0.268869 0.129532 0.264997 0.328725
C34   C     C_2   0.638022 0.194865 0.647528 0.519656
H9    H     H_    0.697214 0.258061 0.635677 0.126886
O11   O     O_2   0.627446 0.177002 0.744789 -0.469988
C35   C     C_2   0.653974 0.679180 0.808607 0.403120
H10   H     H_    0.615198 0.756229 0.810712 0.047296
O12   O     O_2   0.755367 0.661527 0.772797 -0.563698
C36   C     C_2   0.309705 0.309898 0.948783 0.351390
H11   H     H_    0.211254 0.305371 0.959156 0.065711
O13   O     O_2   0.355094 0.243128 0.879947 -0.469286
C37   C     C_2   0.624206 0.722597 0.047304 0.329263
H12   H     H_    0.706129 0.762058 0.027684 0.103069
O14   O     O_2   0.561795 0.767208 0.121452 -0.549037
O15   O     O_3   0.320331 0.354165 0.202120 -0.643336
H13   H     H_    0.261009 0.308418 0.147866 0.308155
C38   C     C_2   0.660562 0.595001 0.221440 0.536359
H14   H     H_    0.653088 0.652490 0.297729 0.144041
O16   O     O_2   0.762888 0.576588 0.187261 -0.537237
O17   O     O_3   0.158676 0.179606 0.671270 -0.705564
H15   H     H_    0.235450 0.172848 0.630559 0.349737
C39   C     C_2   0.945381 0.234084 0.784922 0.477777
H16   H     H_    0.992891 0.163547 0.799798 0.118939
O18   O     O_2   0.864900 0.266088 0.847616 -0.465554
O19   O     O_3   0.819728 0.412538 0.727242 -0.658039
H17   H     H_    0.842549 0.486606 0.755679 0.379937
O20   O     O_3   0.862602 0.648992 0.418373 -0.735048
H18   H     H_    0.917007 0.694546 0.384009 0.340106

loop_
_geom_bond_atom_site_label_1
_geom_bond_atom_site_label_2
_ccdc_geom_bond_type
C6    C32   A    
C21   C26   A    
C1    C8    S    
Cu1   O3    S    
O17   H15   S    
Cu2   N2    S    
C9    C14   A    
C17   C33   S    
C29   C30   A    
C28   C29   A    
C5    C6    A    
C29   O17   S    
Cu1   O7    S    
C34   H9    S    
C2    C32   A    
C18   C19   A    
C36   O13   D    
C3    C12   S    
O15   H13   S    
C1    O1    A    
C31   C32   A    
C16   C17   A    
C37   O14   D    
C38   H14   S    
Cu2   O4    S    
C9    C10   A    
C27   O8    A    
C7    C15   A    
C4    H1    S    
C35   H10   S    
C21   C22   A    
C24   N1    A    
C20   C38   S    
Cu2   O8    S    
C35   O12   D    
C33   H7    S    
Cu1   O1    S    
Cu2   O2    S    
C12   O4    A    
C25   N1    A    
O19   H17   S    
C12   O3    A    
C25   C26   A    
C9    H6    S    
C33   O9    D    
C39   H16   S    
C15   H4    S    
C36   H11   S    
C1    O2    A    
C6    C27   S    
Cu1   Cu2   S    
C19   O15   S    
C24   H2    S    
C5    O20   S    
C39   O18   D    
C7    C16   A    
Cu1   O5    S    
C22   C24   A    
Cu2   O6    S    
C3    C4    A    
C31   O19   S    
O10   H8    S    
C23   O6    A    
C18   C22   A    
C26   C37   S    
C18   C36   S    
O20   H18   S    
C20   N2    A    
C19   N2    A    
C13   C17   A    
Cu1   N1    S    
C23   O5    A    
C2    C3    A    
C30   C39   S    
C11   C13   A    
C30   C31   A    
C28   H3    S    
C8    C11   A    
C7    C23   S    
C34   O11   D    
C10   O10   S    
C2    C28   A    
C16   H5    S    
C4    C5    A    
C20   C21   A    
C8    C10   A    
C37   H12   S    
C14   C15   A    
C38   O16   D    
C25   C35   S    
C13   C14   A    
C11   C34   S    
C27   O7    A    
