data_mof_unit_36941.cif
_audit_creation_date              2012-12-11T14:36:06-0500
_audit_creation_method            fapswitch 2.2
_symmetry_space_group_name_H-M    P1
_symmetry_Int_Tables_number       1
_space_group_crystal_system       triclinic
_cell_length_a                    14.507107
_cell_length_b                    16.010472
_cell_length_c                    6.921767
_cell_angle_alpha                 90.000091
_cell_angle_beta                  80.890553
_cell_angle_gamma                 90.0
_cell_volume                      1587.41195105

loop_
_atom_site_label
_atom_site_type_symbol
_atom_type_description
_atom_site_fract_x
_atom_site_fract_y
_atom_site_fract_z
_atom_type_partial_charge
O1    O     O_R   0.337460 0.413110 0.524760 -0.538236
O2    O     O_R   0.662540 0.913110 0.475240 -0.538236
O3    O     O_R   0.348690 0.587910 0.191230 -0.545403
O4    O     O_R   0.651310 0.087910 0.808770 -0.545403
O5    O     O_R   0.166530 0.586890 0.082470 -0.540180
O6    O     O_R   0.833470 0.086890 0.917530 -0.540180
C1    C     C_R   0.370706 0.616606 0.353339 0.759980
C2    C     C_R   0.629294 0.116606 0.646661 0.759980
O7    O     O_R   0.348700 0.413830 0.191250 -0.544293
O8    O     O_R   0.651300 0.913830 0.808750 -0.544293
O9    O     O_R   0.166530 0.411570 0.082490 -0.541730
O10   O     O_R   0.833470 0.911570 0.917510 -0.541730
C3    C     C_R   0.371106 0.385344 0.353202 0.761028
C4    C     C_R   0.628894 0.885344 0.646798 0.761028
O11   O     O_R   0.337460 0.588430 0.524740 -0.539614
O12   O     O_R   0.662540 0.088430 0.475260 -0.539614
O13   O     O_3   0.192230 0.499460 0.407330 -0.375465
O14   O     O_3   0.807770 0.999460 0.592670 -0.375466
V1    V     V_3+5 0.263080 0.500100 0.108540 1.388371
V2    V     V_3+5 0.736920 0.000100 0.891460 1.388371
O15   O     O_R   0.155290 0.412090 0.756570 -0.544933
O16   O     O_R   0.844710 0.912090 0.243430 -0.544934
C5    C     C_R   0.132431 0.383134 0.933146 0.648108
C6    C     C_R   0.867569 0.883134 0.066854 0.648109
O17   O     O_R   0.155290 0.586170 0.756550 -0.544307
O18   O     O_R   0.844710 0.086170 0.243450 -0.544307
C7    C     C_R   0.132686 0.615489 0.933229 0.662533
C8    C     C_R   0.867314 0.115489 0.066771 0.662533
V3    V     V_3+5 0.240910 0.499900 0.616030 1.381955
V4    V     V_3+5 0.759090 0.999900 0.383970 1.381955
O19   O     O_3   0.311760 0.500540 0.867100 -0.365639
O20   O     O_3   0.688240 0.000540 0.132900 -0.365639
C9    C     C_3   0.048568 0.716605 0.185799 -0.302890
C10   C     C_3   0.951432 0.216605 0.814202 -0.302890
H1    H     H_    0.023392 0.663593 0.284305 0.140049
H2    H     H_    0.976609 0.163593 0.715696 0.140049
H3    H     H_    0.116479 0.737456 0.224836 0.138037
H4    H     H_    0.883521 0.237455 0.775164 0.138038
C11   C     C_3   0.977518 0.789076 0.222532 -0.310327
C12   C     C_3   0.022482 0.289076 0.777469 -0.310328
H5    H     H_    0.011251 0.843934 0.281058 0.148919
H6    H     H_    0.988749 0.343933 0.718943 0.148920
H7    H     H_    0.918545 0.769800 0.336917 0.134861
H8    H     H_    0.081455 0.269799 0.663083 0.134860
H9    H     H_    0.939443 0.606325 0.012598 0.144979
H10   H     H_    0.060557 0.106325 0.987404 0.144979
H11   H     H_    0.834163 0.713721 0.068530 0.143169
H12   H     H_    0.165836 0.213721 0.931470 0.143169
C13   C     C_3   0.965901 0.660615 0.920509 -0.348820
C14   C     C_3   0.034099 0.160615 0.079492 -0.348821
C15   C     C_3   0.096570 0.763538 0.838217 -0.309690
C16   C     C_3   0.903430 0.263538 0.161783 -0.309691
C17   C     C_3   0.062466 0.687216 0.968419 0.068693
C18   C     C_3   0.937534 0.187216 0.031581 0.068692
H13   H     H_    0.106744 0.745201 0.681150 0.105924
H14   H     H_    0.893256 0.245201 0.318848 0.105924
H15   H     H_    0.166066 0.783198 0.870972 0.151062
H16   H     H_    0.833935 0.283198 0.129026 0.151062
C19   C     C_3   0.940042 0.813121 0.031399 0.050030
C20   C     C_3   0.059958 0.313121 0.968601 0.050031
C21   C     C_3   0.894536 0.733525 0.958225 -0.375901
C22   C     C_3   0.105464 0.233525 0.041775 -0.375902
C23   C     C_3   0.025155 0.837489 0.871670 0.193626
C24   C     C_3   0.974845 0.337489 0.128330 0.193628
H17   H     H_    0.997590 0.848859 0.732360 0.100614
H18   H     H_    0.002411 0.348859 0.267639 0.100614
H19   H     H_    0.972657 0.640521 0.764983 0.141961
H20   H     H_    0.027342 0.140522 0.235018 0.141962
H21   H     H_    0.866910 0.747542 0.820646 0.137129
H22   H     H_    0.133090 0.247542 0.179353 0.137129
H23   H     H_    0.564255 0.808474 0.351358 0.155231
H24   H     H_    0.435745 0.308474 0.648642 0.155231
H25   H     H_    0.434215 0.694300 0.649155 0.155610
H26   H     H_    0.565785 0.194299 0.350845 0.155610
C25   C     C_2   0.439702 0.684647 0.342643 -0.344286
C26   C     C_2   0.560297 0.184647 0.657357 -0.344286
C27   C     C_2   0.464742 0.717501 0.505595 -0.132357
C28   C     C_2   0.535258 0.217501 0.494405 -0.132357
H27   H     H_    0.528708 0.794159 0.800877 0.125122
H28   H     H_    0.471292 0.294158 0.199123 0.125122
C29   C     C_2   0.559238 0.817832 0.657783 -0.346004
C30   C     C_2   0.440761 0.317832 0.342217 -0.346004
C31   C     C_2   0.533780 0.785262 0.494942 -0.132187
C32   C     C_2   0.466220 0.285262 0.505057 -0.132187
H29   H     H_    0.470301 0.708315 0.199589 0.124829
H30   H     H_    0.529698 0.208316 0.800412 0.124829
N1    N     N_2   0.071895 0.913080 0.923790 -0.516751
H31   H     H_    0.030789 0.954356 0.013678 0.238296
C33   C     C_3   0.129525 0.955187 0.762927 -0.596963
H32   H     H_    0.172326 0.003708 0.821340 0.201479
H33   H     H_    0.084752 0.985636 0.667160 0.186200
H34   H     H_    0.177697 0.910612 0.675042 0.208181
N2    N     N_2   0.928106 0.413081 0.076210 -0.516752
H35   H     H_    0.969212 0.454356 0.986324 0.238296
C34   C     C_3   0.870476 0.455186 0.237072 -0.596967
H36   H     H_    0.827675 0.503707 0.178659 0.201480
H37   H     H_    0.915249 0.485637 0.332838 0.186201
H38   H     H_    0.822304 0.410611 0.324957 0.208182

loop_
_geom_bond_atom_site_label_1
_geom_bond_atom_site_label_2
_ccdc_geom_bond_type
N1    H31   S    
C23   H17   S    
N2    H35   S    
C12   C20   S    
O13   V3    S    
C34   H36   S    
O4    C2    A    
V1    O19   S    
C34   H38   S    
C11   H5    S    
O9    V1    S    
C14   C18   S    
C10   C12   S    
C26   C28   D    
C24   N2    S    
O3    C1    A    
C27   C31   S    
O12   V4    S    
C2    C26   S    
C22   H22   S    
C20   C22   S    
O7    V1    S    
O7    C3    A    
O13   V1    S    
O5    C7    A    
C25   H29   S    
O6    C8    A    
O8    V2    S    
O3    V1    S    
O14   V4    S    
C33   H33   S    
O16   V4    S    
C15   H13   S    
C12   H6    S    
C2    O12   A    
C7    C17   S    
O17   V3    S    
C29   C31   D    
C16   C18   S    
O11   V3    S    
H23   C31   S    
C9    C17   S    
C5    C20   S    
C19   C21   S    
C13   C21   S    
C15   C23   S    
H28   C30   S    
C16   C24   S    
H27   C29   S    
C8    C18   S    
C11   H7    S    
C1    O11   A    
O15   V3    S    
C3    C30   S    
C9    H3    S    
C15   C17   S    
C24   H18   S    
H12   C22   S    
H9    C13   S    
C11   C19   S    
O10   V2    S    
O1    V3    S    
C9    C11   S    
C33   H34   S    
C25   C27   D    
H24   C32   S    
C16   H16   S    
C15   H15   S    
O18   V4    S    
C30   C32   D    
O15   C5    A    
O8    C4    A    
C14   C22   S    
O16   C6    A    
O1    C3    A    
C26   H30   S    
V2    O20   S    
C21   H21   S    
O10   C6    A    
C13   H19   S    
C23   N1    S    
C10   H4    S    
C19   C23   S    
H11   C21   S    
C1    C25   S    
C34   H37   S    
C10   C18   S    
O5    V1    S    
O17   C7    A    
O6    V2    S    
H10   C14   S    
O18   C8    A    
O2    V4    S    
C20   C24   S    
N1    C33   S    
V3    O19   S    
V4    O20   S    
C6    C19   S    
C13   C17   S    
O9    C5    A    
C9    H1    S    
C10   H2    S    
O14   V2    S    
O2    C4    A    
O4    V2    S    
C28   C32   S    
C12   H8    S    
N2    C34   S    
H26   C28   S    
H25   C27   S    
C4    C29   S    
C33   H32   S    
C14   H20   S    
C16   H14   S    
