data_mof_unit_13380.cif
_audit_creation_date              2012-12-10T18:57:50-0500
_audit_creation_method            fapswitch 2.2
_symmetry_space_group_name_H-M    P1
_symmetry_Int_Tables_number       1
_space_group_crystal_system       triclinic
_cell_length_a                    10.77395
_cell_length_b                    9.896091
_cell_length_c                    8.893588
_cell_angle_alpha                 89.975564
_cell_angle_beta                  89.826559
_cell_angle_gamma                 89.808622
_cell_volume                      948.224544002

loop_
_atom_site_label
_atom_site_type_symbol
_atom_type_description
_atom_site_fract_x
_atom_site_fract_y
_atom_site_fract_z
_atom_type_partial_charge
C1    C     C_R   0.260583 0.500199 0.499170 0.945059
C2    C     C_R   0.064126 0.608366 0.564462 0.335850
C3    C     C_R   0.873690 0.499997 0.498776 -0.459692
C4    C     C_R   0.128874 0.500688 0.497857 -0.458712
C5    C     C_R   0.554876 0.071462 0.613703 -0.103477
C6    C     C_R   0.444621 0.928548 0.386688 -0.073568
C7    C     C_R   0.444848 0.071998 0.386565 -0.040868
C8    C     C_R   0.555327 0.928008 0.613406 -0.074530
C9    C     C_3   0.154521 0.345874 0.203993 0.133698
C10   C     C_3   0.166742 0.229916 0.091521 -0.346560
C11   C     C_3   0.230618 0.275148 0.946826 -0.958751
C12   C     C_R   0.740347 0.499862 0.499715 0.959658
C13   C     C_3   0.866394 0.805923 0.415469 0.136074
C14   C     C_3   0.989318 0.857419 0.349901 -0.361814
C15   C     C_3   0.966925 0.946775 0.213061 -0.952644
C16   C     C_3   0.871514 0.191553 0.577627 0.132838
C17   C     C_3   0.996193 0.153383 0.649852 -0.365536
C18   C     C_3   0.977158 0.055450 0.779882 -0.971168
C19   C     C_3   0.150012 0.655503 0.791798 0.137045
C20   C     C_3   0.167049 0.771911 0.902181 -0.324114
C21   C     C_3   0.219613 0.723320 0.051727 -0.988511
C22   C     C_R   0.502342 0.500003 0.218841 0.911128
C23   C     C_R   0.502143 0.500009 0.781147 0.912747
C24   C     C_1   0.505283 0.499981 0.065459 -0.220946
C25   C     C_1   0.505196 0.500129 0.934500 -0.219729
C26   C     C_R   0.065275 0.393215 0.430563 0.337099
C27   C     C_R   0.938619 0.618576 0.537868 0.371962
C28   C     C_R   0.939836 0.382199 0.458014 0.378681
H1    H     H_    0.599084 0.125097 0.704825 0.125414
H2    H     H_    0.235104 0.189983 0.865943 0.273912
H3    H     H_    0.326899 0.306648 0.971304 0.277718
H4    H     H_    0.801951 0.892479 0.430888 0.162209
H5    H     H_    0.821913 0.738008 0.331659 0.134283
H6    H     H_    0.041121 0.914465 0.436184 0.264265
H7    H     H_    0.047402 0.770252 0.314311 0.211094
H8    H     H_    0.911127 0.892261 0.127698 0.258348
H9    H     H_    0.057393 0.973345 0.162022 0.264055
H10   H     H_    0.917798 0.040970 0.246251 0.308585
H11   H     H_    0.817644 0.098116 0.557814 0.161760
H12   H     H_    0.400327 0.874910 0.295765 0.131467
H13   H     H_    0.817111 0.252875 0.659546 0.131367
H14   H     H_    0.059282 0.107610 0.565386 0.267228
H15   H     H_    0.041315 0.245679 0.694596 0.206846
H16   H     H_    0.912272 0.099012 0.864362 0.259360
H17   H     H_    0.067530 0.036643 0.834896 0.267166
H18   H     H_    0.939656 0.958081 0.738339 0.311097
H19   H     H_    0.237399 0.595773 0.786286 0.142231
H20   H     H_    0.074456 0.589560 0.836816 0.097123
H21   H     H_    0.230720 0.848493 0.853136 0.237660
H22   H     H_    0.075237 0.819147 0.923543 0.225701
H23   H     H_    0.401079 0.126185 0.295465 0.135663
H24   H     H_    0.157929 0.646274 0.102919 0.247903
H25   H     H_    0.227600 0.809995 0.130045 0.264118
H26   H     H_    0.313318 0.679782 0.034724 0.278567
H27   H     H_    0.600200 0.873955 0.704043 0.148928
H28   H     H_    0.244067 0.400813 0.210361 0.145171
H29   H     H_    0.082008 0.416477 0.159996 0.096466
H30   H     H_    0.221156 0.145885 0.141718 0.222489
H31   H     H_    0.072528 0.192497 0.064006 0.227941
H32   H     H_    0.179082 0.360271 0.894594 0.244044
N1    N     N_R   0.500000 0.857200 0.500000 -0.081487
N2    N     N_R   0.500000 0.142800 0.500000 -0.076093
O1    O     O_R   0.316770 0.614620 0.499990 -0.582471
O2    O     O_3   0.881634 0.742844 0.557936 -0.607978
O3    O     O_3   0.884333 0.257892 0.436597 -0.598453
O4    O     O_3   0.121958 0.708189 0.647573 -0.590032
O5    O     O_R   0.683230 0.385380 0.500010 -0.598147
O6    O     O_R   0.683230 0.614620 0.500010 -0.600027
O7    O     O_R   0.316770 0.385380 0.499990 -0.584869
O8    O     O_R   0.500010 0.614640 0.285340 -0.632663
O9    O     O_R   0.499990 0.385360 0.714660 -0.629905
O10   O     O_R   0.499990 0.614640 0.714660 -0.618013
O11   O     O_R   0.500010 0.385360 0.285340 -0.619617
O12   O     O_3   0.124285 0.293262 0.347704 -0.595156
Zn1   Zn    Zn3+2 0.500000 0.653120 0.500000 0.955399
Zn2   Zn    Zn3+2 0.500000 0.346880 0.500000 0.958114

loop_
_geom_bond_atom_site_label_1
_geom_bond_atom_site_label_2
_ccdc_geom_bond_type
C14   H6    S    
C5    C8    A    
C4    C26   A    
C24   C25   T    
C17   H15   S    
C7    N2    A    
C13   H5    S    
C20   H21   S    
C3    C12   S    
C18   H16   S    
C9    C10   S    
C13   H4    S    
C26   C28   A    
C19   C20   S    
C8    N1    A    
C1    C4    S    
C22   C24   S    
C3    C27   A    
C17   C18   S    
C11   H3    S    
C15   H10   S    
C9    H28   S    
C13   C14   S    
N1    Zn1   S    
O6    Zn1   S    
C21   H25   S    
C23   O9    A    
C12   O6    A    
N2    Zn2   S    
C6    C7    A    
C13   O2    S    
O1    Zn1   S    
O7    Zn2   S    
O10   Zn1   S    
C2    C4    A    
C1    O1    A    
C8    H27   S    
C3    C28   A    
C10   H30   S    
C5    N2    A    
C10   H31   S    
C16   O3    S    
C5    H1    S    
C23   C25   S    
C2    C27   A    
C17   H14   S    
O9    Zn2   S    
O11   Zn2   S    
C19   H19   S    
C12   O5    A    
C9    O12   S    
C16   H11   S    
C7    H23   S    
C11   H32   S    
C18   H17   S    
C18   H18   S    
C15   H8    S    
C14   H7    S    
C6    H12   S    
C20   C21   S    
C6    N1    A    
C19   O4    S    
C21   H26   S    
C10   C11   S    
O8    Zn1   S    
C27   O2    S    
C9    H29   S    
C14   C15   S    
C15   H9    S    
C20   H22   S    
O5    Zn2   S    
C22   O11   A    
C26   O12   S    
C19   H20   S    
C2    O4    S    
C28   O3    S    
C23   O10   A    
C22   O8    A    
C21   H24   S    
C1    O7    A    
C11   H2    S    
C16   C17   S    
C16   H13   S    
