data_mof_unit_65202.cif
_audit_creation_date              2012-12-10T18:54:57-0500
_audit_creation_method            fapswitch 2.2
_symmetry_space_group_name_H-M    P1
_symmetry_Int_Tables_number       1
_space_group_crystal_system       triclinic
_cell_length_a                    19.429672
_cell_length_b                    18.137876
_cell_length_c                    16.022872
_cell_angle_alpha                 89.998691
_cell_angle_beta                  90.202048
_cell_angle_gamma                 90.128614
_cell_volume                      5646.61875655

loop_
_atom_site_label
_atom_site_type_symbol
_atom_type_description
_atom_site_fract_x
_atom_site_fract_y
_atom_site_fract_z
_atom_type_partial_charge
C1    C     C_R   0.367477 0.499908 0.499927 0.801364
C2    C     C_R   0.632523 0.500098 0.500163 0.798321
C3    C     C_R   0.708113 0.500500 0.500754 -0.048918
C4    C     C_R   0.291888 0.499597 0.500211 -0.049033
C5    C     C_R   0.964124 0.509503 0.579518 -0.058028
C6    C     C_R   0.035701 0.490317 0.426804 -0.037287
C7    C     C_R   0.036746 0.507021 0.579428 -0.090146
C8    C     C_R   0.962986 0.491297 0.427016 -0.083690
C9    C     C_R   0.072119 0.498335 0.502927 -0.009353
C10   C     C_R   0.927787 0.502323 0.503125 -0.030757
C11   C     C_R   0.457081 0.720835 0.447467 0.031214
C12   C     C_R   0.545023 0.278955 0.549680 0.047622
C13   C     C_R   0.542972 0.721074 0.552444 0.036854
C14   C     C_R   0.454920 0.279139 0.450031 0.036495
C15   C     C_R   0.456223 0.798294 0.446082 0.151293
C16   C     C_R   0.546159 0.201475 0.550282 0.141048
C17   C     C_R   0.543987 0.798547 0.553577 0.136850
C18   C     C_R   0.453882 0.201693 0.448469 0.196647
C19   C     C_R   0.500162 0.838335 0.499735 -0.116404
C20   C     C_R   0.500204 0.161652 0.498925 -0.035289
C21   C     C_R   0.456831 0.960813 0.554239 0.004370
C22   C     C_R   0.545692 0.039059 0.445399 0.010896
C23   C     C_R   0.544014 0.960480 0.444110 -0.037333
C24   C     C_R   0.454690 0.039332 0.551187 -0.028866
C25   C     C_R   0.500253 0.078623 0.498308 0.038547
C26   C     C_R   0.500343 0.921381 0.499362 0.031767
C27   C     C_R   0.499987 0.500001 0.341208 0.841729
C28   C     C_R   0.500012 0.500000 0.658792 0.844932
C29   C     C_R   0.499483 0.567863 0.955820 -0.031350
C30   C     C_R   0.500517 0.432163 0.044182 -0.033658
C31   C     C_R   0.499925 0.567867 0.044175 -0.031383
C32   C     C_R   0.500074 0.432160 0.955828 -0.027852
C33   C     C_R   0.498138 0.499998 0.912546 -0.046450
C34   C     C_R   0.501860 0.500027 0.087456 -0.047417
C35   C     C_1   0.498919 0.500001 0.822512 -0.089278
C36   C     C_1   0.501080 0.500019 0.177489 -0.091082
C37   C     C_1   0.500482 0.500009 0.252365 -0.148978
C38   C     C_1   0.499516 0.500000 0.747636 -0.148969
C39   C     C_R   0.744285 0.567200 0.491666 -0.157985
C40   C     C_R   0.255386 0.565800 0.510087 -0.154501
C41   C     C_R   0.255534 0.432997 0.490936 -0.150308
C42   C     C_R   0.744808 0.434370 0.510687 -0.154801
C43   C     C_R   0.815938 0.567706 0.492389 -0.092910
C44   C     C_R   0.183716 0.565294 0.511199 -0.054529
C45   C     C_R   0.183861 0.432658 0.491584 -0.087789
C46   C     C_R   0.816510 0.435056 0.511878 -0.118534
C47   C     C_R   0.852083 0.501711 0.502924 0.122937
C48   C     C_R   0.147881 0.498739 0.502019 0.193006
Cu1   Cu    Cu3+1 0.500000 0.573360 0.500000 0.965104
Cu2   Cu    Cu3+1 0.500000 0.426640 0.500000 0.973371
H1    H     H_    0.717295 0.618916 0.483686 0.163202
H2    H     H_    0.282135 0.617863 0.517405 0.162162
H3    H     H_    0.282398 0.381231 0.482956 0.162608
H4    H     H_    0.718185 0.382246 0.517920 0.168246
H5    H     H_    0.843340 0.619363 0.485010 0.151403
H6    H     H_    0.156064 0.616609 0.519048 0.139461
H7    H     H_    0.156341 0.381036 0.484315 0.141513
H8    H     H_    0.844352 0.383825 0.519661 0.153593
H9    H     H_    0.423286 0.690194 0.406313 0.167318
H10   H     H_    0.580311 0.309430 0.589118 0.161080
H11   H     H_    0.576742 0.690616 0.593651 0.168517
H12   H     H_    0.419589 0.309757 0.410963 0.158201
N1    N     N_R   0.500000 0.683620 0.500000 -0.217332
N2    N     N_R   0.500000 0.316380 0.500000 -0.215830
O1    O     O_R   0.400190 0.561980 0.499990 -0.585235
O2    O     O_R   0.599810 0.438020 0.500010 -0.583480
O3    O     O_R   0.599810 0.561980 0.500010 -0.586293
O4    O     O_R   0.400190 0.438020 0.499990 -0.588284
O5    O     O_R   0.499980 0.561940 0.380310 -0.577385
O6    O     O_R   0.500020 0.438060 0.619690 -0.576507
O7    O     O_R   0.500020 0.561940 0.619690 -0.575366
O8    O     O_R   0.499980 0.438060 0.380310 -0.569230
C49   C     C_2   0.494927 0.637790 0.092756 0.499744
H13   H     H_    0.521474 0.643252 0.152146 0.070778
O9    O     O_2   0.458560 0.688485 0.068982 -0.462636
C50   C     C_2   0.505072 0.362235 0.907249 0.494981
H14   H     H_    0.478517 0.356769 0.847865 0.071636
O10   O     O_2   0.541446 0.311545 0.931020 -0.466944
C51   C     C_2   0.503872 0.637855 0.907231 0.499750
H15   H     H_    0.477277 0.642924 0.847843 0.072523
O11   O     O_2   0.539799 0.689084 0.930998 -0.464184
C52   C     C_2   0.496131 0.362170 0.092769 0.502242
H16   H     H_    0.522732 0.357099 0.152153 0.079125
O12   O     O_2   0.460201 0.310943 0.069005 -0.462962
C53   C     C_2   0.926785 0.515585 0.660615 0.376978
H17   H     H_    0.948470 0.491337 0.716701 0.079979
O13   O     O_2   0.872468 0.548844 0.666349 -0.499923
C54   C     C_2   0.074074 0.484550 0.346787 0.409815
H18   H     H_    0.062176 0.441339 0.302377 0.146711
O14   O     O_2   0.119575 0.528540 0.329794 -0.516087
C55   C     C_2   0.075264 0.515832 0.659652 0.350953
H19   H     H_    0.055308 0.551392 0.708287 0.083674
O15   O     O_2   0.128551 0.482267 0.673170 -0.505689
C56   C     C_2   0.922259 0.484131 0.348171 0.372753
H20   H     H_    0.874943 0.515026 0.340284 0.091711
O16   O     O_2   0.939059 0.441589 0.292953 -0.527956
Br1   Br    Br    0.394512 0.847094 0.370684 -0.389286
Br2   Br    Br    0.610558 0.152364 0.622009 -0.434859
Br3   Br    Br    0.605858 0.847709 0.628719 -0.416800
Br4   Br    Br    0.389433 0.152931 0.376204 -0.368557
C57   C     C_2   0.415763 0.918594 0.616439 0.527962
H21   H     H_    0.395085 0.864736 0.600677 0.064170
O17   O     O_2   0.407436 0.941885 0.687171 -0.458769
C58   C     C_2   0.597652 0.079091 0.394125 0.525062
H22   H     H_    0.647792 0.054736 0.383423 0.098055
O18   O     O_2   0.584951 0.138606 0.362086 -0.499226
C59   C     C_2   0.586891 0.917669 0.384260 0.402639
H23   H     H_    0.606347 0.863699 0.401320 0.096062
O19   O     O_2   0.598424 0.940626 0.314046 -0.488743
C60   C     C_2   0.403700 0.081686 0.601066 0.514823
H24   H     H_    0.417130 0.135319 0.626385 0.065415
O20   O     O_2   0.345171 0.058747 0.610980 -0.468771

loop_
_geom_bond_atom_site_label_1
_geom_bond_atom_site_label_2
_ccdc_geom_bond_type
C39   H1    S    
C21   C26   A    
C3    C42   A    
C57   H21   S    
Cu1   N1    S    
Cu2   N2    S    
C49   H13   S    
C14   C18   A    
C6    C9    A    
C58   O18   D    
C6    C54   S    
C53   H17   S    
C15   C19   A    
C45   H7    S    
Cu1   O1    S    
C36   C37   T    
C50   O10   D    
C11   N1    A    
C12   N2    A    
C31   C49   S    
C4    C41   A    
C14   H12   S    
C29   C33   A    
C1    O4    A    
C22   C58   S    
C42   C46   A    
C23   C26   A    
C19   C26   S    
Cu2   O8    S    
C60   H24   S    
C17   C19   A    
C11   C15   A    
C4    C40   A    
C22   C25   A    
C13   N1    A    
C1    O1    A    
C59   H23   S    
C18   C20   A    
C27   O5    A    
C5    C53   S    
C23   C59   S    
C57   O17   D    
Cu1   O5    S    
C46   H8    S    
C49   O9    D    
C18   Br4   S    
C15   Br1   S    
C11   H9    S    
C58   H22   S    
C53   O13   D    
C30   C34   A    
C12   C16   A    
C20   C25   S    
C35   C38   T    
C24   C60   S    
C24   C25   A    
C2    O3    A    
C55   H19   S    
C5    C7    A    
C39   C43   A    
C40   H2    S    
C30   C52   S    
C55   O15   D    
C17   Br3   S    
C44   H6    S    
C29   C51   S    
C28   C38   S    
C16   C20   A    
C14   N2    A    
C31   C34   A    
C8    C56   S    
C50   H14   S    
C56   O16   D    
Cu2   O2    S    
C41   H3    S    
C43   H5    S    
C54   O14   D    
Cu1   Cu2   S    
C52   O12   D    
C28   O7    A    
C7    C55   S    
C51   O11   D    
C45   C48   A    
C7    C9    A    
C46   C47   A    
Cu1   O3    S    
C28   O6    A    
C2    O2    A    
C32   C50   S    
C6    C8    A    
C13   C17   A    
C1    C4    S    
C32   C33   A    
C2    C3    S    
Cu2   O6    S    
C21   C57   S    
C5    C10   A    
C29   C31   A    
C42   H4    S    
C30   C32   A    
C16   Br2   S    
C59   O19   D    
C43   C47   A    
C27   C37   S    
C33   C35   S    
C34   C36   S    
C56   H20   S    
C60   O20   D    
C3    C39   A    
C51   H15   S    
C12   H10   S    
C40   C44   A    
C13   H11   S    
C54   H18   S    
C9    C48   S    
C8    C10   A    
C52   H16   S    
Cu1   O7    S    
C21   C24   A    
C10   C47   S    
C41   C45   A    
C22   C23   A    
Cu2   O4    S    
C27   O8    A    
C44   C48   A    
