data_mof_unit_39645.cif
_audit_creation_date              2012-12-11T15:21:33-0500
_audit_creation_method            fapswitch 2.2
_symmetry_space_group_name_H-M    P1
_symmetry_Int_Tables_number       1
_space_group_crystal_system       triclinic
_cell_length_a                    19.146022
_cell_length_b                    7.150043
_cell_length_c                    17.68392
_cell_angle_alpha                 89.988548
_cell_angle_beta                  108.97678
_cell_angle_gamma                 89.98467
_cell_volume                      2289.26644154

loop_
_atom_site_label
_atom_site_type_symbol
_atom_type_description
_atom_site_fract_x
_atom_site_fract_y
_atom_site_fract_z
_atom_type_partial_charge
O1    O     O_R   0.562310 0.505770 0.439670 -0.536562
O2    O     O_R   0.437690 0.005770 0.560330 -0.537009
O3    O     O_R   0.411650 0.169150 0.405330 -0.538647
O4    O     O_R   0.588350 0.669150 0.594670 -0.536962
C1    C     C_R   0.384796 0.345409 0.382941 0.637733
C2    C     C_R   0.615049 0.845382 0.617230 0.637729
O5    O     O_R   0.560140 0.175610 0.430010 -0.540273
O6    O     O_R   0.439860 0.675610 0.569990 -0.540034
O7    O     O_R   0.587240 0.012100 0.585200 -0.539808
O8    O     O_R   0.412760 0.512100 0.414800 -0.539346
C3    C     C_R   0.580936 0.344605 0.414759 0.701155
C4    C     C_R   0.419051 0.844611 0.585229 0.698714
O9    O     O_3   0.508720 0.341420 0.550890 -0.371716
O10   O     O_3   0.491280 0.841420 0.449110 -0.371936
V1    V     V_3+5 0.498380 0.063930 0.490560 1.378337
V2    V     V_3+5 0.501620 0.563930 0.509440 1.380390
C5    C     C_R   0.177144 0.066060 0.863082 -0.223570
C6    C     C_R   0.822791 0.566093 0.136857 -0.223026
C7    C     C_R   0.129895 0.916229 0.864651 -0.079978
C8    C     C_R   0.870057 0.416223 0.135299 -0.079507
C9    C     C_R   0.130791 0.754568 0.819416 -0.220232
C10   C     C_R   0.869155 0.254493 0.180518 -0.220707
C11   C     C_R   0.177768 0.742240 0.772914 0.088902
C12   C     C_R   0.822168 0.242147 0.227007 0.087981
C13   C     C_R   0.225677 0.891974 0.772635 0.054453
C14   C     C_R   0.774255 0.391935 0.227291 0.054803
C15   C     C_R   0.225540 0.054105 0.818142 0.091139
C16   C     C_R   0.774389 0.554127 0.181791 0.091029
C17   C     C_R   0.177762 0.582650 0.726679 -0.191817
C18   C     C_R   0.822174 0.082490 0.273229 -0.192728
C19   C     C_R   0.225360 0.570442 0.681230 -0.187373
C20   C     C_R   0.774579 0.070280 0.318678 -0.183663
C21   C     C_R   0.274045 0.717284 0.681369 0.090175
C22   C     C_R   0.725898 0.217186 0.318555 0.090113
C23   C     C_R   0.273904 0.879411 0.726880 0.054563
C24   C     C_R   0.726032 0.379371 0.273049 0.054400
C25   C     C_R   0.321835 0.029117 0.726636 0.089515
C26   C     C_R   0.678101 0.529137 0.273306 0.090155
C27   C     C_R   0.321811 0.188755 0.772829 -0.194767
C28   C     C_R   0.678119 0.688831 0.227117 -0.194953
C29   C     C_R   0.274196 0.200988 0.818250 -0.188595
C30   C     C_R   0.725730 0.701065 0.181691 -0.188760
C31   C     C_R   0.322503 0.705268 0.636494 -0.224621
C32   C     C_R   0.677454 0.205182 0.363446 -0.218960
C33   C     C_R   0.369846 0.854994 0.635053 -0.081073
C34   C     C_R   0.630119 0.354974 0.364909 -0.080983
C35   C     C_R   0.368895 0.016696 0.680239 -0.222838
C36   C     C_R   0.631054 0.516723 0.319717 -0.222335
H1    H     H_    0.177354 0.190593 0.898133 0.122928
H2    H     H_    0.822580 0.690671 0.101810 0.122888
H3    H     H_    0.094363 0.638737 0.819782 0.129486
H4    H     H_    0.905591 0.138623 0.180157 0.131476
H5    H     H_    0.141166 0.466587 0.725972 0.135128
H6    H     H_    0.858772 0.966381 0.273929 0.135051
H7    H     H_    0.224330 0.445473 0.646229 0.134988
H8    H     H_    0.775611 0.945262 0.353673 0.136440
H9    H     H_    0.322299 0.580759 0.601429 0.123713
H10   H     H_    0.677668 0.080630 0.398511 0.124617
H11   H     H_    0.405365 0.132479 0.679940 0.129084
H12   H     H_    0.594585 0.632554 0.320028 0.128831
H13   H     H_    0.358411 0.304812 0.773544 0.132762
H14   H     H_    0.641520 0.804936 0.226413 0.132351
H15   H     H_    0.275216 0.325974 0.853239 0.133896
H16   H     H_    0.724708 0.826098 0.146709 0.133895
C37   C     C_3   0.787114 0.701952 0.799303 -0.347504
C38   C     C_3   0.209653 0.199987 0.205131 -0.365335
H17   H     H_    0.830976 0.612664 0.789367 0.144851
H18   H     H_    0.164793 0.121427 0.218394 0.153843
H19   H     H_    0.778040 0.650608 0.854831 0.148160
H20   H     H_    0.216549 0.136442 0.150510 0.152535
C39   C     C_3   0.715050 0.674879 0.728069 -0.343941
C40   C     C_3   0.282313 0.173547 0.275578 -0.344483
H21   H     H_    0.672284 0.609701 0.749737 0.146407
H22   H     H_    0.323671 0.101191 0.253899 0.147083
H23   H     H_    0.725575 0.577186 0.683966 0.149125
H24   H     H_    0.271813 0.082417 0.321773 0.140000
H25   H     H_    0.863105 0.872892 0.716441 0.110053
H26   H     H_    0.134925 0.406497 0.281709 0.102136
H27   H     H_    0.757021 0.859681 0.611088 0.100097
H28   H     H_    0.241149 0.374433 0.387128 0.107842
C41   C     C_3   0.822726 0.971082 0.728470 0.076234
C42   C     C_3   0.179128 0.489042 0.268816 0.084324
C43   C     C_3   0.748390 0.023298 0.823797 -0.327612
C44   C     C_3   0.253258 0.510218 0.173031 -0.333796
C45   C     C_3   0.812797 0.911874 0.809896 0.074552
C46   C     C_3   0.187528 0.411541 0.189635 0.111973
H29   H     H_    0.762088 0.174188 0.833398 0.134577
H30   H     H_    0.241185 0.661019 0.159837 0.144816
H31   H     H_    0.739529 0.972733 0.879508 0.128807
H32   H     H_    0.261461 0.448339 0.118791 0.124248
C47   C     C_3   0.686792 0.864652 0.687573 0.075584
C48   C     C_3   0.313048 0.364716 0.312547 0.107402
C49   C     C_3   0.748333 0.950209 0.658450 -0.276554
C50   C     C_3   0.252520 0.461338 0.340228 -0.354820
C51   C     C_3   0.675721 0.998087 0.752460 -0.315869
C52   C     C_3   0.325526 0.487652 0.245260 -0.319278
H33   H     H_    0.631869 0.941528 0.774705 0.126341
H34   H     H_    0.369083 0.423657 0.224520 0.124777
H35   H     H_    0.656748 0.137859 0.726049 0.150248
H36   H     H_    0.345569 0.628779 0.269092 0.147912
H37   H     H_    0.729846 0.088795 0.630325 0.161294
H38   H     H_    0.273368 0.598026 0.368738 0.145826
O11   O     O_R   0.087220 0.271820 0.085230 -0.548915
O12   O     O_R   0.912780 0.771820 0.914770 -0.543582
O13   O     O_R   0.939860 0.595540 0.069990 -0.536984
O14   O     O_R   0.060140 0.095540 0.930010 -0.542451
C53   C     C_R   0.919143 0.426555 0.085338 0.702263
C54   C     C_R   0.080835 0.926550 0.914638 0.693998
O15   O     O_R   0.088340 0.601930 0.094680 -0.514110
O16   O     O_R   0.911660 0.101930 0.905320 -0.539392
O17   O     O_R   0.062310 0.765410 0.939660 -0.538832
O18   O     O_R   0.937690 0.265410 0.060340 -0.537998
C55   C     C_R   0.115892 0.431533 0.118227 0.675316
C56   C     C_R   0.884321 0.931586 0.881480 0.640117
O19   O     O_3   0.991270 0.429630 0.949130 -0.377785
O20   O     O_3   0.008730 0.929630 0.050870 -0.364880
V3    V     V_3+5 0.001620 0.707150 0.009440 1.409738
V4    V     V_3+5 0.998380 0.207150 0.990560 1.374945
N1    N     N_3   0.852037 0.160886 0.728743 -0.682333
H39   H     H_    0.907443 0.164590 0.764706 0.234913
H40   H     H_    0.822459 0.257134 0.750731 0.235432
N2    N     N_3   0.155825 0.685700 0.260704 -0.666917
H41   H     H_    0.141908 0.723005 0.311194 0.218932
H42   H     H_    0.199890 0.771315 0.260140 0.230626

loop_
_geom_bond_atom_site_label_1
_geom_bond_atom_site_label_2
_ccdc_geom_bond_type
C43   H29   S    
C42   C50   S    
C53   O18   A    
C38   H18   S    
O1    C3    A    
C40   H24   S    
O2    C4    A    
O16   V4    S    
C2    O7    A    
O15   V3    S    
C27   C29   A    
O5    C3    A    
C18   H6    S    
C17   H5    S    
C46   C55   S    
C11   C17   A    
C45   C56   S    
O11   C55   A    
C12   C14   A    
H27   C49   S    
C40   C48   S    
C51   H35   S    
C2    C47   S    
C48   C52   S    
C41   C49   S    
O20   V3    S    
C6    C8    A    
C44   C52   S    
C33   C35   A    
C15   C29   A    
C5    C7    A    
C38   C40   S    
O18   V4    S    
C32   H10   S    
C37   H17   S    
C52   H34   S    
C19   C21   A    
C25   C35   A    
O16   C56   A    
C26   C36   A    
H28   C50   S    
O15   C55   A    
C8    C53   S    
C7    C54   S    
C28   C30   A    
C28   H14   S    
O6    V2    S    
O14   V4    S    
O13   V3    S    
C44   H32   S    
C27   H13   S    
C32   C34   A    
C36   H12   S    
N1    H40   S    
C43   H31   S    
C34   C36   A    
C39   H23   S    
C5    C15   A    
C6    C16   A    
C40   H22   S    
C49   H37   S    
C39   H21   S    
O5    V1    S    
C37   C39   S    
C35   H11   S    
C21   C31   A    
O4    V2    S    
C18   C20   A    
C47   C49   S    
O13   C53   A    
H26   C42   S    
H25   C41   S    
O6    C4    A    
O19   V4    S    
C43   C51   S    
C48   C50   S    
C22   C32   A    
O1    V2    S    
O2    V1    S    
C31   C33   A    
C13   C23   A    
O12   C56   A    
O4    C2    A    
C43   C45   S    
C8    C10   A    
C9    C11   A    
C10   C12   A    
O11   V4    S    
C29   H15   S    
C5    H1    S    
C30   H16   S    
C9    H3    S    
O3    V1    S    
C6    H2    S    
C10   H4    S    
O12   V3    S    
C14   C24   A    
C23   C25   A    
C44   H30   S    
C44   C46   S    
C4    C33   S    
O3    C1    A    
C38   C46   S    
N1    H39   S    
C51   H33   S    
C37   C45   S    
C13   C15   A    
C41   N1    S    
C14   C16   A    
C54   O17   A    
O17   V3    S    
C24   C26   A    
O7    V1    S    
C1    O8    A    
C17   C19   A    
C42   C46   S    
C26   C28   A    
C38   H20   S    
O14   C54   A    
C37   H19   S    
C52   H36   S    
C16   C30   A    
C21   C23   A    
C20   H8    S    
C22   C24   A    
C11   C13   A    
C12   C18   A    
C1    C48   S    
C31   H9    S    
C47   C51   S    
C39   C47   S    
C50   H38   S    
C25   C27   A    
O9    V2    S    
O10   V1    S    
C3    C34   S    
O8    V2    S    
C19   H7    S    
N2    H41   S    
N2    H42   S    
C42   N2    S    
C41   C45   S    
C20   C22   A    
C7    C9    A    
