data_mof_unit_67425.cif
_audit_creation_date              2012-12-10T16:42:32-0500
_audit_creation_method            fapswitch 2.2
_symmetry_space_group_name_H-M    P1
_symmetry_Int_Tables_number       1
_space_group_crystal_system       triclinic
_cell_length_a                    7.566075
_cell_length_b                    8.689864
_cell_length_c                    11.002679
_cell_angle_alpha                 87.451254
_cell_angle_beta                  71.661417
_cell_angle_gamma                 102.263056
_cell_volume                      666.151154405

loop_
_atom_site_label
_atom_site_type_symbol
_atom_type_description
_atom_site_fract_x
_atom_site_fract_y
_atom_site_fract_z
_atom_type_partial_charge
C1    C     C_R   0.452442 0.200305 0.508526 0.810731
C2    C     C_R   0.547387 0.799533 0.492374 0.830629
C3    C     C_R   0.422340 0.493169 0.742642 0.845119
C4    C     C_R   0.577578 0.505279 0.257421 0.857901
C5    C     C_2   0.379657 0.490624 0.881076 -0.364282
C6    C     C_2   0.620481 0.503489 0.119164 -0.371064
C7    C     C_2   0.519791 0.494940 0.931222 -0.177132
C8    C     C_2   0.479339 0.490349 0.069164 -0.172587
C9    C     C_2   0.429468 0.033017 0.535149 -0.220662
C10   C     C_2   0.571105 0.966925 0.467571 -0.216585
Cu1   Cu    Cu3+1 0.688910 0.517800 0.485820 0.954191
Cu2   Cu    Cu3+1 0.311090 0.482200 0.514180 0.986081
H1    H     H_    0.331873 0.476889 0.130225 0.191088
H2    H     H_    0.666422 0.502989 0.870275 0.190336
H3    H     H_    0.767528 0.513190 0.058042 0.146765
H4    H     H_    0.233628 0.485082 0.942177 0.146532
N1    N     N_2   0.027170 0.455360 0.535550 0.050184
N2    N     N_2   0.972830 0.544640 0.464450 0.014434
O1    O     O_R   0.622710 0.286400 0.490790 -0.591657
O2    O     O_R   0.377290 0.713600 0.509210 -0.561942
O3    O     O_R   0.303660 0.256330 0.514730 -0.590079
O4    O     O_R   0.696340 0.743670 0.485270 -0.604916
O5    O     O_R   0.600900 0.509520 0.671740 -0.615830
O6    O     O_R   0.399100 0.490480 0.328260 -0.556594
O7    O     O_R   0.281840 0.479450 0.695690 -0.584699
O8    O     O_R   0.718160 0.520550 0.304310 -0.585704
C11   C     C_R   0.284475 0.955351 0.660971 0.116245
C12   C     C_R   0.344719 0.918194 0.764937 -0.149865
C13   C     C_R   0.209826 0.857595 0.886308 -0.145854
C14   C     C_R   0.014200 0.833642 0.904816 -0.121832
C15   C     C_R   0.952902 0.867353 0.801493 -0.149472
C16   C     C_R   0.087470 0.928593 0.680015 -0.120831
H5    H     H_    0.496096 0.939443 0.752524 0.111034
H6    H     H_    0.257060 0.831233 0.966387 0.129615
H7    H     H_    0.910401 0.790963 0.999592 0.135946
H8    H     H_    0.801218 0.848823 0.816062 0.134533
H9    H     H_    0.038150 0.958572 0.601929 0.124765
C17   C     C_R   0.724470 0.046184 0.345985 0.130068
C18   C     C_R   0.917880 0.076609 0.337999 -0.073860
C19   C     C_R   0.062683 0.135218 0.220017 -0.161504
C20   C     C_R   0.015120 0.163511 0.109536 -0.132444
C21   C     C_R   0.822854 0.137156 0.117372 -0.144279
C22   C     C_R   0.677627 0.078495 0.235183 -0.155152
H10   H     H_    0.956251 0.052005 0.422380 0.132754
H11   H     H_    0.211684 0.155986 0.213832 0.135148
H12   H     H_    0.127106 0.203996 0.017590 0.142640
H13   H     H_    0.786391 0.159534 0.031754 0.130009
H14   H     H_    0.529118 0.054418 0.239535 0.109222
N3    N     N_2   0.895447 0.322468 0.611417 -0.312429
H15   H     H_    0.756756 0.324683 0.634964 0.297428
C23   C     C_3   0.924568 0.275490 0.729962 -0.624322
H16   H     H_    0.804227 0.174903 0.786392 0.162482
H17   H     H_    0.926332 0.374944 0.789869 0.214053
H18   H     H_    0.055886 0.232437 0.712006 0.267081
N4    N     N_2   0.109381 0.678062 0.397817 -0.265564
H19   H     H_    0.102603 0.774083 0.449147 0.240632
C24   C     C_3   0.109353 0.716206 0.268856 -0.587276
H20   H     H_    0.244633 0.803780 0.213702 0.172646
H21   H     H_    0.987540 0.769329 0.271341 0.226702
H22   H     H_    0.099804 0.608541 0.218583 0.221421

loop_
_geom_bond_atom_site_label_1
_geom_bond_atom_site_label_2
_ccdc_geom_bond_type
Cu2   N1    S    
C2    O4    A    
C4    O8    A    
C20   H12   S    
Cu1   N2    S    
C1    O3    A    
C13   C14   A    
C20   C21   A    
Cu2   O6    S    
Cu1   O4    S    
C3    O5    A    
C15   C16   A    
C10   C17   S    
Cu2   O7    S    
Cu1   Cu2   S    
C23   H18   S    
C22   H14   S    
Cu2   O2    S    
N4    H19   S    
N1    N2    D    
C11   C16   A    
C17   C22   A    
C5    H4    S    
C16   H9    S    
Cu1   O1    S    
C24   H20   S    
C14   C15   A    
Cu2   O3    S    
C14   H7    S    
N2    N4    S    
Cu1   O5    S    
C19   C20   A    
C12   H5    S    
C21   H13   S    
N4    C24   S    
C17   C18   A    
C4    O6    A    
C24   H21   S    
C1    O1    A    
C21   C22   A    
C18   H10   S    
C2    O2    A    
C23   H16   S    
C2    C10   S    
C8    H1    S    
C3    O7    A    
C1    C9    S    
C19   H11   S    
C9    C11   S    
C4    C6    S    
N3    H15   S    
C9    C10   D    
N1    N3    S    
C11   C12   A    
C5    C7    D    
C7    C8    S    
C18   C19   A    
C12   C13   A    
C24   H22   S    
C6    C8    D    
Cu1   O8    S    
C3    C5    S    
C6    H3    S    
C15   H8    S    
C13   H6    S    
C7    H2    S    
C23   H17   S    
N3    C23   S    
