data_mof_unit_56860.cif
_audit_creation_date              2012-10-26T21:21:38-0400
_audit_creation_method            fapswitch 2.2
_symmetry_space_group_name_H-M    P1
_symmetry_Int_Tables_number       1
_space_group_crystal_system       triclinic
_cell_length_a                    14.342448
_cell_length_b                    10.793963
_cell_length_c                    9.607643
_cell_angle_alpha                 89.998823
_cell_angle_beta                  89.981846
_cell_angle_gamma                 92.536032
_cell_volume                      1485.92019295

loop_
_atom_site_label
_atom_site_type_symbol
_atom_type_description
_atom_site_fract_x
_atom_site_fract_y
_atom_site_fract_z
_atom_type_partial_charge
C1    C     C_R   0.496292 0.262531 0.500055 0.539129
C2    C     C_R   0.552043 0.067083 0.416009 -0.140782
C3    C     C_R   0.551971 0.939308 0.415894 -0.143412
C4    C     C_R   0.331191 0.499620 0.500055 0.527691
C5    C     C_R   0.489611 0.870514 0.500050 0.000051
C6    C     C_R   0.625761 0.663084 0.143435 -0.103108
C7    C     C_R   0.688891 0.742230 0.071612 0.017164
C8    C     C_R   0.686850 0.742505 0.927462 -0.165104
C9    C     C_R   0.624527 0.663970 0.856039 -0.111590
C10   C     C_R   0.561179 0.580692 0.925187 0.153881
C11   C     C_R   0.561422 0.580515 0.074526 0.132187
C12   C     C_1   0.771167 0.500863 0.499903 -0.013597
C13   C     C_R   0.441723 0.423221 0.073883 0.006971
C14   C     C_R   0.441787 0.423199 0.926087 0.005701
C15   C     C_R   0.496740 0.737134 0.500046 0.532038
C16   C     C_R   0.668803 0.500460 0.499952 0.544885
C17   C     C_1   0.228846 0.500027 0.500143 -0.046624
C18   C     C_1   0.143420 0.500407 0.500161 -0.039063
C19   C     C_1   0.042738 0.500794 0.500092 0.007972
C20   C     C_1   0.957300 0.501002 0.500002 0.015171
C21   C     C_1   0.856608 0.501043 0.499916 -0.014458
C22   C     C_2   0.757806 0.824401 0.146959 0.567595
C23   C     C_R   0.351926 0.120490 0.656229 -0.107606
C24   C     C_R   0.285312 0.051745 0.732867 -0.120469
C25   C     C_R   0.285543 0.922962 0.733281 -0.114462
C26   C     C_R   0.352369 0.862076 0.657022 -0.098385
C27   C     C_R   0.421934 0.929817 0.580701 0.029068
C28   C     C_R   0.421754 0.060968 0.580447 0.027920
C29   C     C_R   0.489414 0.128342 0.499941 -0.000808
Cu1   Cu    Cu3+1 0.499990 0.499990 0.640660 0.916734
Cu2   Cu    Cu3+1 0.500010 0.500010 0.359340 0.932261
H1    H     H_    0.602830 0.118672 0.352609 0.144902
H2    H     H_    0.393984 0.360201 0.128965 0.118267
H3    H     H_    0.629722 0.670239 0.253062 0.202604
H4    H     H_    0.856532 0.963307 0.136378 0.345033
H5    H     H_    0.734413 0.803164 0.868595 0.173468
H6    H     H_    0.630016 0.672550 0.746372 0.189883
H7    H     H_    0.394081 0.360166 0.871045 0.109543
H8    H     H_    0.346446 0.219983 0.654818 0.125085
H9    H     H_    0.232374 0.098596 0.790444 0.117807
H10   H     H_    0.232778 0.869868 0.791188 0.124265
H11   H     H_    0.347236 0.761956 0.656450 0.143760
H12   H     H_    0.602432 0.893829 0.352153 0.159949
N1    N     N_R   0.500820 0.501210 0.147910 -0.234567
N2    N     N_R   0.500850 0.501290 0.852040 -0.231850
O1    O     O_R   0.499990 0.319640 0.618810 -0.492941
O2    O     O_R   0.812155 0.913322 0.073753 -0.696699
O3    O     O_R   0.500000 0.319660 0.381240 -0.494223
O4    O     O_R   0.376050 0.499990 0.618810 -0.496822
O5    O     O_R   0.376060 0.500010 0.381240 -0.475324
O6    O     O_R   0.500000 0.680340 0.618760 -0.520396
O7    O     O_R   0.500010 0.680360 0.381190 -0.512039
O8    O     O_R   0.623940 0.499990 0.618760 -0.493864
O9    O     O_R   0.623950 0.500010 0.381190 -0.492696
O10   O     O_2   0.767962 0.814123 0.272803 -0.550092

loop_
_geom_bond_atom_site_label_1
_geom_bond_atom_site_label_2
_ccdc_geom_bond_type
C23   C24   A    
C1    O3    A    
C13   H2    S    
C6    C7    A    
C15   O6    A    
C14   H7    S    
C7    C22   S    
C9    C10   A    
Cu2   O7    S    
Cu1   N2    S    
C19   C20   T    
C4    O4    A    
Cu1   O6    S    
H4    O2    S    
Cu2   N1    S    
C10   N2    A    
C1    C29   S    
C22   O2    S    
C15   O7    A    
C11   N1    A    
C23   C28   A    
C24   C25   A    
C3    H12   S    
C26   C27   A    
C22   O10   D    
C2    C29   A    
C23   H8    S    
C4    C17   S    
C9    H6    S    
C28   C29   A    
C24   H9    S    
Cu1   O4    S    
C17   C18   T    
C14   N2    A    
C2    C3    A    
Cu2   O3    S    
Cu2   O9    S    
Cu1   Cu2   S    
Cu1   O8    S    
C16   O9    A    
C1    O1    A    
C5    C15   S    
C10   C11   A    
Cu2   O5    S    
C6    H3    S    
C7    C8    A    
C20   C21   S    
C26   H11   S    
C2    H1    S    
C18   C19   S    
C8    H5    S    
C25   H10   S    
C6    C11   A    
C16   O8    A    
C13   C14   A    
C3    C5    A    
C25   C26   A    
C5    C27   A    
C12   C21   T    
Cu1   O1    S    
C13   N1    A    
C12   C16   S    
C4    O5    A    
C8    C9    A    
C27   C28   A    
