data_mof_unit_10104.cif
_audit_creation_date              2012-12-10T17:35:34-0500
_audit_creation_method            fapswitch 2.2
_symmetry_space_group_name_H-M    P1
_symmetry_Int_Tables_number       1
_space_group_crystal_system       triclinic
_cell_length_a                    10.786718
_cell_length_b                    12.379794
_cell_length_c                    13.28674
_cell_angle_alpha                 116.739301
_cell_angle_beta                  76.17591
_cell_angle_gamma                 101.491105
_cell_volume                      1530.01423349

loop_
_atom_site_label
_atom_site_type_symbol
_atom_type_description
_atom_site_fract_x
_atom_site_fract_y
_atom_site_fract_z
_atom_type_partial_charge
C1    C     C_R   0.512906 0.854283 0.286486 0.901818
C2    C     C_3   0.120980 0.002824 0.506538 -0.152614
C3    C     C_3   0.071302 0.126889 0.601580 -0.272464
C4    C     C_3   0.039895 0.892149 0.527578 0.200647
C5    C     C_R   0.396772 0.262927 0.033281 -0.084505
C6    C     C_R   0.479186 0.227652 0.835913 -0.047829
C7    C     C_R   0.616231 0.805905 0.084414 0.384927
C8    C     C_R   0.687776 0.721050 0.989327 -0.310768
C9    C     C_R   0.668277 0.598371 0.968039 -0.028321
C10   C     C_R   0.556805 0.556049 0.028425 -0.059258
C11   C     C_R   0.492092 0.641076 0.131252 -0.059948
C12   C     C_R   0.738877 0.001789 0.503635 0.824549
C13   C     C_R   0.505576 0.432058 0.988642 -0.073992
C14   C     C_R   0.428577 0.388626 0.067620 0.048404
C15   C     C_R   0.375410 0.471781 0.175538 0.290628
C16   C     C_R   0.389817 0.596304 0.197652 0.323323
C17   C     C_R   0.517182 0.353330 0.870867 0.413435
C18   C     C_R   0.425417 0.182830 0.918602 -0.261544
C19   C     C_R   0.531927 0.767788 0.164063 -0.039776
C20   C     C_R   0.676524 0.331165 0.302874 0.352267
C21   C     C_R   0.321418 0.758574 0.642729 0.127367
C22   C     C_R   0.275023 0.658281 0.666696 -0.258863
C23   C     C_R   0.486740 0.145150 0.713381 0.923937
C24   C     C_R   0.338934 0.554064 0.609564 -0.131769
C25   C     C_R   0.454150 0.550194 0.530517 0.060111
C26   C     C_R   0.492045 0.652552 0.503698 0.255339
C27   C     C_R   0.527892 0.446697 0.471681 -0.118530
C28   C     C_R   0.624043 0.441464 0.375993 -0.076565
C29   C     C_R   0.662921 0.545842 0.353751 -0.018124
C30   C     C_R   0.596526 0.647556 0.416896 -0.255779
C31   C     C_R   0.510157 0.348240 0.503809 0.489572
C32   C     C_R   0.656194 0.237249 0.338455 0.440620
C33   C     C_R   0.260040 0.001150 0.502094 0.876682
C34   C     C_3   0.956895 0.994000 0.391479 -0.482643
C35   C     C_3   0.100941 0.993469 0.389331 -0.242679
C36   C     C_3   0.923507 0.120883 0.607520 0.219548
C37   C     C_3   0.896739 0.887218 0.522470 -0.287667
C38   C     C_3   0.875556 0.002146 0.507934 -0.076802
Cu1   Cu    Cu3+1 0.529690 0.098270 0.475420 1.035356
Cu2   Cu    Cu3+1 0.470310 0.901730 0.524580 0.991361
H1    H     H_    0.945176 0.071356 0.374754 0.189577
H2    H     H_    0.870231 0.117140 0.688083 0.229004
H3    H     H_    0.395955 0.086672 0.893828 0.185721
H4    H     H_    0.343763 0.226577 0.093532 0.204770
H5    H     H_    0.764855 0.752565 0.936527 0.189833
H6    H     H_    0.919517 0.911374 0.320979 0.210813
H7    H     H_    0.270884 0.838952 0.686400 0.169901
H8    H     H_    0.291163 0.476583 0.624886 0.191271
H9    H     H_    0.187629 0.660191 0.727689 0.178783
H10   H     H_    0.630722 0.722633 0.395718 0.200705
H11   H     H_    0.152278 0.076877 0.379875 0.163000
H12   H     H_    0.120065 0.199143 0.573178 0.136664
H13   H     H_    0.876093 0.806738 0.442551 0.152111
H14   H     H_    0.075348 0.807068 0.456952 0.212500
N1    N     N_R   0.574690 0.246280 0.438200 -0.281931
N2    N     N_R   0.426100 0.754320 0.561190 -0.210828
O1    O     O_R   0.537340 0.972510 0.318130 -0.529410
O2    O     O_R   0.487200 0.806530 0.359650 -0.585311
O3    O     O_R   0.707380 0.082980 0.479220 -0.585665
O4    O     O_R   0.657240 0.917000 0.520740 -0.618782
O5    O     O_R   0.512800 0.193470 0.640350 -0.482310
O6    O     O_R   0.462660 0.027490 0.681870 -0.602798
O7    O     O_R   0.342760 0.083000 0.479260 -0.620224
O8    O     O_R   0.292620 0.917020 0.520780 -0.536138
O9    O     O_3   0.058625 0.890453 0.628518 -0.708031
H15   H     H_    0.015397 0.956550 0.695381 0.348073
C39   C     C_2   0.108274 0.170140 0.718724 0.827384
O10   O     O_2   0.221422 0.193701 0.728273 -0.628939
O11   O     O_R   0.014811 0.188672 0.816698 -0.731951
H16   H     H_    0.053232 0.218824 0.888506 0.352374
O12   O     O_3   0.300122 0.429114 0.252747 -0.738275
H17   H     H_    0.297006 0.496260 0.330607 0.336517
O13   O     O_3   0.554461 0.398991 0.789353 -0.660974
H18   H     H_    0.517968 0.477358 0.819641 0.339513
O14   O     O_3   0.635354 0.927229 0.105514 -0.657481
H19   H     H_    0.696550 0.937845 0.041012 0.343355
C40   C     C_2   0.770743 0.519874 0.889413 0.979783
O15   O     O_2   0.786326 0.431089 0.900909 -0.526734
O16   O     O_R   0.852192 0.549726 0.804370 -0.750048
H20   H     H_    0.918746 0.490373 0.757418 0.355561
O17   O     O_3   0.299995 0.672392 0.276326 -0.721242
H21   H     H_    0.220869 0.623249 0.294187 0.345143
O18   O     O_3   0.721292 0.137161 0.269275 -0.705773
H22   H     H_    0.733964 0.098863 0.315637 0.371365
C41   C     C_2   0.781607 0.558786 0.273939 0.964699
O19   O     O_2   0.780449 0.604417 0.209453 -0.612326
O20   O     O_R   0.895908 0.523464 0.276222 -0.698007
H23   H     H_    0.969943 0.536465 0.218031 0.350071
O21   O     O_3   0.742820 0.315301 0.194838 -0.681861
H24   H     H_    0.761226 0.229854 0.147761 0.383899
O22   O     O_3   0.437887 0.361358 0.607487 -0.694374
H25   H     H_    0.375283 0.288684 0.593187 0.362170
C42   C     C_2   0.156194 0.886460 0.284728 0.880860
O23   O     O_2   0.257597 0.903151 0.225977 -0.574381
O24   O     O_R   0.089258 0.770187 0.252395 -0.773334
H26   H     H_    0.132715 0.708555 0.177556 0.349879
O25   O     O_3   0.891996 0.227118 0.609540 -0.685285
H27   H     H_    0.941878 0.237551 0.540899 0.336126
C43   C     C_2   0.808018 0.858723 0.617887 0.917261
O26   O     O_2   0.752454 0.937574 0.702199 -0.600428
O27   O     O_R   0.792143 0.739801 0.608374 -0.718656
H28   H     H_    0.731092 0.730221 0.675571 0.343362

loop_
_geom_bond_atom_site_label_1
_geom_bond_atom_site_label_2
_ccdc_geom_bond_type
C2    C35   S    
O20   H23   S    
C42   O23   D    
Cu2   O4    S    
O13   H18   S    
C36   H2    S    
O24   H26   S    
O25   H27   S    
C7    C8    A    
C40   O15   D    
C11   C19   A    
O27   H28   S    
C28   C29   A    
C37   C38   S    
C4    O9    S    
C15   C16   A    
Cu1   O1    S    
Cu2   O6    S    
C34   C35   S    
C32   O18   S    
C8    H5    S    
C12   O3    A    
C23   O6    A    
Cu1   N1    S    
O18   H22   S    
C8    C9    A    
Cu2   N2    S    
C36   O25   S    
C34   H6    S    
C9    C10   A    
C32   N1    A    
C29   C41   S    
O22   H25   S    
C37   H13   S    
C40   O16   S    
C30   H10   S    
C42   O24   S    
C21   C22   A    
C17   O13   S    
C34   H1    S    
Cu1   O5    S    
O17   H21   S    
C35   C42   S    
C6    C18   A    
C1    C19   S    
Cu2   O2    S    
C41   O20   S    
C27   C31   A    
C39   O10   D    
C24   H8    S    
C24   C25   A    
Cu1   Cu2   S    
C7    O14   S    
C5    C18   A    
C20   C28   A    
C25   C26   A    
C41   O19   D    
C39   O11   S    
C2    C4    S    
O14   H19   S    
C29   C30   A    
C1    O1    A    
C11   C16   A    
C43   O26   D    
C33   O7    A    
Cu1   O3    S    
C9    C40   S    
C5    C14   A    
C22   H9    S    
C2    C33   S    
C43   O27   S    
C5    H4    S    
C26   C30   A    
C7    C19   A    
C35   H11   S    
C22   C24   A    
C37   C43   S    
C15   O12   S    
C20   C32   A    
C6    C17   A    
C4    H14   S    
C34   C38   S    
C3    C39   S    
C10   C13   A    
C26   N2    A    
C21   N2    A    
C3    H12   S    
C25   C27   A    
Cu1   O7    S    
C20   O21   S    
C31   O22   S    
Cu2   O8    S    
C13   C17   A    
C36   C38   S    
C2    C3    S    
O12   H17   S    
C1    O2    A    
C3    C36   S    
C33   O8    A    
C6    C23   S    
C16   O17   S    
C12   C38   S    
O11   H16   S    
C10   C11   A    
O16   H20   S    
C12   O4    A    
C23   O5    A    
C4    C37   S    
O9    H15   S    
C18   H3    S    
C27   C28   A    
C14   C15   A    
C31   N1    A    
O21   H24   S    
C13   C14   A    
C21   H7    S    
