data_mof_unit_67175.cif
_audit_creation_date              2012-12-11T17:48:50-0500
_audit_creation_method            fapswitch 2.2
_symmetry_space_group_name_H-M    P1
_symmetry_Int_Tables_number       1
_space_group_crystal_system       triclinic
_cell_length_a                    8.20282
_cell_length_b                    12.741114
_cell_length_c                    14.98045
_cell_angle_alpha                 97.722515
_cell_angle_beta                  97.617272
_cell_angle_gamma                 98.624988
_cell_volume                      1515.1603029

loop_
_atom_site_label
_atom_site_type_symbol
_atom_type_description
_atom_site_fract_x
_atom_site_fract_y
_atom_site_fract_z
_atom_type_partial_charge
Ba1   Ba    Ba6+2 0.843750 0.550210 0.455600 1.630962
Ba2   Ba    Ba6+2 0.346090 0.449880 0.544410 1.647110
C1    C     C_3   0.537771 0.918950 0.204957 -0.417353
C2    C     C_R   0.901327 0.431924 0.921369 -0.036137
C3    C     C_R   0.040022 0.449420 0.109217 -0.024358
C4    C     C_3   0.073588 0.767163 0.205011 0.371936
C5    C     C_R   0.880651 0.389940 0.074537 -0.048979
C6    C     C_R   0.812182 0.382421 0.983047 -0.112121
C7    C     C_R   0.108977 0.462998 0.203756 0.035701
C8    C     C_R   0.272075 0.517839 0.232215 -0.300986
C9    C     C_R   0.087118 0.531241 0.797438 0.069292
C10   C     C_R   0.153752 0.547132 0.893141 -0.046359
C11   C     C_R   0.063932 0.490895 0.953338 -0.020250
C12   C     C_3   0.590152 0.828420 0.252556 0.340666
C13   C     C_R   0.306083 0.615848 0.932681 0.200468
C14   C     C_R   0.382704 0.608057 0.019683 -0.107201
C15   C     C_R   0.297632 0.553313 0.078851 -0.058026
C16   C     C_3   0.032450 0.790006 0.108319 -0.378566
C17   C     C_R   0.133628 0.497902 0.047212 0.011958
C18   C     C_R   0.368608 0.559368 0.170738 0.004920
C19   C     C_R   0.931621 0.465048 0.767459 -0.259917
C20   C     C_R   0.774689 0.179086 0.531357 -0.275065
C21   C     C_R   0.420980 0.807124 0.460722 -0.286114
C22   C     C_R   0.389110 0.984693 0.429501 -0.103806
C23   C     C_3   0.412837 0.282708 0.266785 0.311905
C24   C     C_R   0.323045 0.877054 0.425124 -0.000520
C25   C     C_R   0.582116 0.845505 0.508318 0.073850
C26   C     C_R   0.648921 0.957653 0.517034 -0.056597
C27   C     C_R   0.551162 0.027095 0.475247 -0.066795
C28   C     C_3   0.273813 0.776546 0.649403 0.268051
C29   C     C_R   0.616139 0.138055 0.482781 0.031298
C30   C     C_R   0.873430 0.112280 0.569987 0.003695
C31   C     C_R   0.809651 0.003158 0.565688 -0.088292
C32   C     C_3   0.290617 0.898625 0.665536 -0.371415
C33   C     C_3   0.932176 0.218635 0.345855 0.275542
C34   C     C_3   0.369145 0.249540 0.163980 -0.407323
C35   C     C_3   0.935475 0.098990 0.325929 -0.343758
C36   C     C_3   0.869449 0.800256 0.738173 0.481616
C37   C     C_3   0.915080 0.896105 0.817429 -0.014399
C38   C     C_3   0.715381 0.640655 0.785212 -0.144696
C39   C     C_3   0.852439 0.970045 0.966929 -0.249743
C40   C     C_3   0.325721 0.804675 0.929948 -0.207581
C41   C     C_3   0.114204 0.227354 0.793466 0.553875
C42   C     C_3   0.143097 0.199886 0.889623 0.237360
C43   C     C_3   0.579522 0.165922 0.737201 0.360041
C44   C     C_3   0.640345 0.076455 0.781173 -0.383963
C45   C     C_R   0.832807 0.423568 0.828568 -0.020474
H1    H     H_    0.696902 0.861896 0.307727 0.086905
H2    H     H_    0.968342 0.811164 0.695941 0.028470
H3    H     H_    0.524256 0.987164 0.256312 0.105278
H4    H     H_    0.048300 0.902683 0.847044 0.041446
H5    H     H_    0.904881 0.970889 0.789043 0.073273
H6    H     H_    0.482680 0.794417 0.283681 -0.042948
H7    H     H_    0.416128 0.890196 0.160128 0.105440
H8    H     H_    0.300890 0.304985 0.293566 0.020104
H9    H     H_    0.515150 0.353327 0.281002 0.060527
H10   H     H_    0.263709 0.180799 0.147407 0.117705
H11   H     H_    0.332285 0.317542 0.131603 0.070372
H12   H     H_    0.338072 0.931028 0.738153 0.137688
H13   H     H_    0.479085 0.225527 0.135793 0.124594
H14   H     H_    0.631899 0.946999 0.162749 0.127107
H15   H     H_    0.111794 0.865466 0.099821 0.102250
H16   H     H_    0.198136 0.303837 0.791754 0.064199
H17   H     H_    0.982084 0.238382 0.777964 -0.263142
H18   H     H_    0.113965 0.265183 0.938825 -0.011261
H19   H     H_    0.058933 0.124276 0.892299 0.002943
H20   H     H_    0.679180 0.198262 0.699711 -0.045137
H21   H     H_    0.464944 0.132912 0.687651 0.097904
H22   H     H_    0.766341 0.108624 0.819608 0.090554
H23   H     H_    0.377178 0.934877 0.623110 0.067670
H24   H     H_    0.646483 0.008337 0.727988 0.087334
H25   H     H_    0.993725 0.690599 0.210455 0.093580
H26   H     H_    0.556968 0.048713 0.829032 0.159286
H27   H     H_    0.806158 0.348242 0.117362 0.103243
H28   H     H_    0.688445 0.336126 0.961439 0.130303
H29   H     H_    0.504719 0.655653 0.042701 0.106316
H30   H     H_    0.326554 0.525583 0.303122 0.073630
H31   H     H_    0.879598 0.453977 0.695921 0.073130
H32   H     H_    0.309938 0.034669 0.398764 0.100350
H33   H     H_    0.888348 0.955529 0.599623 0.077974
H34   H     H_    0.168223 0.923308 0.647373 0.112310
H35   H     H_    0.824675 0.263551 0.535825 0.059050
H36   H     H_    0.206666 0.757827 0.217076 -0.074678
H37   H     H_    0.367525 0.723276 0.456245 0.065122
H38   H     H_    0.055711 0.722833 0.058974 0.065080
H39   H     H_    0.899112 0.798145 0.093646 0.148713
H40   H     H_    0.393471 0.753916 0.636327 0.039184
H41   H     H_    0.176827 0.744875 0.588826 0.065426
H42   H     H_    0.967609 0.704100 0.826533 0.141932
H43   H     H_    0.728436 0.609189 0.850812 0.051768
H44   H     H_    0.673416 0.575643 0.726290 0.147128
H45   H     H_    0.809571 0.231125 0.363175 0.001378
H46   H     H_    0.618454 0.691470 0.787197 0.158245
H47   H     H_    0.802925 0.811998 0.910693 0.195413
H48   H     H_    0.774918 0.949734 0.019647 0.112123
H49   H     H_    0.825183 0.047198 0.948325 0.115701
H50   H     H_    0.986156 0.979346 0.996848 0.099396
H51   H     H_    0.315139 0.157878 0.971208 0.289163
H52   H     H_    0.501570 0.714842 0.902193 0.177418
H53   H     H_    0.363909 0.867572 0.888715 0.136671
H54   H     H_    0.388942 0.832114 0.001288 0.085299
H55   H     H_    0.189127 0.794768 0.929087 0.089500
H56   H     H_    0.031345 0.253452 0.404558 0.079705
H57   H     H_    0.844306 0.061951 0.264516 0.119426
H58   H     H_    0.903375 0.059701 0.384340 0.087377
H59   H     H_    0.061822 0.085908 0.313367 0.132527
N1    N     N_2   0.872871 0.700262 0.773272 -0.470496
N2    N     N_2   0.811324 0.885436 0.888713 -0.408708
N3    N     N_2   0.373587 0.704627 0.893481 -0.388929
O1    O     O_2   0.827880 0.435260 0.277750 -0.465083
O2    O     O_2   0.212150 0.118914 0.564394 -0.491769
O3    O     O_3   0.148164 0.143784 0.730985 -0.613340
O4    O     O_3   0.100280 0.438960 0.391170 -0.500433
O5    O     O_3   0.587780 0.631850 0.546230 -0.478257
O6    O     O_2   0.332590 0.233690 0.456160 -0.468065
O7    O     O_3   0.463246 0.196078 0.305312 -0.649198
O8    O     O_2   0.491144 0.439350 0.827834 -0.490218
O9    O     O_3   0.542293 0.241306 0.805683 -0.544544
O10   O     O_3   0.625580 0.634130 0.333250 -0.478540
O11   O     O_2   0.712331 0.558812 0.175886 -0.489296
O12   O     O_3   0.710628 0.800494 0.688980 -0.658986
O13   O     O_3   0.955509 0.262981 0.267132 -0.641160
O14   O     O_3   0.640489 0.752782 0.189077 -0.605303
O15   O     O_2   0.857130 0.766340 0.543890 -0.491517
O16   O     O_3   0.056550 0.691050 0.379010 -0.488574
O17   O     O_2   0.987373 0.881611 0.436158 -0.487821
O18   O     O_3   0.309175 0.187526 0.913170 -0.689333
O19   O     O_3   0.042363 0.852193 0.267043 -0.599822
O20   O     O_2   0.361830 0.564780 0.722310 -0.470024
O21   O     O_3   0.089430 0.561130 0.608830 -0.495100
O22   O     O_3   0.564130 0.365960 0.666760 -0.483069
O23   O     O_3   0.232737 0.737270 0.727872 -0.622838
O24   O     O_3   0.601940 0.368240 0.453770 -0.479062
O25   O     O_3   0.133170 0.309040 0.621000 -0.489971
P1    P     P_3+3 0.998730 0.403530 0.291970 0.969686
P2    P     P_3+3 0.687380 0.751030 0.571310 0.970631
P3    P     P_3+3 0.103015 0.827812 0.377901 0.949338
P4    P     P_3+3 0.190990 0.596560 0.708040 1.013765
P5    P     P_3+3 0.090789 0.170044 0.620383 0.945829
P6    P     P_3+3 0.586545 0.623587 0.215705 0.951362
P7    P     P_3+3 0.506862 0.232397 0.423975 0.930639
P8    P     P_3+3 0.608702 0.370429 0.784037 0.961287

loop_
_geom_bond_atom_site_label_1
_geom_bond_atom_site_label_2
_ccdc_geom_bond_type
C43   O9    S    
C37   H4    S    
O6    P7    D    
O17   P3    D    
C39   N2    S    
C13   N3    S    
C42   H19   S    
C23   H9    S    
C38   H46   S    
C2    C6    A    
C24   P3    S    
C15   C18   A    
C42   H18   S    
C41   H16   S    
C5    C6    A    
C42   O18   S    
C36   H2    S    
C43   C44   S    
C4    H25   S    
C45   P8    S    
H47   N2    S    
C3    C7    A    
C16   H39   S    
C20   C30   A    
O10   P6    S    
C20   H35   S    
C26   C27   A    
C33   C35   S    
C40   N3    S    
Ba1   O16   S    
C33   H56   S    
C36   C37   S    
Ba2   O4    S    
C39   H49   S    
O23   P4    S    
C13   C14   A    
H52   N3    S    
C2    C11   A    
Ba2   O20   S    
Ba1   Ba2   S    
Ba1   O10   S    
C21   C24   A    
C36   N1    S    
C22   C27   A    
C44   H22   S    
Ba2   O21   S    
C8    H30   S    
O20   P4    D    
C8    C18   A    
C14   C15   A    
C19   H31   S    
C43   H20   S    
O11   P6    D    
C32   H34   S    
C21   C25   A    
Ba1   P2    S    
C7    C8    A    
C32   H23   S    
C33   H45   S    
C37   H5    S    
C38   H44   S    
O3    P5    S    
O1    P1    D    
Ba1   O4    S    
Ba1   O24   S    
C40   H55   S    
C1    H3    S    
C41   H17   S    
C5    H27   S    
C1    H14   S    
C37   N2    S    
C4    C16   S    
Ba2   O24   S    
C21   H37   S    
O15   P2    D    
O2    P5    D    
Ba2   P4    S    
C30   P5    S    
C34   H10   S    
C20   C29   A    
C23   O7    S    
O25   P5    S    
C3    C5    A    
C28   C32   S    
C16   H15   S    
C11   C17   A    
C12   H1    S    
O16   P3    S    
O14   P6    S    
C9    C19   A    
C6    H28   S    
C4    H36   S    
C29   P7    S    
C41   C42   S    
C35   H58   S    
C40   H53   S    
Ba1   O1    S    
Ba2   O6    S    
C22   H32   S    
C10   C13   A    
H42   N1    S    
C43   H21   S    
Ba2   O22   S    
Ba2   O25   S    
O22   P8    S    
C44   H24   S    
C1    C12   S    
C1    H7    S    
O19   P3    S    
C7    P1    S    
H51   O18   S    
C26   C31   A    
Ba1   O21   S    
C38   N1    S    
O4    P1    S    
C32   H12   S    
C39   H50   S    
Ba1   O5    S    
C25   P2    S    
C28   H41   S    
O21   P4    S    
C40   H54   S    
O5    P2    S    
C12   O14   S    
C16   H38   S    
C14   H29   S    
O24   P7    S    
C9    P4    S    
C33   O13   S    
C23   H8    S    
C22   C24   A    
O9    P8    S    
C35   H57   S    
C9    C10   A    
C31   H33   S    
C3    C17   A    
C34   H11   S    
C30   C31   A    
C18   P6    S    
O8    P8    D    
Ba1   O15   S    
C4    O19   S    
C35   H59   S    
C27   C29   A    
Ba2   O5    S    
C39   H48   S    
C28   O23   S    
C15   C17   A    
O12   P2    S    
O13   P1    S    
C36   O12   S    
C23   C34   S    
O7    P7    S    
C12   H6    S    
C10   C11   A    
C41   O3    S    
C25   C26   A    
C34   H13   S    
C38   H43   S    
C28   H40   S    
Ba1   P1    S    
C44   H26   S    
C19   C45   A    
C2    C45   A    
