data_mof_unit_55290.cif
_audit_creation_date              2012-12-10T20:27:58-0500
_audit_creation_method            fapswitch 2.2
_symmetry_space_group_name_H-M    P1
_symmetry_Int_Tables_number       1
_space_group_crystal_system       triclinic
_cell_length_a                    12.832011
_cell_length_b                    10.683856
_cell_length_c                    9.881455
_cell_angle_alpha                 89.93345
_cell_angle_beta                  97.381763
_cell_angle_gamma                 90.350882
_cell_volume                      1343.4486977

loop_
_atom_site_label
_atom_site_type_symbol
_atom_type_description
_atom_site_fract_x
_atom_site_fract_y
_atom_site_fract_z
_atom_type_partial_charge
C1    C     C_R   0.501979 0.260049 0.500383 0.885099
C2    C     C_R   0.548794 0.935619 0.392417 -0.219781
C3    C     C_R   0.518498 0.871231 0.504893 -0.089646
C4    C     C_R   0.298565 0.501373 0.473110 0.894311
C5    C     C_R   0.504579 0.935524 0.623478 0.094353
C6    C     C_3   0.419050 0.923596 0.712400 -0.473068
C7    C     C_3   0.412760 0.065606 0.708772 -0.216358
C8    C     C_R   0.445865 0.410156 0.061855 0.184781
C9    C     C_R   0.558351 0.584114 0.081544 -0.032339
C10   C     C_R   0.558474 0.584080 0.937756 -0.096652
C11   C     C_R   0.447564 0.408648 0.919761 0.195554
C12   C     C_R   0.027320 0.482889 0.549370 0.156702
C13   C     C_3   0.333104 0.379678 0.891250 -0.524474
C14   C     C_3   0.329709 0.383839 0.044432 -0.283805
C15   C     C_R   0.503526 0.739799 0.500608 0.864358
C16   C     C_R   0.701642 0.505525 0.526941 0.853541
C17   C     C_R   0.814286 0.513990 0.544492 -0.117191
C18   C     C_R   0.187847 0.518187 0.457447 -0.074005
C19   C     C_R   0.038640 0.645406 0.376343 0.006567
C20   C     C_R   0.142996 0.613304 0.373609 -0.268995
C21   C     C_R   0.131619 0.455597 0.546813 -0.248547
C22   C     C_2   0.803573 0.666983 0.351983 0.412700
C23   C     C_R   0.976414 0.573879 0.458401 0.094100
C24   C     C_1   0.312686 0.110635 0.635420 0.201994
C25   C     C_2   0.262055 0.488805 0.084912 0.521437
C26   C     C_1   0.004614 0.759739 0.306182 0.231788
C27   C     C_R   0.866644 0.586851 0.454268 -0.088303
C28   C     C_R   0.868549 0.436619 0.642592 -0.189196
C29   C     C_R   0.974520 0.419536 0.643631 -0.191588
C30   C     C_R   0.500326 0.062969 0.621725 0.086191
C31   C     C_R   0.514813 0.128368 0.503597 -0.098252
C32   C     C_R   0.547382 0.065219 0.392038 -0.206885
H1    H     H_    0.449124 0.886420 0.815068 0.202135
H2    H     H_    0.191631 0.668051 0.313151 0.182584
H3    H     H_    0.170162 0.386466 0.616341 0.154909
H4    H     H_    0.565824 0.114928 0.302406 0.171564
H5    H     H_    0.567418 0.886615 0.302710 0.167929
H6    H     H_    0.348493 0.873555 0.660901 0.209470
H7    H     H_    0.749104 0.734402 0.384912 0.039141
H8    H     H_    0.192762 0.466545 0.132785 0.056296
H9    H     H_    0.435765 0.110718 0.809531 0.151466
H10   H     H_    0.603098 0.654281 0.143044 0.163839
H11   H     H_    0.604038 0.653686 0.891136 0.149630
H12   H     H_    0.288141 0.455029 0.832529 0.240798
H13   H     H_    0.317912 0.284653 0.848045 0.180615
H14   H     H_    0.310722 0.291659 0.087869 0.131310
H15   H     H_    0.827497 0.381927 0.711868 0.166360
H16   H     H_    0.014733 0.353589 0.715538 0.147859
N1    N     N_R   0.499290 0.499140 0.142710 -0.103851
N2    N     N_R   0.499290 0.499180 0.857070 -0.105510
N3    N     N_1   0.234133 0.145561 0.577506 -0.230095
N4    N     N_1   0.978315 0.851696 0.250165 -0.179091
O1    O     O_R   0.500010 0.316790 0.614690 -0.619646
O2    O     O_2   0.282063 0.598030 0.061305 -0.570123
O3    O     O_R   0.500000 0.316760 0.385350 -0.628913
O4    O     O_R   0.346360 0.499990 0.595720 -0.616593
O5    O     O_R   0.346350 0.499960 0.366370 -0.618661
O6    O     O_R   0.500000 0.683240 0.614650 -0.618850
O7    O     O_R   0.499990 0.683210 0.385310 -0.622266
O8    O     O_R   0.653650 0.500040 0.633630 -0.619925
O9    O     O_R   0.653640 0.500010 0.404280 -0.606832
O10   O     O_2   0.806576 0.651336 0.230150 -0.575359
Zn1   Zn    Zn3+2 0.500010 0.500020 0.653130 0.957641
Zn2   Zn    Zn3+2 0.499990 0.499980 0.346870 0.977780

loop_
_geom_bond_atom_site_label_1
_geom_bond_atom_site_label_2
_ccdc_geom_bond_type
C4    O5    A    
O9    Zn2   S    
C19   C23   A    
C6    H6    S    
C28   H15   S    
C6    C7    S    
C21   H3    S    
C26   N4    T    
C12   C29   A    
C22   O10   D    
C18   C21   A    
C11   C13   S    
C9    C10   A    
C31   C32   A    
C12   C23   A    
C6    H1    S    
C22   C27   S    
C4    C18   S    
O3    Zn2   S    
C24   N3    T    
C7    H9    S    
C2    C3    A    
C1    O3    A    
O4    Zn1   S    
C20   H2    S    
C14   H14   S    
C7    C30   S    
C13   C14   S    
C4    O4    A    
C13   H13   S    
N2    Zn1   S    
O1    Zn1   S    
C2    H5    S    
C9    H10   S    
C30   C31   A    
C8    C11   A    
C22   H7    S    
C32   H4    S    
C28   C29   A    
C18   C20   A    
C23   C27   A    
O8    Zn1   S    
C14   C25   S    
C5    C6    S    
C15   O6    A    
C8    N1    A    
N1    Zn2   S    
C16   O9    A    
C29   H16   S    
C7    C24   S    
C17   C27   A    
O7    Zn2   S    
C1    C31   S    
C9    N1    A    
C25   O2    D    
O5    Zn2   S    
C2    C32   A    
C5    C30   A    
C16   O8    A    
O6    Zn1   S    
C11   N2    A    
C19   C26   S    
C1    O1    A    
C25   H8    S    
C3    C15   S    
C8    C14   S    
C10   H11   S    
C17   C28   A    
C15   O7    A    
C12   C21   A    
C13   H12   S    
C19   C20   A    
C16   C17   S    
C3    C5    A    
C10   N2    A    
