data_mof_unit_35383.cif
_audit_creation_date              2013-03-05T16:30:42-0500
_audit_creation_method            fapswitch 2.2
_symmetry_space_group_name_H-M    P1
_symmetry_Int_Tables_number       1
_space_group_crystal_system       triclinic
_cell_length_a                    10.899293
_cell_length_b                    10.883295
_cell_length_c                    9.5485
_cell_angle_alpha                 89.602772
_cell_angle_beta                  89.630965
_cell_angle_gamma                 90.222387
_cell_volume                      1132.58573705

loop_
_atom_site_label
_atom_site_type_symbol
_atom_site_description
_atom_site_fract_x
_atom_site_fract_y
_atom_site_fract_z
_atom_type_partial_charge
O1    O     O_R   0.500000 0.319640 0.618810 -0.580665
O2    O     O_R   0.500010 0.319680 0.381230 -0.577751
C1    C     C_R   0.498843 0.262841 0.500283 0.856538
O3    O     O_R   0.321940 0.499980 0.618760 -0.590309
O4    O     O_R   0.321950 0.500020 0.381180 -0.577508
C2    C     C_R   0.265189 0.496512 0.500661 0.865336
Cu1   Cu    Cu3+1 0.499990 0.499980 0.640670 1.020837
Cu2   Cu    Cu3+1 0.500010 0.500020 0.359330 1.037218
O5    O     O_R   0.499990 0.680320 0.618770 -0.599903
O6    O     O_R   0.500000 0.680360 0.381190 -0.545780
O7    O     O_R   0.678050 0.499980 0.618820 -0.538094
O8    O     O_R   0.678060 0.500020 0.381240 -0.567894
C3    C     C_R   0.494937 0.737300 0.498919 0.827839
C4    C     C_R   0.734732 0.496604 0.499208 0.908000
C5    C     C_2   0.934442 0.444416 0.394003 0.330224
C6    C     C_2   0.867394 0.497902 0.496291 -0.366766
H1    H     H_    0.910034 0.553779 0.575845 0.171707
C7    C     C_2   0.068020 0.464105 0.388700 -0.195058
C8    C     C_2   0.133156 0.482976 0.505011 -0.350135
H2    H     H_    0.114242 0.456571 0.287948 0.210427
C9    C     C_R   0.497095 0.060614 0.620182 0.035521
C10   C     C_R   0.494028 0.130565 0.498616 -0.140802
C11   C     C_R   0.482711 0.067702 0.370792 -0.198129
C12   C     C_R   0.476176 0.938696 0.367429 0.336882
C13   C     C_R   0.486818 0.870220 0.494948 -0.180926
C14   C     C_R   0.493950 0.936733 0.618199 -0.007188
C15   C     C_3   0.503381 0.923895 0.773303 -0.396145
C16   C     C_3   0.505349 0.065466 0.776201 0.181026
C17   C     C_R   0.555922 0.592945 0.073040 0.278012
N1    N     N_R   0.500780 0.500930 0.147930 -0.182299
C18   C     C_R   0.433496 0.416186 0.075522 0.013520
H3    H     H_    0.381733 0.346700 0.132166 0.130958
C19   C     C_R   0.432889 0.416659 0.926630 0.034378
H4    H     H_    0.380438 0.347779 0.871730 0.124682
N2    N     N_R   0.500780 0.500890 0.852020 -0.182791
C20   C     C_R   0.559303 0.590692 0.925957 0.139583
C21   C     C_3   0.693661 0.624207 0.925674 0.091155
C22   C     C_3   0.686257 0.632503 0.084301 -0.480176
H5    H     H_    0.714440 0.713258 0.873004 0.120804
H6    H     H_    0.744617 0.564765 0.139895 0.255118
H7    H     H_    0.694507 0.728128 0.123260 0.208447
N3    N     N_R   0.879383 0.367657 0.288894 0.146217
O9    O     O_R   0.926875 0.363678 0.163633 -0.291858
O10   O     O_R   0.797051 0.286033 0.324361 -0.304204
N4    N     N_R   0.622181 0.115096 0.825273 0.181061
O11   O     O_R   0.724398 0.092046 0.759347 -0.297056
O12   O     O_R   0.625342 0.174813 0.942664 -0.273435
N5    N     N_R   0.775989 0.525111 0.882800 0.179395
O13   O     O_R   0.888045 0.552489 0.846518 -0.352756
O14   O     O_R   0.747885 0.410680 0.907959 -0.227581
H8    H     H_    0.090604 0.480488 0.608080 0.193616
H9    H     H_    0.475527 0.118291 0.273053 0.207435
N6    N     N_R   0.453793 0.881212 0.235182 0.121846
O15   O     O_R   0.355112 0.815284 0.218844 -0.346117
O16   O     O_R   0.515127 0.916916 0.124755 -0.375658
H10   H     H_    0.419115 0.883043 0.820765 0.203385
H11   H     H_    0.590688 0.880214 0.805538 0.215590
H12   H     H_    0.423644 0.107167 0.827305 0.100226

loop_
_geom_bond_atom_site_label_1
_geom_bond_atom_site_label_2
_geom_bond_distance
_ccdc_geom_bond_type
C17   C22   1.487532 S    
C5    C7    1.471270 S    
C22   H6    1.110144 S    
C9    C14   1.348803 A    
C18   C19   1.421725 A    
C21   C22   1.519609 S    
C16   H12   1.112538 S    
O4    Cu2   1.950574 S    
N2    C20   1.367846 A    
Cu2   O8    1.953203 S    
C11   C12   1.406136 A    
Cu2   N1    2.018473 S    
C9    C10   1.384387 A    
N5    O14   1.301716 A    
C19   H4    1.081466 S    
C14   C15   1.490868 S    
Cu1   Cu2   2.686371 S    
C21   H5    1.110666 S    
N6    O15   1.301421 A    
C21   N5    1.464517 S    
Cu1   O7    1.950573 S    
C2    C8    1.446317 S    
C17   C20   1.405052 A    
C3    C13   1.449900 S    
C11   H9    1.083698 S    
C17   N1    1.362091 A    
N3    O10   1.301857 A    
O3    Cu1   1.953203 S    
O4    C2    1.294565 A    
Cu2   O6    1.975200 S    
C20   C21   1.507758 S    
C19   N2    1.369060 A    
C9    C16   1.494325 S    
O8    C4    1.288525 A    
O2    C1    1.290383 A    
C8    H8    1.085371 S    
C7    H2    1.086826 S    
N6    O16   1.301117 A    
N1    C18   1.369871 A    
O7    C4    1.295802 A    
C4    C6    1.446031 S    
C16   N4    1.462413 S    
N3    O9    1.301260 A    
C5    C6    1.352329 D    
N4    O11   1.302194 A    
C12   C13   1.428750 A    
C12   N6    1.434996 S    
C22   H7    1.111142 S    
O3    C2    1.290368 A    
C7    C8    1.338587 D    
C15   H11   1.109721 S    
N4    O12   1.300173 A    
C15   C16   1.541272 S    
Cu1   O5    1.972359 S    
O5    C3    1.299417 A    
C15   H10   1.111424 S    
N5    O13   1.300290 A    
C1    C10   1.440557 S    
C13   C14   1.388385 A    
O1    Cu1   1.975201 S    
Cu1   N2    2.018242 S    
C10   C11   1.409200 A    
O2    Cu2   1.972359 S    
C18   H3    1.081580 S    
C5    N3    1.442488 S    
C6    H1    1.082394 S    
O1    C1    1.293433 A    
O6    C3    1.288362 A    
