data_mof_unit_68300.cif
_audit_creation_date              2012-10-26T18:48:16-0400
_audit_creation_method            fapswitch 2.2
_symmetry_space_group_name_H-M    P1
_symmetry_Int_Tables_number       1
_space_group_crystal_system       triclinic
_cell_length_a                    10.615455
_cell_length_b                    8.77696
_cell_length_c                    7.465446
_cell_angle_alpha                 103.139
_cell_angle_beta                  94.602184
_cell_angle_gamma                 92.797764
_cell_volume                      673.560737962

loop_
_atom_site_label
_atom_site_type_symbol
_atom_type_description
_atom_site_fract_x
_atom_site_fract_y
_atom_site_fract_z
_atom_type_partial_charge
C1    C     C_R   0.494751 0.200409 0.453875 0.512364
C2    C     C_3   0.123693 0.500312 0.503815 -0.003146
C3    C     C_3   0.969777 0.619827 0.629921 -0.040798
C4    C     C_3   0.030223 0.380173 0.370079 -0.040798
C5    C     C_2   0.480201 0.033856 0.430448 -0.054350
C6    C     C_2   0.519799 0.966144 0.569552 -0.054350
C7    C     C_1   0.903659 0.217178 0.565796 0.241649
C8    C     C_1   0.096341 0.782822 0.434204 0.241649
C9    C     C_1   0.934186 0.751342 0.772555 0.259016
C10   C     C_1   0.065813 0.248658 0.227444 0.259016
C11   C     C_1   0.412920 0.948487 0.255745 0.299223
C12   C     C_R   0.505249 0.799591 0.546125 0.512364
C13   C     C_1   0.587080 0.051513 0.744255 0.299223
C14   C     C_R   0.259843 0.499895 0.501623 0.535611
C15   C     C_R   0.740157 0.500105 0.498377 0.535611
C16   C     C_3   0.049009 0.485707 0.668980 -0.132443
C17   C     C_3   0.950990 0.514293 0.331020 -0.132443
C18   C     C_3   0.954596 0.365851 0.532804 -0.038400
C19   C     C_3   0.045404 0.634149 0.467195 -0.038400
C20   C     C_3   0.876306 0.499688 0.496185 -0.003146
Cu1   Cu    Cu3+1 0.514140 0.517380 0.684380 1.204815
Cu2   Cu    Cu3+1 0.485860 0.482620 0.315620 1.204815
F1    F     F_    0.375458 0.360723 0.925678 -0.536169
F2    F     F_    0.624542 0.639277 0.074322 -0.536169
H1    H     H_    0.090381 0.474275 0.806372 0.169851
H2    H     H_    0.909618 0.525725 0.193628 0.169851
N1    N     N_2   0.464560 0.456420 0.038510 0.189961
N2    N     N_2   0.535440 0.543580 0.961490 0.189962
N3    N     N_1   0.863917 0.099612 0.591198 -0.258736
N4    N     N_1   0.136083 0.900388 0.408802 -0.258736
N5    N     N_1   0.905765 0.854624 0.884965 -0.198152
N6    N     N_1   0.094234 0.145376 0.115035 -0.198152
N7    N     N_1   0.359510 0.881468 0.116683 -0.208519
N8    N     N_1   0.640490 0.118532 0.883317 -0.208519
O1    O     O_R   0.509190 0.286130 0.619780 -0.481821
O2    O     O_R   0.490810 0.713870 0.380220 -0.481822
O3    O     O_R   0.485310 0.256770 0.308360 -0.488728
O4    O     O_R   0.514690 0.743230 0.691640 -0.488727
O5    O     O_R   0.328790 0.514640 0.655680 -0.470197
O6    O     O_R   0.671210 0.485360 0.344320 -0.470196
O7    O     O_R   0.304910 0.485280 0.344260 -0.501033
O8    O     O_R   0.695090 0.514720 0.655740 -0.501033

loop_
_geom_bond_atom_site_label_1
_geom_bond_atom_site_label_2
_ccdc_geom_bond_type
C2    C4    S    
C3    C19   S    
Cu1   O1    S    
F1    N1    S    
C12   O2    A    
C2    C16   S    
Cu1   O5    S    
C1    O3    A    
C7    C18   S    
Cu2   O6    S    
C14   O5    A    
C8    N4    T    
C13   N8    T    
C3    C20   S    
Cu1   Cu2   S    
C6    C13   S    
C6    C12   S    
C5    C6    D    
C14   O7    A    
C3    C9    S    
C17   H2    S    
C17   C19   S    
Cu1   N2    S    
C5    C11   S    
C18   C20   S    
Cu2   N1    S    
C12   O4    A    
C15   C20   S    
C2    C14   S    
C1    C5    S    
C15   O6    A    
Cu2   O7    S    
C4    C17   S    
C4    C10   S    
C7    N3    T    
C8    C19   S    
C10   N6    T    
C11   N7    T    
C17   C20   S    
Cu2   O2    S    
C1    O1    A    
F2    N2    S    
C16   C18   S    
C16   H1    S    
C9    N5    T    
Cu1   O4    S    
C2    C19   S    
Cu2   O3    S    
C4    C18   S    
C3    C16   S    
Cu1   O8    S    
C15   O8    A    
N1    N2    D    
