data_mof_unit_40913.cif
_audit_creation_date              2012-12-10T17:47:02-0500
_audit_creation_method            fapswitch 2.2
_symmetry_space_group_name_H-M    P1
_symmetry_Int_Tables_number       1
_space_group_crystal_system       triclinic
_cell_length_a                    9.962682
_cell_length_b                    10.641052
_cell_length_c                    13.6192
_cell_angle_alpha                 92.424599
_cell_angle_beta                  84.521045
_cell_angle_gamma                 88.99541
_cell_volume                      1435.5971359

loop_
_atom_site_label
_atom_site_type_symbol
_atom_type_description
_atom_site_fract_x
_atom_site_fract_y
_atom_site_fract_z
_atom_type_partial_charge
C1    C     C_R   0.500025 0.738784 0.493081 0.865749
C2    C     C_1   0.466218 0.516843 0.788286 -0.163717
C3    C     C_R   0.346981 0.866199 0.348442 -0.362826
C4    C     C_R   0.262938 0.932356 0.288845 0.560169
C5    C     C_R   0.270976 0.062809 0.288512 -0.186296
C6    C     C_R   0.353705 0.127624 0.348598 -0.283060
C7    C     C_R   0.427012 0.063749 0.415638 0.116161
C8    C     C_R   0.424450 0.931931 0.415471 0.048643
C9    C     C_R   0.501822 0.870850 0.482161 -0.076360
C10   C     C_R   0.586169 0.936608 0.541073 -0.238513
C11   C     C_R   0.588577 0.064405 0.540695 -0.224944
C12   C     C_R   0.477673 0.502191 0.685211 0.909629
C13   C     C_R   0.506037 0.127683 0.481831 -0.091436
C14   C     C_R   0.833659 0.638999 0.645955 -0.297306
C15   C     C_R   0.882629 0.676967 0.734853 0.450548
C16   C     C_R   0.019930 0.669213 0.740416 -0.380296
C17   C     C_R   0.107677 0.641816 0.654691 0.460750
C18   C     C_R   0.059541 0.570034 0.573910 0.058783
C19   C     C_R   0.915565 0.569724 0.572065 0.057535
C20   C     C_R   0.939013 0.430667 0.432535 -0.092854
C21   C     C_R   0.081508 0.429650 0.433256 -0.132352
C22   C     C_R   0.501772 0.260574 0.494147 0.856463
C23   C     C_R   0.522798 0.497283 0.314610 0.880881
C24   C     C_1   0.538362 0.483288 0.211157 -0.200822
C25   C     C_2   0.553821 0.459693 0.019018 0.547040
C26   C     C_2   0.478427 0.542788 0.977319 -0.272987
C27   C     C_1   0.466628 0.530672 0.875065 0.080709
C28   C     C_1   0.549471 0.470475 0.123655 -0.146431
H1    H     H_    0.428938 0.622464 0.018911 0.110318
H2    H     H_    0.058873 0.700684 0.808577 0.174343
H3    H     H_    0.142692 0.369761 0.379954 0.134293
H4    H     H_    0.353977 0.765021 0.341453 0.161612
H5    H     H_    0.213309 0.114964 0.239659 0.158634
H6    H     H_    0.360134 0.227928 0.340529 0.173482
H7    H     H_    0.651051 0.114457 0.589617 0.175356
N1    N     N_R   0.857120 0.501200 0.500900 -0.091388
N2    N     N_R   0.142720 0.501280 0.500940 -0.096736
O1    O     O_R   0.385310 0.683220 0.500000 -0.566659
O2    O     O_R   0.614640 0.683250 0.500010 -0.641983
O3    O     O_R   0.368830 0.499960 0.640340 -0.551699
O4    O     O_R   0.598160 0.499980 0.640350 -0.629394
O5    O     O_R   0.385360 0.316750 0.499990 -0.621399
O6    O     O_R   0.614690 0.316780 0.500000 -0.611760
O7    O     O_R   0.401840 0.500020 0.359650 -0.637243
O8    O     O_R   0.631170 0.500040 0.359660 -0.610501
Zn1   Zn    Zn3+2 0.346870 0.499980 0.499990 0.965024
Zn2   Zn    Zn3+2 0.653130 0.500020 0.500010 0.939197
H8    H     H_    0.731944 0.660972 0.636918 0.214879
O9    O     O_3   0.800233 0.710780 0.820427 -0.644383
C29   C     C_3   0.707991 0.810216 0.807903 0.097840
H9    H     H_    0.642531 0.822833 0.878526 0.176791
H10   H     H_    0.638204 0.787003 0.751365 0.100819
C30   C     C_3   0.779479 0.934678 0.787865 -0.407604
H11   H     H_    0.859633 0.947959 0.838582 0.238850
H12   H     H_    0.827236 0.931815 0.710719 0.206488
C31   C     C_3   0.680385 0.046468 0.802834 -0.924612
H13   H     H_    0.594775 0.032189 0.757324 0.258238
H14   H     H_    0.732594 0.133779 0.780938 0.272018
H15   H     H_    0.640296 0.058046 0.881704 0.276781
O10   O     O_3   0.233911 0.693717 0.648225 -0.589990
C32   C     C_3   0.230648 0.825286 0.673170 0.082853
H16   H     H_    0.336447 0.857148 0.665712 0.156500
H17   H     H_    0.194432 0.846710 0.751808 0.120015
C33   C     C_3   0.149710 0.901827 0.604504 -0.388433
H18   H     H_    0.185631 0.877029 0.526532 0.243777
H19   H     H_    0.041239 0.878974 0.615366 0.196660
C34   C     C_3   0.163239 0.042965 0.624624 -0.902009
H20   H     H_    0.119391 0.070263 0.700763 0.255836
H21   H     H_    0.108410 0.095412 0.571452 0.270444
H22   H     H_    0.270863 0.069345 0.616089 0.271760
O11   O     O_3   0.611790 0.355389 0.964627 -0.631647
C35   C     C_3   0.748315 0.337188 0.982502 0.048181
H23   H     H_    0.778662 0.239551 0.956556 0.176295
H24   H     H_    0.764188 0.344038 0.062368 0.138714
C36   C     C_3   0.839200 0.428390 0.923983 -0.325605
H25   H     H_    0.818317 0.422800 0.845173 0.251600
H26   H     H_    0.816960 0.526120 0.953763 0.245544
C37   C     C_3   0.988182 0.397651 0.930523 -0.944845
H27   H     H_    0.011285 0.402246 0.008731 0.264371
H28   H     H_    0.051047 0.466816 0.889326 0.276739
H29   H     H_    0.014332 0.302012 0.897634 0.262961
H30   H     H_    0.647345 0.888976 0.590284 0.154066
O12   O     O_3   0.178712 0.878164 0.223510 -0.662628
C38   C     C_3   0.138161 0.754403 0.243162 0.083780
H31   H     H_    0.029890 0.748978 0.230365 0.173057
H32   H     H_    0.142692 0.727896 0.320965 0.128830
C39   C     C_3   0.217761 0.662772 0.169137 -0.335098
H33   H     H_    0.206829 0.693303 0.093183 0.231601
H34   H     H_    0.326057 0.664985 0.181796 0.213337
C40   C     C_3   0.168390 0.528677 0.177074 -0.956568
H35   H     H_    0.221695 0.467655 0.117007 0.269426
H36   H     H_    0.058179 0.525127 0.170734 0.258500
H37   H     H_    0.191020 0.492238 0.248499 0.278886
H38   H     H_    0.894193 0.373522 0.377291 0.140627

loop_
_geom_bond_atom_site_label_1
_geom_bond_atom_site_label_2
_ccdc_geom_bond_type
C39   H33   S    
C23   O8    A    
C38   C39   S    
C2    C12   S    
C7    C8    A    
C30   H11   S    
C25   C28   S    
O3    Zn1   S    
C21   H3    S    
C26   C27   S    
C18   N2    A    
C38   H32   S    
C19   N1    A    
C5    C6    A    
C37   H28   S    
C16   C17   A    
C16   H2    S    
C15   C16   A    
C31   H13   S    
N1    Zn2   S    
C18   C19   A    
O5    Zn1   S    
C32   H17   S    
C22   O6    A    
C8    C9    A    
C5    H5    S    
C29   H10   S    
C23   C24   S    
C2    C27   T    
C25   O11   S    
C9    C10   A    
O8    Zn2   S    
C32   H16   S    
C35   C36   S    
O7    Zn1   S    
C29   H9    S    
C30   H12   S    
C29   C30   S    
C34   H20   S    
C33   C34   S    
C1    C9    S    
C38   H31   S    
C35   H24   S    
C3    C8    A    
C37   H27   S    
C4    C5    A    
C14   H8    S    
C25   C26   D    
C10   H30   S    
C23   O7    A    
C6    H6    S    
O10   C32   S    
C34   H21   S    
C33   H19   S    
C12   O3    A    
C32   C33   S    
C36   H25   S    
C12   O4    A    
C40   H36   S    
O12   C38   S    
C17   C18   A    
O4    Zn2   S    
C36   H26   S    
C1    O1    A    
C39   H34   S    
C3    C4    A    
C40   H37   S    
O2    Zn2   S    
C30   C31   S    
C20   H38   S    
C14   C19   A    
C24   C28   T    
C35   H23   S    
C6    C7    A    
C31   H15   S    
C34   H22   S    
C33   H18   S    
C11   H7    S    
O11   C35   S    
C11   C13   A    
C37   H29   S    
C40   H35   S    
C22   O5    A    
C4    O12   S    
C31   H14   S    
C13   C22   S    
C15   O9    S    
C3    H4    S    
C36   C37   S    
O1    Zn1   S    
C10   C11   A    
C1    O2    A    
C17   O10   S    
C20   N1    A    
C7    C13   A    
C21   N2    A    
C20   C21   A    
C26   H1    S    
O9    C29   S    
C39   C40   S    
C14   C15   A    
N2    Zn1   S    
O6    Zn2   S    
