data_mof_unit_26447.cif
_audit_creation_date              2012-12-10T18:54:29-0500
_audit_creation_method            fapswitch 2.2
_symmetry_space_group_name_H-M    P1
_symmetry_Int_Tables_number       1
_space_group_crystal_system       triclinic
_cell_length_a                    19.450704
_cell_length_b                    18.387618
_cell_length_c                    9.044545
_cell_angle_alpha                 90.00833
_cell_angle_beta                  92.366497
_cell_angle_gamma                 89.55688
_cell_volume                      3231.94512624

loop_
_atom_site_label
_atom_site_type_symbol
_atom_type_description
_atom_site_fract_x
_atom_site_fract_y
_atom_site_fract_z
_atom_type_partial_charge
C1    C     C_R   0.367974 0.500441 0.501178 0.899163
C2    C     C_R   0.632445 0.499433 0.495006 0.868111
C3    C     C_R   0.442153 0.722789 0.455289 0.389608
C4    C     C_R   0.525681 0.277993 0.622032 0.402324
C5    C     C_R   0.557593 0.721580 0.547242 0.391552
C6    C     C_R   0.475806 0.278224 0.377040 0.399231
C7    C     C_R   0.440176 0.799099 0.469292 -0.297721
C8    C     C_R   0.517311 0.201629 0.628023 -0.252833
C9    C     C_R   0.560437 0.797699 0.531069 -0.305243
C10   C     C_R   0.483522 0.201658 0.372101 -0.262559
C11   C     C_R   0.500508 0.838874 0.499462 0.118381
C12   C     C_R   0.500230 0.161654 0.500257 0.077358
C13   C     C_R   0.545691 0.961667 0.597112 0.158194
C14   C     C_R   0.451025 0.039343 0.412989 0.147315
C15   C     C_R   0.455574 0.962354 0.402097 0.158596
C16   C     C_R   0.549908 0.038647 0.586845 0.152731
C17   C     C_R   0.500339 0.078798 0.500181 -0.002271
C18   C     C_R   0.500668 0.921957 0.499505 -0.000406
C19   C     C_R   0.499654 0.500000 0.220837 0.829098
C20   C     C_R   0.500251 0.500002 0.779162 0.838782
C21   C     C_1   0.499781 0.499987 0.065640 -0.186981
C22   C     C_1   0.500019 0.499992 0.934372 -0.184934
C23   C     C_R   0.747885 0.434972 0.524333 0.082955
C24   C     C_R   0.260180 0.555035 0.592885 0.117918
C25   C     C_R   0.253099 0.452532 0.421370 0.130873
C26   C     C_R   0.742513 0.561352 0.438920 0.139187
C27   C     C_R   0.820602 0.437869 0.533347 0.346383
C28   C     C_R   0.187885 0.563137 0.581490 0.351347
C29   C     C_R   0.181849 0.448114 0.441528 0.351430
C30   C     C_R   0.814299 0.567792 0.463796 0.338772
C31   C     C_R   0.853343 0.505257 0.506834 -0.264701
C32   C     C_R   0.148477 0.506659 0.513008 -0.264769
C33   C     C_R   0.708794 0.498147 0.485476 -0.221830
C34   C     C_R   0.292487 0.502231 0.506064 -0.210836
C35   C     C_R   0.963019 0.513196 0.376783 -0.044370
C36   C     C_R   0.038822 0.504258 0.646227 -0.034858
C37   C     C_R   0.034596 0.514945 0.378301 -0.042038
C38   C     C_R   0.967143 0.505827 0.645053 -0.021123
C39   C     C_R   0.072833 0.509151 0.512787 0.203764
C40   C     C_R   0.929018 0.508322 0.510128 0.211945
Cu1   Cu    Cu3+1 0.500000 0.573360 0.500000 0.983125
Cu2   Cu    Cu3+1 0.500000 0.426640 0.500000 0.951883
H1    H     H_    0.933974 0.515752 0.272087 0.148036
H2    H     H_    0.067877 0.500078 0.750695 0.159839
H3    H     H_    0.060353 0.519087 0.274748 0.160793
H4    H     H_    0.941314 0.503855 0.748743 0.157756
H5    H     H_    0.391110 0.826331 0.451818 0.181134
H6    H     H_    0.526911 0.172852 0.730651 0.176668
H7    H     H_    0.609582 0.823720 0.550199 0.179261
H8    H     H_    0.473971 0.172761 0.269765 0.176490
N1    N     N_R   0.500000 0.683620 0.500000 -0.188987
N2    N     N_R   0.500000 0.316380 0.500000 -0.243888
O1    O     O_R   0.400190 0.561980 0.499980 -0.532901
O2    O     O_R   0.599810 0.438020 0.500020 -0.592641
O3    O     O_R   0.599810 0.561980 0.500020 -0.522395
O4    O     O_R   0.400190 0.438020 0.499980 -0.586595
O5    O     O_R   0.500000 0.561940 0.288400 -0.581555
O6    O     O_R   0.500000 0.438060 0.711600 -0.571619
O7    O     O_R   0.500000 0.561940 0.711600 -0.574084
O8    O     O_R   0.500000 0.438060 0.288400 -0.565822
N3    N     N_2   0.713297 0.368822 0.552653 -0.398927
H9    H     H_    0.729182 0.341454 0.647474 0.300171
C41   C     C_3   0.697997 0.323942 0.423553 -0.513506
H10   H     H_    0.665691 0.354278 0.340029 0.213920
H11   H     H_    0.745855 0.306831 0.370297 0.257775
H12   H     H_    0.669462 0.274899 0.456839 0.202216
N4    N     N_2   0.301363 0.597740 0.693883 -0.387449
H13   H     H_    0.288005 0.651525 0.705038 0.310375
C42   C     C_3   0.317486 0.562714 0.834408 -0.645073
H14   H     H_    0.353930 0.596864 0.901222 0.217141
H15   H     H_    0.342111 0.508798 0.817501 0.209721
H16   H     H_    0.269904 0.555547 0.896454 0.254814
N5    N     N_2   0.285028 0.412557 0.307235 -0.412009
H17   H     H_    0.267837 0.360725 0.286963 0.320886
C43   C     C_3   0.292436 0.453607 0.172328 -0.680062
H18   H     H_    0.320314 0.420355 0.091451 0.223330
H19   H     H_    0.240977 0.468341 0.122723 0.262274
H20   H     H_    0.322467 0.503864 0.194656 0.215257
N6    N     N_2   0.703887 0.615458 0.356887 -0.387616
H21   H     H_    0.720053 0.668324 0.366002 0.307953
C44   C     C_3   0.686407 0.595654 0.205117 -0.627473
H22   H     H_    0.652452 0.638189 0.153370 0.218269
H23   H     H_    0.658405 0.543238 0.199983 0.206470
H24   H     H_    0.733833 0.590923 0.141252 0.241910
S1    S     S_3+6 0.872022 0.358277 0.576806 0.005534
O9    O     O_2   0.927493 0.352121 0.466748 -0.229599
O10   O     O_2   0.904870 0.367298 0.728913 -0.290932
O11   O     O_3   0.829225 0.279188 0.574126 -0.558051
H25   H     H_    0.864384 0.241645 0.600695 0.390624
S2    S     S_3+6 0.149111 0.644450 0.649748 0.000738
O12   O     O_2   0.188031 0.709355 0.597894 -0.308160
O13   O     O_2   0.075315 0.653635 0.597122 -0.224607
O14   O     O_3   0.153420 0.642016 0.835717 -0.552025
H26   H     H_    0.137730 0.690803 0.867052 0.389460
S3    S     S_3+6 0.136392 0.368952 0.379402 0.007415
O15   O     O_2   0.179246 0.302050 0.412355 -0.296381
O16   O     O_2   0.069638 0.360737 0.454997 -0.219174
O17   O     O_3   0.120647 0.375507 0.195702 -0.546008
H27   H     H_    0.096529 0.329995 0.167633 0.393359
S4    S     S_3+6 0.853422 0.654872 0.442901 0.002022
O18   O     O_2   0.926214 0.657389 0.504760 -0.221841
O19   O     O_2   0.852531 0.673619 0.281065 -0.294968
O20   O     O_3   0.807726 0.717735 0.532896 -0.563095
H28   H     H_    0.824916 0.765165 0.498711 0.383257
N7    N     N_2   0.383099 0.687568 0.393731 -0.375849
H29   H     H_    0.338068 0.704248 0.440291 0.257389
C45   C     C_3   0.377445 0.689479 0.233809 -0.656807
H30   H     H_    0.367750 0.746069 0.194554 0.220830
H31   H     H_    0.333911 0.654829 0.194427 0.224391
H32   H     H_    0.425237 0.668431 0.185580 0.239338
N8    N     N_2   0.563252 0.314908 0.738611 -0.387579
H33   H     H_    0.594778 0.354754 0.700998 0.298787
C46   C     C_3   0.596498 0.274255 0.859169 -0.737908
H34   H     H_    0.623305 0.312458 0.936840 0.237002
H35   H     H_    0.635163 0.235743 0.816002 0.240215
H36   H     H_    0.557922 0.244703 0.922417 0.228112
N9    N     N_2   0.614048 0.685753 0.620639 -0.369341
H37   H     H_    0.660907 0.702209 0.583843 0.264114
C47   C     C_3   0.613080 0.689339 0.780355 -0.644645
H38   H     H_    0.622878 0.745886 0.818815 0.216447
H39   H     H_    0.653900 0.653108 0.829289 0.227316
H40   H     H_    0.562695 0.671484 0.820114 0.238829
N10   N     N_2   0.440756 0.315873 0.257756 -0.386351
H41   H     H_    0.404741 0.352441 0.292526 0.304801
C48   C     C_3   0.418608 0.277854 0.124037 -0.712047
H42   H     H_    0.396850 0.317501 0.041915 0.239752
H43   H     H_    0.378237 0.237679 0.148565 0.236891
H44   H     H_    0.462958 0.250561 0.073813 0.225923
N11   N     N_2   0.586361 0.924153 0.707688 -0.435754
H45   H     H_    0.636702 0.940770 0.721219 0.264014
C49   C     C_3   0.552657 0.913407 0.845298 -0.707869
H46   H     H_    0.586087 0.879773 0.921108 0.229396
H47   H     H_    0.503177 0.884500 0.825262 0.245481
H48   H     H_    0.542907 0.966648 0.898876 0.218653
N12   N     N_2   0.396205 0.077360 0.336531 -0.453487
H49   H     H_    0.383832 0.059775 0.230667 0.257785
C50   C     C_3   0.337035 0.091445 0.424070 -0.624275
H50   H     H_    0.299137 0.125357 0.359286 0.244967
H51   H     H_    0.352521 0.121521 0.526540 0.242276
H52   H     H_    0.312339 0.039467 0.453875 0.223341
N13   N     N_2   0.415025 0.925452 0.291329 -0.435504
H53   H     H_    0.364708 0.942899 0.277315 0.265239
C51   C     C_3   0.448933 0.913936 0.154034 -0.705973
H54   H     H_    0.415695 0.880530 0.078408 0.231159
H55   H     H_    0.498497 0.884446 0.174580 0.244130
H56   H     H_    0.458561 0.966932 0.100028 0.218683
N14   N     N_2   0.604588 0.075958 0.663472 -0.450056
H57   H     H_    0.617566 0.057738 0.768725 0.258515
C52   C     C_3   0.663237 0.090644 0.575328 -0.662341
H58   H     H_    0.700847 0.124192 0.640357 0.238575
H59   H     H_    0.647006 0.121367 0.473838 0.236459
H60   H     H_    0.688571 0.038863 0.543841 0.227001

loop_
_geom_bond_atom_site_label_1
_geom_bond_atom_site_label_2
_ccdc_geom_bond_type
C15   C18   A    
C41   H11   S    
C11   C18   S    
O14   H26   S    
C51   H56   S    
C45   H31   S    
Cu1   Cu2   S    
S3    O15   D    
N14   H57   S    
C4    C8    A    
C49   H48   S    
Cu2   O6    S    
C44   H22   S    
S3    O17   S    
C52   H58   S    
N12   H49   S    
S1    O9    D    
C3    N7    S    
C7    C11   A    
N7    C45   S    
C13   C18   A    
C4    N2    A    
C16   N14   S    
N14   C52   S    
C1    O4    A    
C46   H34   S    
C29   C32   A    
C3    C7    A    
C2    O3    A    
N9    C47   S    
C30   C31   A    
N10   C48   S    
C14   N12   S    
C51   H54   S    
C30   S4    S    
C31   C40   S    
C27   S1    S    
N5    H17   S    
C32   C39   S    
C42   H15   S    
C1    O1    A    
Cu1   O3    S    
C24   N4    S    
Cu2   O4    S    
C15   N13   S    
C51   H55   S    
N8    H33   S    
C16   C17   A    
C23   C33   A    
C12   C17   S    
C48   H44   S    
C45   H30   S    
C23   C27   A    
C35   H1    S    
C25   C34   A    
N10   H41   S    
C47   H39   S    
C41   H12   S    
C21   C22   T    
N5    C43   S    
C14   C17   A    
C42   H14   S    
C6    N10   S    
S4    O19   D    
C44   H23   S    
C1    C34   S    
S1    O10   D    
C25   C29   A    
C50   H52   S    
C27   C31   A    
N4    H13   S    
C28   C32   A    
C9    H7    S    
Cu1   O7    S    
C2    O2    A    
C52   H60   S    
Cu2   O8    S    
C29   S3    S    
C3    N1    A    
S4    O20   S    
C19   O5    A    
N6    H21   S    
C5    N9    S    
N4    C42   S    
C7    H5    S    
C42   H16   S    
C43   H18   S    
C8    H6    S    
C5    C9    A    
C50   H51   S    
C26   C33   A    
S2    O13   D    
C8    C12   A    
N3    C41   S    
N8    C46   S    
N11   C49   S    
C20   O7    A    
C9    C11   A    
Cu1   O1    S    
C10   C12   A    
C2    C33   S    
C4    N8    S    
C20   C22   S    
C26   C30   A    
C48   H42   S    
C45   H32   S    
C52   H59   S    
C36   H2    S    
C37   H3    S    
C49   H46   S    
C10   H8    S    
C44   H24   S    
C35   C37   A    
S2    O14   S    
N6    C44   S    
N11   H45   S    
C50   H50   S    
S1    O11   S    
N12   C50   S    
C19   C21   S    
C36   C39   A    
C24   C28   A    
C49   H47   S    
C6    C10   A    
C47   H38   S    
S3    O16   D    
C19   O8    A    
N7    H29   S    
C26   N6    S    
C46   H36   S    
N13   C51   S    
C35   C40   A    
C13   C16   A    
Cu1   O5    S    
C37   C39   A    
N13   H53   S    
Cu2   O2    S    
C38   C40   A    
S2    O12   D    
C36   C38   A    
S4    O18   D    
C47   H40   S    
C25   N5    S    
N3    H9    S    
C43   H20   S    
C24   C34   A    
C38   H4    S    
C41   H10   S    
C23   N3    S    
O11   H25   S    
O17   H27   S    
C43   H19   S    
O20   H28   S    
C48   H43   S    
C13   N11   S    
C14   C15   A    
C5    N1    A    
C28   S2    S    
C6    N2    A    
N9    H37   S    
C20   O6    A    
Cu1   N1    S    
Cu2   N2    S    
C46   H35   S    
