data_mof_unit_25751.cif
_audit_creation_date              2012-12-10T19:13:25-0500
_audit_creation_method            fapswitch 2.2
_symmetry_space_group_name_H-M    P1
_symmetry_Int_Tables_number       1
_space_group_crystal_system       triclinic
_cell_length_a                    9.70887
_cell_length_b                    10.63652
_cell_length_c                    16.653037
_cell_angle_alpha                 89.441508
_cell_angle_beta                  84.604274
_cell_angle_gamma                 89.476751
_cell_volume                      1711.97583094

loop_
_atom_site_label
_atom_site_type_symbol
_atom_type_description
_atom_site_fract_x
_atom_site_fract_y
_atom_site_fract_z
_atom_type_partial_charge
C1    C     C_R   0.498781 0.741703 0.505483 0.849049
C2    C     C_R   0.533749 0.550586 0.263375 -0.031198
C3    C     C_3   0.368085 0.929650 0.561594 -0.066728
C4    C     C_R   0.480210 0.504345 0.654075 0.852496
C5    C     C_3   0.379724 0.073705 0.566107 -0.411234
C6    C     C_3   0.635945 0.927624 0.540298 -0.035170
C7    C     C_3   0.491139 0.925244 0.421079 -0.533763
C8    C     C_3   0.498280 0.877798 0.509197 0.123262
C9    C     C_3   0.499783 0.120930 0.504861 0.112218
C10   C     C_3   0.638198 0.071304 0.533462 -0.466488
C11   C     C_3   0.485516 0.070089 0.418720 -0.052170
C12   C     C_R   0.342886 0.568667 0.784438 0.220954
C13   C     C_3   0.915954 0.630877 0.499763 -0.279048
C14   C     C_3   0.078436 0.632514 0.501036 -0.261165
C15   C     C_3   0.911029 0.440287 0.576252 0.075672
C16   C     C_R   0.500107 0.257527 0.502313 0.881124
C17   C     C_3   0.931483 0.438006 0.429115 -0.245168
C18   C     C_3   0.073235 0.436394 0.572769 -0.225079
C19   C     C_3   0.093489 0.438151 0.429411 -0.234739
C20   C     C_R   0.519820 0.506563 0.346600 0.877261
C21   C     C_R   0.469548 0.533795 0.740687 -0.116519
C22   C     C_R   0.593231 0.542144 0.777784 -0.260617
C23   C     C_R   0.446500 0.682179 0.160296 -0.167574
C24   C     C_R   0.593157 0.586493 0.855589 -0.146967
C25   C     C_R   0.468768 0.623598 0.898625 0.157784
C26   C     C_R   0.344544 0.612421 0.863385 -0.214034
C27   C     C_3   0.107684 0.647547 0.767816 -0.853641
C28   C     C_R   0.429151 0.627379 0.236326 -0.221751
C29   C     C_R   0.658332 0.533357 0.214821 -0.213699
C30   C     C_R   0.674657 0.586494 0.137866 -0.171107
C31   C     C_R   0.566983 0.657588 0.109436 0.204698
C32   C     C_2   0.461057 0.655786 0.984327 -0.213701
C33   C     C_2   0.571767 0.683783 0.022902 -0.246267
H1    H     H_    0.691699 0.515298 0.746415 0.160842
H2    H     H_    0.575396 0.104080 0.377878 0.135928
H3    H     H_    0.725784 0.891960 0.500100 0.153282
H4    H     H_    0.726331 0.099309 0.489433 0.154681
H5    H     H_    0.867206 0.684397 0.552193 0.152936
H6    H     H_    0.886590 0.681437 0.445004 0.153251
H7    H     H_    0.125300 0.685956 0.447711 0.147072
H8    H     H_    0.105706 0.683766 0.555219 0.152393
H9    H     H_    0.873601 0.498374 0.629386 0.118966
H10   H     H_    0.105448 0.480142 0.627554 0.160332
H11   H     H_    0.893432 0.340887 0.423347 0.135600
H12   H     H_    0.768119 0.566691 0.099065 0.119575
H13   H     H_    0.741827 0.477600 0.235974 0.135345
H14   H     H_    0.903212 0.487625 0.373790 0.146616
H15   H     H_    0.139325 0.485002 0.373318 0.152736
H16   H     H_    0.133501 0.339763 0.427538 0.156665
H17   H     H_    0.112799 0.337847 0.573508 0.153392
H18   H     H_    0.672018 0.700058 0.990215 0.142374
H19   H     H_    0.248266 0.635285 0.898589 0.136173
H20   H     H_    0.363724 0.739841 0.140085 0.123889
H21   H     H_    0.362308 0.638346 0.018837 0.145268
H22   H     H_    0.690646 0.587269 0.881946 0.127423
H23   H     H_    0.273726 0.907697 0.531068 0.138879
H24   H     H_    0.326617 0.779182 0.638913 0.209671
H25   H     H_    0.265534 0.916133 0.674802 0.180538
H26   H     H_    0.590413 0.934716 0.665304 0.227737
H27   H     H_    0.640269 0.790881 0.630949 0.203042
H28   H     H_    0.362668 0.091394 0.325426 0.177856
H29   H     H_    0.272110 0.072916 0.415838 0.184636
H30   H     H_    0.753657 0.316906 0.614451 0.226723
H31   H     H_    0.871640 0.256435 0.542014 0.185987
H32   H     H_    0.179180 0.462006 0.755570 0.213528
H33   H     H_    0.030929 0.641572 0.722692 0.229323
H34   H     H_    0.278664 0.116576 0.554120 0.161277
H35   H     H_    0.152461 0.743355 0.764197 0.251340
H36   H     H_    0.052762 0.631317 0.828529 0.231969
H37   H     H_    0.399723 0.103062 0.627955 0.165387
H38   H     H_    0.656007 0.114081 0.592276 0.180476
H39   H     H_    0.584085 0.892198 0.382417 0.162876
H40   H     H_    0.399816 0.884874 0.395002 0.175848
H41   H     H_    0.334857 0.646970 0.274445 0.141063
N1    N     N_3   0.861190 0.500250 0.501720 -0.037747
N2    N     N_3   0.138550 0.503270 0.501080 -0.044127
N3    N     N_3   0.351591 0.874071 0.642938 -0.485443
N4    N     N_3   0.657559 0.887132 0.623058 -0.470097
N5    N     N_3   0.358838 0.116557 0.386165 -0.457854
N6    N     N_3   0.857711 0.313296 0.592724 -0.491358
N7    N     N_2   0.214714 0.553075 0.750766 -0.297393
O1    O     O_R   0.383960 0.685090 0.500020 -0.636728
O2    O     O_R   0.616040 0.685320 0.499960 -0.639894
O3    O     O_R   0.370240 0.499890 0.615830 -0.603501
O4    O     O_R   0.602330 0.500120 0.615770 -0.640697
O5    O     O_R   0.383960 0.314680 0.500040 -0.610912
O6    O     O_R   0.616040 0.314910 0.499980 -0.647163
O7    O     O_R   0.397670 0.499880 0.384230 -0.618622
O8    O     O_R   0.629760 0.500110 0.384170 -0.618926
Zn1   Zn    Zn3+2 0.345040 0.499850 0.500040 0.908664
Zn2   Zn    Zn3+2 0.654960 0.500150 0.499960 0.892212

loop_
_geom_bond_atom_site_label_1
_geom_bond_atom_site_label_2
_ccdc_geom_bond_type
C15   C18   S    
C15   N1    S    
O6    Zn2   S    
C1    C8    S    
C30   H12   S    
C5    H34   S    
C28   H41   S    
O4    Zn2   S    
C7    C8    S    
C7    H40   S    
C24   H22   S    
C7    C11   S    
H27   N4    S    
C5    H37   S    
C2    C29   A    
C19   N2    S    
C9    C16   S    
C30   C31   A    
C6    N4    S    
C27   H35   S    
H25   N3    S    
C13   N1    S    
C16   O6    A    
C31   C33   S    
O8    Zn2   S    
C9    C10   S    
C27   H36   S    
N1    Zn2   S    
C10   H38   S    
C25   C32   S    
C21   C22   A    
C16   O5    A    
H31   N6    S    
O3    Zn1   S    
H26   N4    S    
C32   H21   S    
C23   H20   S    
H30   N6    S    
C22   H1    S    
C2    C20   S    
H24   N3    S    
H29   N5    S    
C27   N7    S    
C24   C25   A    
C3    C8    S    
O5    Zn1   S    
C7    H39   S    
C19   H15   S    
C6    C8    S    
C4    O4    A    
C1    O1    A    
C12   C21   A    
C12   C26   A    
C14   N2    S    
C5    C9    S    
C29   C30   A    
C26   H19   S    
C3    H23   S    
C19   H16   S    
H32   N7    S    
C15   N6    S    
C4    O3    A    
C23   C28   A    
C9    C11   S    
C13   H5    S    
C11   N5    S    
C14   H8    S    
O7    Zn1   S    
C10   H4    S    
C22   C24   A    
C33   H18   S    
C3    N3    S    
C18   H17   S    
C18   N2    S    
C17   H14   S    
C15   H9    S    
C3    C5    S    
C6    C10   S    
C1    O2    A    
O2    Zn2   S    
C20   O8    A    
O1    Zn1   S    
C29   H13   S    
C32   C33   D    
C11   H2    S    
C25   C26   A    
C17   H11   S    
C27   H33   S    
C18   H10   S    
C4    C21   S    
H28   N5    S    
C20   O7    A    
C17   C19   S    
C6    H3    S    
C12   N7    S    
C13   H6    S    
C14   H7    S    
N2    Zn1   S    
C17   N1    S    
C2    C28   A    
C13   C14   S    
C23   C31   A    
