data_mof_unit_28820.cif
_audit_creation_date              2013-03-05T15:59:21-0500
_audit_creation_method            fapswitch 2.2
_symmetry_space_group_name_H-M    P1
_symmetry_Int_Tables_number       1
_space_group_crystal_system       triclinic
_cell_length_a                    10.538044
_cell_length_b                    12.682446
_cell_length_c                    13.141871
_cell_angle_alpha                 82.570279
_cell_angle_beta                  92.251887
_cell_angle_gamma                 101.114132
_cell_volume                      1708.79031349

loop_
_atom_site_label
_atom_site_type_symbol
_atom_site_description
_atom_site_fract_x
_atom_site_fract_y
_atom_site_fract_z
_atom_type_partial_charge
O1    O     O_R   0.467970 0.366730 0.627150 -0.632644
O2    O     O_R   0.510820 0.544830 0.662520 -0.596361
C1    C     C_R   0.477042 0.439926 0.690476 0.874766
O3    O     O_R   0.664630 0.410960 0.482340 -0.622203
O4    O     O_R   0.707470 0.589060 0.517710 -0.555530
C2    C     C_R   0.741602 0.500134 0.499858 0.915033
Zn1   Zn    Zn3+2 0.471390 0.381080 0.476380 0.942264
Zn2   Zn    Zn3+2 0.528610 0.618920 0.523620 1.070747
O5    O     O_R   0.489180 0.455170 0.337480 -0.641402
O6    O     O_R   0.532030 0.633270 0.372850 -0.602531
O7    O     O_R   0.292530 0.410940 0.482290 -0.638880
O8    O     O_R   0.335370 0.589040 0.517660 -0.546519
C3    C     C_R   0.515502 0.560309 0.308839 0.887433
C4    C     C_R   0.257933 0.499528 0.500209 0.931778
C5    C     C_3   0.945098 0.433975 0.583655 -0.358130
C6    C     C_3   0.053016 0.535379 0.584595 0.508427
H1    H     H_    0.895887 0.380997 0.650127 0.160484
C7    C     C_3   0.122044 0.498165 0.499806 -0.106418
C8    C     C_3   0.015791 0.396231 0.497680 -0.157532
C9    C     C_3   0.943567 0.461063 0.414280 -0.206894
C10   C     C_3   0.052250 0.562302 0.415768 -0.236056
C11   C     C_3   0.983618 0.599082 0.501586 0.343165
C12   C     C_3   0.876357 0.499902 0.499894 -0.150821
H2    H     H_    0.032858 0.312895 0.495317 0.182092
H3    H     H_    0.894439 0.430245 0.344756 0.173980
H4    H     H_    0.091949 0.613124 0.345226 0.234198
C13   C     C_R   0.453762 0.720079 0.057775 -0.127590
H5    H     H_    0.503757 0.763306 0.208053 0.178254
H6    H     H_    0.434357 0.799837 0.031829 0.180696
C14   C     C_R   0.510517 0.595452 0.198989 -0.051735
C15   C     C_R   0.460005 0.296200 0.838093 -0.318872
C16   C     C_R   0.451166 0.262253 0.943881 0.581215
C17   C     C_R   0.448132 0.339628 0.009539 -0.250314
C18   C     C_R   0.442669 0.448499 0.970937 0.009311
C19   C     C_R   0.422897 0.474342 0.865347 0.034557
C20   C     C_R   0.458840 0.532948 0.033424 0.080787
C21   C     C_R   0.435334 0.637499 0.993394 0.051576
C22   C     C_R   0.392393 0.655643 0.890934 0.297236
C23   C     C_R   0.383103 0.572802 0.829247 -0.218036
C24   C     C_R   0.503794 0.516704 0.134055 -0.234473
C25   C     C_R   0.492778 0.699372 0.159583 -0.121510
C26   C     C_R   0.448551 0.402362 0.798716 -0.132216
H7    H     H_    0.533086 0.441904 0.164604 0.157247
H8    H     H_    0.479598 0.241092 0.786963 0.167201
H9    H     H_    0.446453 0.311221 0.090590 0.147624
H10   H     H_    0.348712 0.588204 0.751347 0.229874
C27   C     C_R   0.389272 0.114202 0.308420 -0.241388
H11   H     H_    0.341097 0.270855 0.305198 0.137712
H12   H     H_    0.387213 0.922007 0.259459 0.185059
H13   H     H_    0.347908 0.102920 0.232851 0.164883
N1    N     N_R   0.432930 0.222190 0.444670 -0.112128
C28   C     C_R   0.638806 0.796584 0.642303 0.493235
C29   C     C_R   0.670070 0.900455 0.670771 -0.166895
C30   C     C_R   0.627873 0.985398 0.612003 -0.217576
C31   C     C_R   0.552959 0.967808 0.523102 0.006508
C32   C     C_R   0.524376 0.861390 0.493608 0.070817
C33   C     C_R   0.500144 0.051448 0.464744 0.016570
C34   C     C_R   0.446597 0.035078 0.366399 0.130016
C35   C     C_R   0.438030 0.935535 0.331474 -0.302530
C36   C     C_R   0.450544 0.846282 0.402021 0.315556
C37   C     C_R   0.492925 0.149251 0.501662 -0.007463
C38   C     C_R   0.381967 0.207514 0.350084 0.018615
N2    N     N_R   0.566370 0.776980 0.554790 -0.186015
H14   H     H_    0.533808 0.169864 0.574584 0.119074
H15   H     H_    0.657796 0.064536 0.636494 0.148966
H16   H     H_    0.728499 0.915458 0.738961 0.189108
O9    O     O_3   0.120313 0.580300 0.668710 -0.564702
C39   C     C_3   0.052102 0.539004 0.759766 -0.201970
H17   H     H_    0.055924 0.451878 0.780902 0.121386
H18   H     H_    0.950246 0.551275 0.753259 0.207290
H19   H     H_    0.098989 0.582841 0.823113 0.211757
O10   O     O_3   0.462151 0.158465 0.987418 -0.625954
C40   C     C_3   0.385420 0.078806 0.933869 -0.226030
H20   H     H_    0.436522 0.066819 0.865178 0.201691
H21   H     H_    0.288283 0.097912 0.912256 0.153346
H22   H     H_    0.369712 0.000768 0.984919 0.203246
N3    N     N_R   0.686048 0.712432 0.706770 0.213928
O11   O     O_R   0.660858 0.698339 0.804180 -0.399398
O12   O     O_R   0.786528 0.679202 0.678421 -0.369469
N4    N     N_R   0.340871 0.761861 0.402577 0.228453
O13   O     O_R   0.309517 0.716331 0.319709 -0.482599
O14   O     O_R   0.249221 0.764418 0.465193 -0.327164
N5    N     N_R   0.965463 0.710289 0.501201 0.261815
O15   O     O_R   0.016559 0.766569 0.573585 -0.249734
O16   O     O_R   0.908556 0.756911 0.423212 -0.382170
N6    N     N_R   0.368632 0.759571 0.845357 0.189309
O17   O     O_R   0.271918 0.765134 0.781551 -0.331952
O18   O     O_R   0.457980 0.845532 0.849225 -0.426476

loop_
_geom_bond_atom_site_label_1
_geom_bond_atom_site_label_2
_geom_bond_distance
_ccdc_geom_bond_type
C31   C32   1.425444 A    
C1    C26   1.464137 S    
C15   C26   1.404524 A    
C13   H6    1.079982 S    
C7    C10   1.535187 S    
C17   H9    1.079099 S    
C40   H20   1.110528 S    
C4    C7    1.428580 S    
C8    C9    1.548947 S    
N1    C37   1.351104 A    
C10   H4    1.105384 S    
C27   C38   1.382837 A    
C16   O10   1.390007 S    
C30   H15   1.078862 S    
C29   C30   1.377413 A    
Zn1   O7    1.999086 S    
C22   N6    1.438760 S    
C20   C21   1.425568 A    
C7    C8    1.540979 S    
O4    C2    1.299156 A    
O7    C4    1.297596 A    
N6    O18   1.300950 A    
C9    H3    1.110300 S    
C5    C6    1.544848 S    
H5    C25   1.080848 S    
Zn1   O5    1.940507 S    
C18   C19   1.400847 A    
C19   C26   1.411980 A    
O5    C3    1.316221 A    
C5    C8    1.550559 S    
C24   H7    1.077512 S    
N5    O15   1.300573 A    
C39   H17   1.112041 S    
C14   C25   1.396789 A    
C5    C12   1.538947 S    
C35   C36   1.390963 A    
C10   C11   1.530646 S    
C40   H21   1.114543 S    
N1    C38   1.355375 A    
O3    Zn1   1.998544 S    
C27   H13   1.084183 S    
N3    O12   1.296625 A    
C15   H8    1.081958 S    
O9    C39   1.408303 S    
C3    C14   1.456757 S    
C20   C24   1.390594 A    
N4    O14   1.300934 A    
N6    O17   1.300804 A    
O10   C40   1.412068 S    
C34   C35   1.383916 A    
N3    O11   1.300161 A    
O6    C3    1.312204 A    
C32   C36   1.421046 A    
O1    C1    1.312561 A    
C37   H14   1.077626 S    
C19   C23   1.411833 A    
C21   C22   1.408177 A    
C13   C25   1.391272 A    
H11   C38   1.081505 S    
C15   C16   1.402405 A    
C9    C12   1.533182 S    
Zn2   O8    1.998546 S    
C17   C18   1.419275 A    
C32   N2    1.385786 A    
C14   C24   1.385302 A    
C6    O9    1.412440 S    
C29   H16   1.083491 S    
C23   H10   1.078877 S    
O3    C2    1.299606 A    
N5    O16   1.300525 A    
O8    C4    1.304882 A    
C31   C33   1.416627 A    
C40   H22   1.109447 S    
C28   N3    1.429161 S    
C28   C29   1.390814 A    
C5    H1    1.110389 S    
C30   C31   1.401785 A    
C36   N4    1.415522 S    
C6    C11   1.521432 S    
O1    Zn1   1.967279 S    
C6    C7    1.524994 S    
O2    Zn2   1.940506 S    
N4    O13   1.299766 A    
C28   N2    1.378038 A    
O4    Zn2   1.999083 S    
C33   C37   1.405221 A    
H12   C35   1.085659 S    
C11   N5    1.458726 S    
O2    C1    1.316448 A    
Zn1   N1    2.070663 S    
C16   C17   1.393486 A    
C27   C34   1.397241 A    
C33   C34   1.413809 A    
C22   C23   1.394626 A    
C13   C21   1.410061 A    
C39   H19   1.108028 S    
C2    C12   1.420598 S    
C8    H2    1.110210 S    
C18   C20   1.413008 A    
Zn2   N2    2.058286 S    
C9    C10   1.548699 S    
Zn2   O6    1.967281 S    
C39   H18   1.112375 S    
C11   C12   1.522314 S    
