data_mof_unit_27419.cif
_audit_creation_date              2013-03-05T16:06:01-0500
_audit_creation_method            fapswitch 2.2
_symmetry_space_group_name_H-M    P1
_symmetry_Int_Tables_number       1
_space_group_crystal_system       triclinic
_cell_length_a                    10.770405
_cell_length_b                    9.517935
_cell_length_c                    23.510283
_cell_angle_alpha                 89.984081
_cell_angle_beta                  89.951345
_cell_angle_gamma                 90.047617
_cell_volume                      2410.08468204

loop_
_atom_site_label
_atom_site_type_symbol
_atom_site_description
_atom_site_fract_x
_atom_site_fract_y
_atom_site_fract_z
_atom_type_partial_charge
O1    O     O_R   0.319640 0.618740 0.500000 -0.577376
O2    O     O_R   0.680360 0.381260 0.500000 -0.577468
O3    O     O_R   0.680360 0.618740 0.500000 -0.577232
O4    O     O_R   0.319640 0.381260 0.500000 -0.577333
C1    C     C_R   0.262614 0.499921 0.500267 0.837455
C2    C     C_R   0.737386 0.500083 0.499741 0.837406
O5    O     O_R   0.499960 0.618810 0.417880 -0.585193
O6    O     O_R   0.500040 0.381190 0.582120 -0.582900
O7    O     O_R   0.500040 0.618810 0.582120 -0.588727
O8    O     O_R   0.499960 0.381190 0.417880 -0.586442
C3    C     C_R   0.499275 0.500028 0.390869 0.789210
C4    C     C_R   0.500727 0.500003 0.609130 0.789253
Cu1   Cu    Cu3+1 0.500000 0.640660 0.500000 0.942840
Cu2   Cu    Cu3+1 0.500000 0.359340 0.500000 0.943625
C5    C     C_R   0.611967 0.496220 0.880540 0.531874
C6    C     C_R   0.388052 0.495828 0.119459 0.531840
N1    N     N_R   0.501224 0.497383 0.852040 -0.465734
N2    N     N_R   0.498795 0.497122 0.147960 -0.465735
C7    C     C_R   0.390018 0.496093 0.880251 0.532433
C8    C     C_R   0.610001 0.496018 0.119748 0.532397
C9    C     C_R   0.387163 0.495072 0.939898 -0.015501
C10   C     C_R   0.612856 0.495102 0.060102 -0.015501
C11   C     C_R   0.500257 0.494984 0.969988 -0.017522
C12   C     C_R   0.499762 0.494917 0.030011 -0.017518
C13   C     C_R   0.613844 0.495221 0.940196 -0.015112
C14   C     C_R   0.386174 0.494927 0.059803 -0.015112
C15   C     C_R   0.274456 0.494609 0.970027 -0.162532
C16   C     C_R   0.725563 0.494866 0.029972 -0.162542
C17   C     C_R   0.273967 0.494533 0.029374 -0.162683
C18   C     C_R   0.726052 0.494921 0.970625 -0.162674
O9    O     O_2   0.719667 0.496524 0.851170 -0.532967
O10   O     O_2   0.280352 0.495927 0.148830 -0.532988
O11   O     O_2   0.282794 0.496302 0.850600 -0.531943
O12   O     O_2   0.717225 0.496327 0.149399 -0.531962
H1    H     H_    0.186310 0.494599 0.947879 0.189139
H2    H     H_    0.813708 0.494936 0.052120 0.189136
H3    H     H_    0.185460 0.494470 0.051286 0.188962
H4    H     H_    0.814559 0.495029 0.948713 0.188964
C19   C     C_R   0.498050 0.628624 0.238481 0.210088
C20   C     C_R   0.502033 0.628770 0.761459 0.210661
C21   C     C_R   0.498186 0.627694 0.298089 -0.204557
C22   C     C_R   0.501891 0.627753 0.701852 -0.204746
H5    H     H_    0.498008 0.726578 0.320913 0.157490
H6    H     H_    0.502120 0.726605 0.678985 0.157265
C23   C     C_R   0.498680 0.500138 0.328232 -0.080208
C24   C     C_R   0.501328 0.500151 0.671767 -0.080240
C25   C     C_R   0.498677 0.372820 0.298092 -0.220086
C26   C     C_R   0.501269 0.372878 0.701964 -0.219792
H7    H     H_    0.498906 0.273000 0.320215 0.163763
H8    H     H_    0.500986 0.273027 0.679885 0.164022
C27   C     C_R   0.498542 0.372941 0.238872 -0.147004
C28   C     C_R   0.501410 0.373087 0.761184 -0.147510
H9    H     H_    0.498731 0.274086 0.216074 0.144603
H10   H     H_    0.501172 0.274266 0.784027 0.144816
C29   C     C_R   0.498342 0.499911 0.208901 0.365303
C30   C     C_R   0.501677 0.500101 0.791096 0.365288
C31   C     C_R   0.066243 0.472464 0.448866 0.119249
C32   C     C_R   0.933756 0.527612 0.551139 0.119511
C33   C     C_R   0.935644 0.473031 0.448242 0.128508
C34   C     C_R   0.064357 0.527041 0.551763 0.128683
C35   C     C_R   0.871398 0.500344 0.499513 -0.106236
C36   C     C_R   0.128602 0.499684 0.500495 -0.106250
C37   C     C_R   0.424708 0.074381 0.463892 -0.015690
C38   C     C_R   0.575289 0.925617 0.536110 -0.015675
C39   C     C_R   0.575289 0.074460 0.536108 -0.015026
C40   C     C_R   0.424714 0.925538 0.463890 -0.015020
H11   H     H_    0.364380 0.130456 0.434975 0.117966
H12   H     H_    0.635609 0.869540 0.565030 0.117867
H13   H     H_    0.635614 0.130599 0.565028 0.122254
H14   H     H_    0.364396 0.869398 0.434967 0.122131
N3    N     N_R   0.500000 0.852070 0.500000 -0.158383
N4    N     N_R   0.500000 0.147930 0.500000 -0.158574
C41   C     C_3   0.497735 0.765949 0.206752 -0.837499
H15   H     H_    0.497560 0.857186 0.236206 0.220499
H16   H     H_    0.581695 0.773303 0.179486 0.247467
H17   H     H_    0.413702 0.772685 0.179580 0.246890
C42   C     C_3   0.502420 0.766142 0.793123 -0.837971
H18   H     H_    0.502637 0.857331 0.763625 0.220465
H19   H     H_    0.418467 0.773429 0.820387 0.247474
H20   H     H_    0.586461 0.773022 0.820288 0.246918
C43   C     C_3   0.142008 0.445022 0.395246 -0.821207
H21   H     H_    0.200225 0.349977 0.401270 0.226556
H22   H     H_    0.086425 0.427394 0.356402 0.247113
H23   H     H_    0.203482 0.536338 0.386605 0.218162
C44   C     C_3   0.857991 0.555126 0.604752 -0.821743
H24   H     H_    0.799783 0.650170 0.598711 0.226368
H25   H     H_    0.796509 0.463828 0.613411 0.218500
H26   H     H_    0.913574 0.572794 0.643594 0.247101
C45   C     C_3   0.866247 0.446525 0.392975 -0.805651
H27   H     H_    0.764042 0.451111 0.396903 0.217307
H28   H     H_    0.892430 0.527405 0.361088 0.239018
H29   H     H_    0.889387 0.340330 0.376565 0.237739
C46   C     C_3   0.133755 0.553607 0.607026 -0.805855
H30   H     H_    0.235959 0.549016 0.603098 0.217162
H31   H     H_    0.110619 0.659820 0.623415 0.237670
H32   H     H_    0.107570 0.472765 0.638926 0.239207

loop_
_geom_bond_atom_site_label_1
_geom_bond_atom_site_label_2
_geom_bond_distance
_ccdc_geom_bond_type
C46   H30   1.105469 S    
C15   C17   1.395282 A    
C21   H5    1.083523 S    
C41   H15   1.110837 S    
O3    C2    1.286039 A    
C43   H21   1.110214 S    
C31   C36   1.411666 A    
C25   H7    1.083009 S    
C42   H18   1.110822 S    
O5    C3    1.296869 A    
O1    C1    1.286495 A    
C38   H12   1.081835 S    
C2    C35   1.443371 S    
C7    C9    1.402655 A    
C12   C14   1.409188 A    
C22   C24   1.405650 A    
C5    C13   1.402717 A    
C32   C34   1.406728 A    
C18   H4    1.083166 S    
C34   C36   1.413671 A    
C33   C45   1.520563 S    
C38   N3    1.367054 A    
O7    Cu1   1.941776 S    
C19   C29   1.408874 A    
C20   C30   1.408851 A    
C11   C12   1.411154 A    
C45   H28   1.110447 S    
C27   C29   1.398748 A    
O3    Cu1   1.953893 S    
C8    O12   1.349454 S    
C34   C46   1.520577 S    
C32   C35   1.411673 A    
C26   H8    1.083026 S    
C9    C15   1.404938 A    
C37   C40   1.416677 A    
C46   H31   1.110417 S    
C10   C16   1.404942 A    
Cu1   Cu2   2.677585 S    
C41   H16   1.110142 S    
O2    C2    1.286529 A    
C22   H6    1.083501 S    
C43   H22   1.105162 S    
C28   H10   1.082971 S    
C24   C26   1.403917 A    
C23   C25   1.403954 A    
C6    C14   1.402704 A    
C37   H11   1.081830 S    
C33   C35   1.413669 A    
C44   H25   1.110738 S    
C4    C24   1.472616 S    
O8    Cu2   1.941776 S    
C25   C27   1.392269 A    
Cu1   N3    2.012187 S    
C15   H1    1.083167 S    
C44   H24   1.110212 S    
C27   H9    1.082981 S    
C40   N3    1.367097 A    
C26   C28   1.392278 A    
O6    C4    1.297121 A    
C42   H19   1.110143 S    
C45   H29   1.110430 S    
N1    C30   1.433025 S    
C16   H2    1.083167 S    
N2    C29   1.433002 S    
C8    C10   1.402640 A    
C46   H32   1.110426 S    
O8    C3    1.297037 A    
C9    C11   1.409122 A    
C7    O11   1.349446 S    
C41   H17   1.110130 S    
C10   C12   1.409125 A    
C3    C23   1.472635 S    
O1    Cu1   1.953549 S    
C32   C44   1.523832 S    
C43   H23   1.110749 S    
C44   H26   1.105173 S    
C42   H20   1.110130 S    
C13   C18   1.404916 A    
C5    N1    1.368617 A    
O6    Cu2   1.941891 S    
Cu2   N4    2.012188 S    
O4    C1    1.286071 A    
C5    O9    1.349431 S    
C6    O10   1.349439 S    
C39   N4    1.367102 A    
C38   C39   1.416677 A    
C16   C18   1.395282 A    
C40   H14   1.081822 S    
C39   H13   1.081815 S    
C20   C22   1.401397 A    
N1    C7    1.368670 A    
C1    C36   1.443374 S    
N2    C8    1.368685 A    
C19   C41   1.504774 S    
O4    Cu2   1.953894 S    
O2    Cu2   1.953548 S    
C31   C43   1.523825 S    
C31   C33   1.406717 A    
O7    C4    1.296781 A    
O5    Cu1   1.941891 S    
C11   C13   1.409187 A    
C37   N4    1.367062 A    
C19   C21   1.401417 A    
C14   C17   1.404918 A    
C6    N2    1.368631 A    
C17   H3    1.083166 S    
C21   C23   1.405624 A    
C20   C42   1.504746 S    
C45   H27   1.105472 S    
C28   C30   1.398752 A    
