data_mof_unit_43483.cif
_audit_creation_date              2012-10-26T20:52:01-0400
_audit_creation_method            fapswitch 2.2
_symmetry_space_group_name_H-M    P1
_symmetry_Int_Tables_number       1
_space_group_crystal_system       triclinic
_cell_length_a                    8.825088
_cell_length_b                    15.985176
_cell_length_c                    14.757234
_cell_angle_alpha                 89.76931
_cell_angle_beta                  97.800717
_cell_angle_gamma                 89.934717
_cell_volume                      2062.52713853

loop_
_atom_site_label
_atom_site_type_symbol
_atom_type_description
_atom_site_fract_x
_atom_site_fract_y
_atom_site_fract_z
_atom_type_partial_charge
C1    C     C_R   0.500066 0.340919 0.500162 0.540586
C2    C     C_R   0.796132 0.499066 0.522786 0.535135
C3    C     C_2   0.040662 0.511050 0.465870 -0.072615
C4    C     C_2   0.959355 0.489066 0.534177 -0.072612
C5    C     C_R   0.553246 0.954984 0.578948 0.239949
C6    C     C_R   0.452752 0.045316 0.417627 0.245633
C7    C     C_R   0.508411 0.912622 0.495964 -0.059892
C8    C     C_R   0.500379 0.087360 0.499965 -0.056160
C9    C     C_R   0.462809 0.957870 0.414022 0.255795
C10   C     C_R   0.551388 0.042608 0.580726 0.238658
C11   C     C_1   0.505070 0.822998 0.497226 -0.009993
C12   C     C_R   0.500164 0.659087 0.499814 0.542977
C13   C     C_1   0.500251 0.177022 0.500550 0.004126
C14   C     C_1   0.500171 0.251985 0.500546 -0.026428
C15   C     C_1   0.502404 0.748020 0.499060 -0.030178
C16   C     C_R   0.606235 0.547902 0.960480 -0.118569
C17   C     C_R   0.393316 0.452060 0.039449 -0.119142
C18   C     C_1   0.974431 0.553614 0.382351 0.229698
C19   C     C_1   0.025630 0.446663 0.617795 0.230519
C20   C     C_3   0.495598 0.118244 0.704353 0.013990
C21   C     C_3   0.556816 0.196516 0.756152 -0.247631
C22   C     C_3   0.434226 0.238658 0.803863 -0.472831
C23   C     C_R   0.499672 0.500038 0.902824 -0.002184
C24   C     C_3   0.532365 0.869915 0.298511 0.009978
C25   C     C_3   0.693511 0.909380 0.308294 -0.296578
C26   C     C_3   0.804864 0.853615 0.265512 -0.458727
C27   C     C_3   0.493834 0.879157 0.701570 0.018153
C28   C     C_3   0.553055 0.802654 0.758201 -0.251449
C29   C     C_3   0.428056 0.763099 0.806231 -0.473792
C30   C     C_3   0.494673 0.118972 0.289485 0.021880
C31   C     C_3   0.438108 0.201019 0.242984 -0.256688
C32   C     C_3   0.554326 0.237092 0.185798 -0.476905
C33   C     C_R   0.499972 0.499877 0.097121 0.000497
C34   C     C_R   0.393130 0.452163 0.943610 -0.113519
C35   C     C_R   0.606388 0.547824 0.056316 -0.107123
C36   C     C_1   0.499773 0.500026 0.802709 0.125052
C37   C     C_1   0.500036 0.499907 0.197268 0.129435
C38   C     C_R   0.203870 0.500972 0.477222 0.535914
Cu1   Cu    Cu3+1 0.500040 0.500000 0.589220 1.001717
Cu2   Cu    Cu3+1 0.499960 0.500000 0.410780 1.006694
H1    H     H_    0.689940 0.585379 0.098646 0.126155
H2    H     H_    0.483671 0.294349 0.841640 0.154520
H3    H     H_    0.391802 0.194836 0.853303 0.143190
H4    H     H_    0.495613 0.859284 0.224447 0.156244
H5    H     H_    0.536876 0.806747 0.329702 0.150439
H6    H     H_    0.688542 0.971230 0.273908 0.149598
H7    H     H_    0.739356 0.917949 0.381533 0.160488
H8    H     H_    0.814225 0.791412 0.299710 0.172259
H9    H     H_    0.919797 0.883068 0.273797 0.175063
H10   H     H_    0.765635 0.845259 0.191347 0.147002
H11   H     H_    0.391214 0.860046 0.653427 0.120598
H12   H     H_    0.309441 0.414700 0.901271 0.124559
H13   H     H_    0.457896 0.927460 0.748123 0.133441
H14   H     H_    0.595692 0.755375 0.712693 0.189469
H15   H     H_    0.649820 0.821513 0.810316 0.172993
H16   H     H_    0.384192 0.808984 0.852710 0.146875
H17   H     H_    0.475558 0.708394 0.847263 0.154032
H18   H     H_    0.332233 0.741368 0.755124 0.162405
H19   H     H_    0.508356 0.072410 0.235562 0.156541
H20   H     H_    0.608575 0.130408 0.330715 0.113268
H21   H     H_    0.328445 0.189883 0.198009 0.173787
H22   H     H_    0.417012 0.247363 0.295780 0.190612
H23   H     H_    0.689646 0.585531 0.931357 0.109237
H24   H     H_    0.663673 0.250828 0.229893 0.160355
H25   H     H_    0.509183 0.296205 0.152740 0.154411
H26   H     H_    0.575893 0.192269 0.131641 0.144818
H27   H     H_    0.309817 0.414482 0.068553 0.108660
H28   H     H_    0.462327 0.071944 0.754275 0.133408
H29   H     H_    0.390673 0.135726 0.657009 0.121671
H30   H     H_    0.655227 0.179095 0.808061 0.175469
H31   H     H_    0.597734 0.241741 0.707500 0.192293
H32   H     H_    0.337048 0.259352 0.752818 0.174784
N1    N     N_1   0.500050 0.499980 0.276720 -0.187892
N2    N     N_1   0.499950 0.500020 0.723280 -0.188760
N3    N     N_1   0.922258 0.587550 0.315909 -0.303552
N4    N     N_1   0.077859 0.412877 0.684322 -0.303390
O1    O     O_R   0.500070 0.380310 0.575330 -0.492965
O2    O     O_3   0.416530 0.919723 0.330266 -0.537702
O3    O     O_3   0.613567 0.911167 0.656763 -0.529259
O4    O     O_3   0.383294 0.089361 0.342127 -0.530557
O5    O     O_R   0.499930 0.619690 0.424670 -0.489837
O6    O     O_R   0.500000 0.380310 0.424640 -0.502169
O7    O     O_R   0.500000 0.619690 0.575360 -0.500488
O8    O     O_R   0.274870 0.500000 0.557960 -0.487130
O9    O     O_R   0.725130 0.500000 0.442040 -0.487328
O10   O     O_R   0.274790 0.500000 0.407270 -0.490016
O11   O     O_R   0.725210 0.500000 0.592730 -0.491225
O12   O     O_3   0.613286 0.083842 0.659557 -0.529744

loop_
_geom_bond_atom_site_label_1
_geom_bond_atom_site_label_2
_ccdc_geom_bond_type
C18   N3    T    
C1    O1    A    
C31   H21   S    
Cu1   O11   S    
C6    C9    A    
C7    C11   S    
C10   O12   S    
C8    C13   S    
C21   H31   S    
C24   H5    S    
Cu1   O1    S    
C28   C29   S    
Cu1   O8    S    
C27   O3    S    
C26   H10   S    
C16   C35   A    
C30   C31   S    
Cu2   N1    S    
C3    C18   S    
Cu1   N2    S    
Cu2   O10   S    
C4    C19   S    
C11   C15   T    
C22   H3    S    
C3    C38   S    
C30   H20   S    
C16   H23   S    
C5    O3    S    
C25   H7    S    
C26   H8    S    
C30   O4    S    
C13   C14   T    
C31   H22   S    
C17   C33   A    
C22   H32   S    
C28   H15   S    
C27   H11   S    
C17   H27   S    
Cu2   O6    S    
C24   C25   S    
C32   H24   S    
C26   H9    S    
Cu1   Cu2   S    
C5    C7    A    
C28   H14   S    
C6    C8    A    
C2    O9    A    
C25   C26   S    
C33   C37   S    
C12   O7    A    
Cu2   O9    S    
C2    C4    S    
C6    O4    S    
C31   C32   S    
C12   C15   S    
C23   C34   A    
C30   H19   S    
C2    O11   A    
C29   H18   S    
C36   N2    T    
C24   O2    S    
C38   O10   A    
C16   C23   A    
C24   H4    S    
C20   H29   S    
C17   C34   A    
C3    C4    D    
C32   H26   S    
C7    C9    A    
C37   N1    T    
C19   N4    T    
C38   O8    A    
Cu2   O5    S    
C20   H28   S    
C29   H17   S    
C27   H13   S    
C29   H16   S    
C34   H12   S    
C21   H30   S    
C1    O6    A    
Cu1   O7    S    
C5    C10   A    
C22   H2    S    
C20   O12   S    
C33   C35   A    
C12   O5    A    
C9    O2    S    
C35   H1    S    
C20   C21   S    
C8    C10   A    
C23   C36   S    
C27   C28   S    
C1    C14   S    
C21   C22   S    
C25   H6    S    
C32   H25   S    
