data_mof_unit_61488.cif
_audit_creation_date              2012-12-10T21:26:46-0500
_audit_creation_method            fapswitch 2.2
_symmetry_space_group_name_H-M    P1
_symmetry_Int_Tables_number       1
_space_group_crystal_system       triclinic
_cell_length_a                    10.690448
_cell_length_b                    16.122509
_cell_length_c                    16.836643
_cell_angle_alpha                 87.782827
_cell_angle_beta                  90.207416
_cell_angle_gamma                 93.667333
_cell_volume                      2893.79833167

loop_
_atom_site_label
_atom_site_type_symbol
_atom_type_description
_atom_site_fract_x
_atom_site_fract_y
_atom_site_fract_z
_atom_type_partial_charge
C1    C     C_R   0.499330 0.488986 0.653073 0.906092
C2    C     C_R   0.528553 0.518437 0.262395 -0.117365
C3    C     C_R   0.517067 0.594305 0.220441 -0.157032
C4    C     C_R   0.737774 0.501262 0.497396 0.941348
C5    C     C_R   0.541901 0.600322 0.139505 -0.241250
C6    C     C_R   0.471519 0.761485 0.446207 0.029268
C7    C     C_R   0.480847 0.849468 0.443177 -0.149681
C8    C     C_R   0.531470 0.891682 0.509986 0.226772
C9    C     C_R   0.576087 0.843480 0.574011 -0.232427
C10   C     C_R   0.567255 0.756354 0.572901 -0.024014
C11   C     C_R   0.561403 0.152111 0.536099 0.539828
C12   C     C_R   0.505155 0.555698 0.781815 -0.209030
C13   C     C_R   0.565745 0.239479 0.535762 -0.260739
C14   C     C_R   0.471617 0.108359 0.488761 -0.028538
C15   C     C_R   0.397751 0.242543 0.444135 0.649411
C16   C     C_R   0.504675 0.511127 0.347123 0.959346
C17   C     C_R   0.389366 0.155254 0.442929 0.416564
C18   C     C_R   0.262307 0.499472 0.494996 0.827606
C19   C     C_2   0.073781 0.567450 0.465184 -0.430808
C20   C     C_2   0.132713 0.497208 0.474528 0.507776
C21   C     C_2   0.939507 0.563517 0.452737 0.040615
C22   C     C_2   0.870545 0.505137 0.495900 -0.228997
C23   C     C_R   0.518194 0.552014 0.863343 -0.262701
C24   C     C_R   0.504785 0.482805 0.739239 -0.127645
C25   C     C_2   0.446759 0.894225 0.368243 0.483230
C26   C     C_2   0.889505 0.624442 0.394098 0.469868
C27   C     C_R   0.531757 0.475032 0.903744 0.209165
C28   C     C_R   0.527266 0.401882 0.861633 0.681449
C29   C     C_R   0.514472 0.405637 0.779393 -0.303954
C30   C     C_R   0.597973 0.456403 0.143635 0.690356
C31   C     C_R   0.572059 0.450284 0.224084 -0.252438
C32   C     C_R   0.577414 0.530817 0.100316 0.172501
F1    F     F_    0.642267 0.111703 0.583732 -0.600027
F2    F     F_    0.317725 0.286757 0.399494 -0.552518
F3    F     F_    0.301113 0.116249 0.396929 -0.563909
F4    F     F_    0.075292 0.421822 0.457783 -0.600972
F5    F     F_    0.640647 0.389574 0.107966 -0.592089
F6    F     F_    0.537148 0.327190 0.900378 -0.591006
H1    H     H_    0.123332 0.628217 0.468805 0.156948
H2    H     H_    0.586621 0.392234 0.256348 0.209252
H3    H     H_    0.513800 0.348662 0.747299 0.204668
H4    H     H_    0.486462 0.648132 0.249716 0.188399
H5    H     H_    0.480232 0.958276 0.356016 0.122669
H6    H     H_    0.946131 0.680700 0.377562 0.073216
H7    H     H_    0.517005 0.609389 0.894645 0.189554
H8    H     H_    0.527418 0.657901 0.106439 0.187950
H9    H     H_    0.496286 0.615925 0.752242 0.183362
H10   H     H_    0.633384 0.272688 0.572753 0.220334
H11   H     H_    0.618033 0.873579 0.624923 0.187099
H12   H     H_    0.603112 0.720269 0.622439 0.141353
H13   H     H_    0.433160 0.728089 0.396246 0.169595
H14   H     H_    0.913095 0.462092 0.537522 0.173789
N1    N     N_2   0.542666 0.468945 0.987038 -0.048153
N2    N     N_2   0.579145 0.535722 0.016866 -0.171650
N3    N     N_R   0.515110 0.716920 0.509720 -0.105688
N4    N     N_2   0.546909 0.980643 0.513971 -0.071841
N5    N     N_2   0.457383 0.019125 0.486428 -0.102544
N6    N     N_R   0.484890 0.283060 0.490290 -0.213692
O1    O     O_R   0.494590 0.422540 0.612660 -0.621409
O2    O     O_2   0.789250 0.610880 0.360606 -0.560238
O3    O     O_R   0.504290 0.561850 0.618900 -0.633756
O4    O     O_R   0.676080 0.430360 0.496880 -0.608822
O5    O     O_R   0.685780 0.569670 0.503120 -0.594608
O6    O     O_R   0.495710 0.438150 0.381100 -0.580288
O7    O     O_R   0.505410 0.577460 0.387340 -0.618310
O8    O     O_R   0.314220 0.430330 0.496880 -0.516355
O9    O     O_R   0.323920 0.569640 0.503120 -0.663130
O10   O     O_2   0.382329 0.859245 0.317969 -0.548204
Zn1   Zn    Zn3+2 0.493520 0.406980 0.495830 1.052271
Zn2   Zn    Zn3+2 0.506480 0.593020 0.504170 0.974171

loop_
_geom_bond_atom_site_label_1
_geom_bond_atom_site_label_2
_ccdc_geom_bond_type
O3    Zn2   S    
C13   H10   S    
C21   C26   S    
C27   N1    S    
C3    H4    S    
N1    N2    D    
C6    C7    A    
C23   H7    S    
C23   C27   A    
C6    H13   S    
C18   O8    A    
C2    C16   S    
C9    C10   A    
C12   C24   A    
C15   F2    S    
C19   C20   D    
C7    C25   S    
O5    Zn2   S    
C28   F6    S    
C6    N3    A    
C5    C32   A    
O8    Zn1   S    
C25   H5    S    
C2    C3    A    
C26   H6    S    
C7    C8    A    
N6    Zn1   S    
O6    Zn1   S    
N4    N5    D    
C30   C32   A    
C10   N3    A    
C11   C13   A    
C12   C23   A    
C8    N4    S    
C25   O10   D    
C19   H1    S    
O1    Zn1   S    
C12   H9    S    
C32   N2    S    
C28   C29   A    
C19   C21   S    
C16   O6    A    
C18   C20   S    
C1    O1    A    
C13   N6    A    
C30   C31   A    
C11   C14   A    
N3    Zn2   S    
O7    Zn2   S    
C10   H12   S    
C15   N6    A    
C4    O4    A    
C11   F1    S    
C9    H11   S    
C31   H2    S    
O4    Zn1   S    
C1    C24   S    
C22   H14   S    
C5    H8    S    
C27   C28   A    
C15   C17   A    
C14   N5    S    
C4    C22   S    
C24   C29   A    
C2    C31   A    
C14   C17   A    
C16   O7    A    
C17   F3    S    
O9    Zn2   S    
C29   H3    S    
C18   O9    A    
C21   C22   D    
C26   O2    D    
C4    O5    A    
C30   F5    S    
C1    O3    A    
C8    C9    A    
C3    C5    A    
C20   F4    S    
