data_mof_unit_41114.cif
_audit_creation_date              2012-12-10T18:23:19-0500
_audit_creation_method            fapswitch 2.2
_symmetry_space_group_name_H-M    P1
_symmetry_Int_Tables_number       1
_space_group_crystal_system       triclinic
_cell_length_a                    27.78676
_cell_length_b                    10.648196
_cell_length_c                    9.465905
_cell_angle_alpha                 90.13562
_cell_angle_beta                  89.993104
_cell_angle_gamma                 90.634907
_cell_volume                      2800.58142991

loop_
_atom_site_label
_atom_site_type_symbol
_atom_type_description
_atom_site_fract_x
_atom_site_fract_y
_atom_site_fract_z
_atom_type_partial_charge
C1    C     C_R   0.499076 0.259595 0.499951 0.800185
C2    C     C_R   0.499198 0.740291 0.500232 0.806428
C3    C     C_R   0.101893 0.490493 0.518064 -0.159554
C4    C     C_R   0.898553 0.487098 0.531435 -0.161067
C5    C     C_R   0.127766 0.378678 0.543148 -0.183618
C6    C     C_R   0.873275 0.598366 0.564433 -0.183869
C7    C     C_R   0.101892 0.267139 0.578315 0.362734
C8    C     C_R   0.899806 0.708833 0.600410 0.361376
C9    C     C_R   0.126635 0.603819 0.484039 -0.096148
C10   C     C_R   0.873142 0.375319 0.494879 -0.095497
C11   C     C_R   0.354672 0.502459 0.498250 -0.283587
C12   C     C_R   0.645511 0.492552 0.502071 -0.289793
C13   C     C_R   0.974913 0.374143 0.519877 0.032092
C14   C     C_R   0.025392 0.602830 0.520562 0.031433
C15   C     C_R   0.975235 0.601811 0.548704 -0.100292
C16   C     C_R   0.025559 0.374524 0.540563 -0.100332
C17   C     C_R   0.949530 0.487716 0.533477 0.018330
C18   C     C_R   0.050982 0.489160 0.526279 0.018002
C19   C     C_R   0.949337 0.265074 0.480991 -0.181271
C20   C     C_R   0.050114 0.712801 0.480995 -0.178239
C21   C     C_R   0.899489 0.264618 0.466591 0.408598
C22   C     C_R   0.099669 0.714140 0.460162 0.408015
C23   C     C_R   0.407663 0.500922 0.499641 0.862514
C24   C     C_R   0.592423 0.498561 0.500148 0.895153
C25   C     C_R   0.051377 0.265873 0.579203 0.379363
C26   C     C_R   0.950256 0.709509 0.595117 0.381433
C27   C     C_3   0.528341 0.042845 0.601976 -0.288851
C28   C     C_3   0.467352 0.956561 0.399460 -0.304738
C29   C     C_3   0.543256 0.959585 0.474926 -0.313875
C30   C     C_3   0.452584 0.040332 0.526658 -0.334922
C31   C     C_3   0.498196 0.877072 0.500484 -0.080802
C32   C     C_3   0.497813 0.122602 0.500638 -0.083673
C33   C     C_3   0.483562 0.959584 0.625191 0.594737
C34   C     C_3   0.512284 0.039811 0.375969 0.590585
C35   C     C_3   0.532487 0.575085 0.049449 0.378259
C36   C     C_3   0.467095 0.424915 0.950235 0.378684
C37   C     C_3   0.491677 0.612139 0.949262 -0.327121
C38   C     C_3   0.507954 0.387634 0.050929 -0.334002
C39   C     C_3   0.540414 0.464148 0.951195 0.517922
C40   C     C_3   0.459338 0.535823 0.049563 0.525278
C41   C     C_R   0.178586 0.384382 0.536201 0.661632
C42   C     C_R   0.822423 0.593430 0.563092 0.654450
C43   C     C_R   0.177266 0.601798 0.474972 0.673923
C44   C     C_R   0.822512 0.379718 0.485944 0.675910
C45   C     C_R   0.279179 0.563937 0.607820 0.363814
C46   C     C_R   0.718927 0.410018 0.606710 0.348499
C47   C     C_R   0.329541 0.571148 0.601807 0.339803
C48   C     C_R   0.668604 0.407189 0.592945 0.346824
C49   C     C_R   0.328670 0.435695 0.393425 0.407607
C50   C     C_R   0.673560 0.574283 0.418045 0.396371
C51   C     C_R   0.278385 0.436462 0.394940 -0.235537
C52   C     C_R   0.723895 0.565189 0.420608 -0.253102
C53   C     C_R   0.253511 0.498018 0.502809 0.113805
C54   C     C_R   0.746748 0.486579 0.517049 0.123285
Cu1   Cu    Cu3+1 0.500010 0.499990 0.643150 1.064512
Cu2   Cu    Cu3+1 0.499990 0.500010 0.356850 1.052905
H1    H     H_    0.551090 0.079798 0.689018 0.164274
H2    H     H_    0.443110 0.918638 0.316054 0.161606
H3    H     H_    0.485412 0.706060 0.903222 0.220677
H4    H     H_    0.514327 0.293856 0.097140 0.217869
H5    H     H_    0.258530 0.387301 0.312891 0.203824
H6    H     H_    0.745617 0.621853 0.349744 0.195017
H7    H     H_    0.968045 0.179909 0.453825 0.233037
H8    H     H_    0.030783 0.797962 0.458248 0.233053
H9    H     H_    0.579934 0.924738 0.453984 0.145135
H10   H     H_    0.415907 0.074528 0.550377 0.154573
N1    N     N_R   0.201759 0.494484 0.504174 -0.445271
N2    N     N_R   0.798545 0.486113 0.523325 -0.442884
N3    N     N_3   0.500040 0.499970 0.858290 -0.233666
N4    N     N_3   0.499960 0.500030 0.141710 -0.233773
O1    O     O_R   0.500020 0.316850 0.620870 -0.549422
O2    O     O_R   0.499980 0.683150 0.379130 -0.554167
O3    O     O_R   0.500000 0.316860 0.379090 -0.563423
O4    O     O_R   0.500000 0.683140 0.620910 -0.557349
O5    O     O_R   0.430270 0.500020 0.620880 -0.524814
O6    O     O_R   0.569730 0.499980 0.379120 -0.542717
O7    O     O_R   0.430250 0.500030 0.379090 -0.503640
O8    O     O_R   0.569750 0.499970 0.620910 -0.505645
O9    O     O_2   0.205160 0.281775 0.561456 -0.443541
O10   O     O_2   0.796502 0.694270 0.600966 -0.448111
O11   O     O_2   0.796954 0.279576 0.439458 -0.438540
O12   O     O_2   0.202414 0.705726 0.438553 -0.432943
O13   O     O_3   0.352057 0.374441 0.284801 -0.512397
C55   C     C_3   0.359988 0.249385 0.326309 -0.181068
H11   H     H_    0.325370 0.197789 0.342387 0.169106
H12   H     H_    0.382393 0.245341 0.423484 0.117238
H13   H     H_    0.380001 0.201008 0.240991 0.202862
O14   O     O_3   0.651428 0.659088 0.329651 -0.514663
C56   C     C_3   0.664312 0.782672 0.370063 -0.172351
H14   H     H_    0.702689 0.804087 0.346552 0.181664
H15   H     H_    0.656393 0.800134 0.483746 0.137642
H16   H     H_    0.642790 0.849079 0.306934 0.183372
O15   O     O_3   0.469445 0.906993 0.755540 -0.611980
C57   C     C_3   0.454000 0.002809 0.846957 -0.295721
H17   H     H_    0.420268 0.045498 0.807590 0.207998
H18   H     H_    0.482391 0.075954 0.862884 0.197858
H19   H     H_    0.445928 0.960775 0.951524 0.181802
O16   O     O_3   0.526668 0.092438 0.245884 -0.609533
C58   C     C_3   0.541250 0.996359 0.153672 -0.271314
H20   H     H_    0.512514 0.923953 0.138674 0.190063
H21   H     H_    0.574933 0.952848 0.191810 0.201012
H22   H     H_    0.549038 0.038292 0.048874 0.182214
Cl1   Cl    Cl    0.575905 0.683467 0.114583 -0.577184
Cl2   Cl    Cl    0.422764 0.320184 0.880038 -0.624472
O17   O     O_3   0.584990 0.429795 0.892347 -0.511360
C59   C     C_3   0.613175 0.370462 0.995888 -0.147474
H23   H     H_    0.598760 0.274862 0.018743 0.134992
H24   H     H_    0.615863 0.426754 0.094857 0.180251
H25   H     H_    0.650226 0.359840 0.954338 0.239262
O18   O     O_3   0.416061 0.573746 0.113985 -0.547436
C60   C     C_3   0.384149 0.619338 0.011602 -0.121204
H26   H     H_    0.373761 0.544308 0.935712 0.244596
H27   H     H_    0.399439 0.702570 0.956127 0.148440
H28   H     H_    0.350809 0.649835 0.065549 0.198911
Cl3   Cl    Cl    0.130102 0.125412 0.627343 -0.390890
Cl4   Cl    Cl    0.872645 0.850815 0.654478 -0.396971
O19   O     O_3   0.642050 0.320636 0.669435 -0.516650
C61   C     C_3   0.640228 0.207075 0.592256 -0.229594
H29   H     H_    0.675541 0.180938 0.545241 0.189306
H30   H     H_    0.612480 0.212358 0.507947 0.135086
H31   H     H_    0.630337 0.130175 0.665571 0.187266
O20   O     O_3   0.354096 0.644857 0.698695 -0.565653
C62   C     C_3   0.361258 0.765186 0.639771 -0.213677
H32   H     H_    0.377675 0.827030 0.721206 0.205441
H33   H     H_    0.326653 0.808519 0.607657 0.196830
H34   H     H_    0.386408 0.761759 0.548423 0.129543
Cl5   Cl    Cl    0.746473 0.317813 0.737890 -0.503269
Cl6   Cl    Cl    0.248646 0.637501 0.748321 -0.503538
Cl7   Cl    Cl    0.873290 0.119783 0.414867 -0.426124
Cl8   Cl    Cl    0.124590 0.858577 0.403023 -0.421613
O21   O     O_3   0.027708 0.158836 0.626536 -0.538566
C63   C     C_3   0.014867 0.176741 0.769420 -0.174483
H35   H     H_    0.991601 0.260169 0.784129 0.143228
H36   H     H_    0.047417 0.185038 0.837402 0.173863
H37   H     H_    0.993780 0.093856 0.805232 0.206532
O22   O     O_3   0.974855 0.814893 0.643682 -0.539309
C64   C     C_3   0.989587 0.792860 0.784113 -0.183128
H38   H     H_    0.013176 0.709398 0.792265 0.146850
H39   H     H_    0.957973 0.781943 0.855392 0.173557
H40   H     H_    0.010969 0.874904 0.821324 0.201107

loop_
_geom_bond_atom_site_label_1
_geom_bond_atom_site_label_2
_ccdc_geom_bond_type
Cu1   Cu2   S    
C38   N4    S    
C42   O10   S    
O15   C57   S    
Cu2   O6    S    
C37   N3    S    
C27   C29   S    
C8    C26   A    
C14   C18   A    
C11   C47   A    
C60   H26   S    
C51   H5    S    
C55   H13   S    
C12   C48   A    
C62   H32   S    
C41   N1    A    
C27   C33   S    
C64   H39   S    
C1    O1    A    
C40   N4    S    
C3    C9    A    
C35   C37   S    
C55   H12   S    
C37   C40   S    
C35   Cl1   S    
C38   C39   S    
C9    C22   A    
C62   H33   S    
C54   N2    S    
C59   H23   S    
C45   Cl6   S    
C3    C18   A    
C39   O17   S    
C7    Cl3   S    
O18   C60   S    
C61   H29   S    
Cu1   O4    S    
C58   H20   S    
C35   N4    S    
C19   H7    S    
C63   H35   S    
Cu2   O2    S    
C50   C52   A    
C31   C33   S    
C56   H15   S    
C2    O4    A    
C50   O14   S    
Cu1   O5    S    
C37   H3    S    
C28   C34   S    
C22   Cl8   S    
C42   N2    A    
C2    O2    A    
C52   C54   A    
C45   C47   A    
C10   C21   A    
C64   H40   S    
C46   C48   A    
C9    C43   A    
C13   C19   A    
C10   C44   A    
C14   C20   A    
C46   Cl5   S    
C36   C40   S    
C55   H11   S    
C4    C6    A    
C44   O11   S    
C27   H1    S    
C5    C7    A    
Cu1   O8    S    
C24   O6    A    
C15   C26   A    
C40   O18   S    
C57   H19   S    
C49   C51   A    
C29   C34   S    
C1    C32   S    
C23   O7    A    
Cu2   O7    S    
C2    C31   S    
C51   C53   A    
C61   H31   S    
C32   C34   S    
C20   H8    S    
C35   C39   S    
C11   C49   A    
C12   C50   A    
O13   C55   S    
C46   C54   A    
C39   N3    S    
C60   H27   S    
C16   C18   A    
Cu1   N3    S    
C47   O20   S    
C56   H16   S    
C57   H18   S    
C21   Cl7   S    
C30   H10   S    
C29   H9    S    
C4    C17   A    
C63   H36   S    
C58   H21   S    
C20   C22   A    
Cu2   N4    S    
C38   H4    S    
C44   N2    A    
C4    C10   A    
O21   C63   S    
C25   O21   S    
C3    C5    A    
C36   N3    S    
O17   C59   S    
C24   O8    A    
C16   C25   A    
C15   C17   A    
C5    C41   A    
Cu2   O3    S    
C30   C33   S    
C19   C21   A    
C27   C32   S    
C28   C31   S    
C23   O5    A    
O22   C64   S    
C62   H34   S    
C33   O15   S    
C41   O9    S    
C6    C8    A    
C48   O19   S    
C28   H2    S    
C64   H38   S    
C12   C24   S    
C7    C25   A    
C13   C17   A    
C36   Cl2   S    
C1    O3    A    
C49   O13   S    
C36   C38   S    
O20   C62   S    
C28   C30   S    
C29   C31   S    
C52   H6    S    
O19   C61   S    
C30   C32   S    
C59   H24   S    
C63   H37   S    
C11   C23   S    
C34   O16   S    
C60   H28   S    
C57   H17   S    
C53   N1    S    
C61   H30   S    
C26   O22   S    
C8    Cl4   S    
C45   C53   A    
C58   H22   S    
O14   C56   S    
C43   N1    A    
O16   C58   S    
C6    C42   A    
C13   C16   A    
C43   O12   S    
C14   C15   A    
C56   H14   S    
Cu1   O1    S    
C59   H25   S    
