data_mof_unit_58853.cif
_audit_creation_date              2013-03-05T16:36:43-0500
_audit_creation_method            fapswitch 2.2
_symmetry_space_group_name_H-M    P1
_symmetry_Int_Tables_number       1
_space_group_crystal_system       triclinic
_cell_length_a                    7.787497
_cell_length_b                    9.08641
_cell_length_c                    16.925661
_cell_angle_alpha                 89.822109
_cell_angle_beta                  93.832865
_cell_angle_gamma                 90.064561
_cell_volume                      1194.98128372

loop_
_atom_site_label
_atom_site_type_symbol
_atom_site_description
_atom_site_fract_x
_atom_site_fract_y
_atom_site_fract_z
_atom_type_partial_charge
O1    O     O_R   0.642760 0.288400 0.500000 -0.561880
O2    O     O_R   0.357240 0.711600 0.500000 -0.561387
O3    O     O_R   0.357190 0.288380 0.500000 -0.579341
O4    O     O_R   0.642810 0.711620 0.500000 -0.579567
C1    C     C_R   0.499959 0.220034 0.500331 0.872115
C2    C     C_R   0.500042 0.779966 0.499672 0.872361
O5    O     O_R   0.658410 0.498660 0.613920 -0.561523
O6    O     O_R   0.341590 0.501340 0.386080 -0.561793
O7    O     O_R   0.372840 0.498650 0.613930 -0.560685
O8    O     O_R   0.627160 0.501350 0.386070 -0.561218
C3    C     C_R   0.521031 0.500697 0.651501 0.921429
C4    C     C_R   0.478963 0.499494 0.348514 0.922158
Cu1   Cu    Cu3+1 0.669080 0.500010 0.500000 1.101698
Cu2   Cu    Cu3+1 0.330920 0.499990 0.500000 1.101939
N1    N     N_1   0.076820 0.499970 0.500010 -0.013946
N2    N     N_1   0.923180 0.500030 0.499990 -0.014072
C5    C     C_R   0.532802 0.516068 0.737770 -0.251936
C6    C     C_R   0.467084 0.485316 0.262212 -0.252043
C7    C     C_R   0.464836 0.642852 0.771849 0.129313
C8    C     C_R   0.532111 0.357879 0.227612 0.129509
C9    C     C_R   0.473679 0.658517 0.854443 0.245237
C10   C     C_R   0.523037 0.343421 0.144933 0.245407
C11   C     C_R   0.546893 0.546246 0.902868 0.119133
C12   C     C_R   0.452532 0.457547 0.096987 0.118743
C13   C     C_R   0.623912 0.422648 0.868889 0.242794
C14   C     C_R   0.378241 0.581869 0.131525 0.242544
C15   C     C_R   0.615683 0.407469 0.785971 0.134839
C16   C     C_R   0.386848 0.595880 0.214492 0.134412
N3    N     N_2   0.535006 0.557020 0.985810 -0.099662
N4    N     N_2   0.464086 0.447375 0.013995 -0.100450
C17   C     C_1   0.499915 0.065382 0.500135 -0.069340
C18   C     C_1   0.500086 0.934617 0.499869 -0.069015
Br1   Br    Br    0.620077 0.196975 0.293216 -0.347051
Br2   Br    Br    0.372992 0.801615 0.705712 -0.348385
N5    N     N_R   0.586870 0.213331 0.109016 0.203366
O9    O     O_R   0.491073 0.143218 0.055587 -0.183663
O10   O     O_R   0.743852 0.169185 0.126192 -0.201470
N6    N     N_R   0.406778 0.787951 0.889768 0.202801
O11   O     O_R   0.248331 0.828489 0.872922 -0.202238
O12   O     O_R   0.501692 0.861427 0.942135 -0.183249
N7    N     N_R   0.714895 0.316310 0.918759 0.191717
O13   O     O_R   0.682387 0.176501 0.910656 -0.177254
O14   O     O_R   0.824663 0.359700 0.975275 -0.244700
N8    N     N_R   0.289192 0.690018 0.082189 0.191977
O15   O     O_R   0.177125 0.648879 0.026099 -0.242557
O16   O     O_R   0.324869 0.829202 0.090648 -0.176890
Br3   Br    Br    0.720423 0.240055 0.738180 -0.308547
Br4   Br    Br    0.285893 0.764321 0.263031 -0.309633

loop_
_geom_bond_atom_site_label_1
_geom_bond_atom_site_label_2
_geom_bond_distance
_ccdc_geom_bond_type
C2    C18   1.405242 S    
O7    Cu2   1.934146 S    
N3    N4    1.247474 D    
C13   C15   1.407809 A    
N7    O14   1.301327 A    
N7    O13   1.300934 A    
C14   C16   1.407548 A    
C17   C18   1.188204 T    
O6    C4    1.280648 A    
C11   C13   1.415428 A    
C14   N8    1.436278 S    
Cu1   Cu2   2.633421 S    
N6    O12   1.301021 A    
C10   N5    1.435313 S    
O7    C3    1.280022 A    
O2    C2    1.273529 A    
O3    Cu2   1.933857 S    
O8    C4    1.279922 A    
O1    C1    1.273524 A    
C8    Br1   1.931401 S    
C11   N3    1.416757 S    
C5    C7    1.409355 A    
C12   C14   1.415387 A    
O5    C3    1.280861 A    
C6    C8    1.409052 A    
C9    C11   1.403991 A    
N6    O11   1.301093 A    
O2    Cu2   1.933439 S    
C10   C12   1.404225 A    
C12   N4    1.416870 S    
O1    Cu1   1.933440 S    
C8    C10   1.403016 A    
C15   Br3   1.931917 S    
N1    N2    1.196450 T    
C5    C15   1.407814 A    
O5    Cu1   1.935503 S    
C6    C16   1.407469 A    
N8    O15   1.301299 A    
N5    O10   1.301072 A    
O4    C2    1.273777 A    
Cu1   N2    1.978813 S    
C13   N7    1.436874 S    
O4    Cu1   1.933857 S    
Cu2   N1    1.978813 S    
C3    C5    1.463997 S    
O6    Cu2   1.935504 S    
C1    C17   1.405247 S    
C7    C9    1.402734 A    
O8    Cu1   1.934147 S    
C16   Br4   1.931941 S    
C9    N6    1.435092 S    
N5    O9    1.300961 A    
N8    O16   1.300816 A    
O3    C1    1.273781 A    
C7    Br2   1.931563 S    
C4    C6    1.463528 S    
