data_mof_unit_56278.cif
_audit_creation_date              2012-10-26T19:04:41-0400
_audit_creation_method            fapswitch 2.2
_symmetry_space_group_name_H-M    P1
_symmetry_Int_Tables_number       1
_space_group_crystal_system       triclinic
_cell_length_a                    9.583546
_cell_length_b                    10.787101
_cell_length_c                    13.456233
_cell_angle_alpha                 93.82268
_cell_angle_beta                  74.036735
_cell_angle_gamma                 89.829783
_cell_volume                      1334.13998976

loop_
_atom_site_label
_atom_site_type_symbol
_atom_type_description
_atom_site_fract_x
_atom_site_fract_y
_atom_site_fract_z
_atom_type_partial_charge
C1    C     C_R   0.497447 0.737734 0.506135 0.542025
C2    C     C_R   0.389941 0.452766 0.806807 -0.008130
C3    C     C_R   0.266411 0.884768 0.659544 -0.108715
C4    C     C_R   0.425256 0.487641 0.698209 0.534838
C5    C     C_R   0.155616 0.955759 0.729167 -0.128196
C6    C     C_R   0.155230 0.084624 0.728857 -0.123181
C7    C     C_R   0.265651 0.143340 0.658928 -0.097767
C8    C     C_R   0.377916 0.073310 0.586204 0.032094
C9    C     C_R   0.378040 0.941951 0.586299 0.029256
C10   C     C_R   0.494042 0.872426 0.516271 -0.003237
C11   C     C_R   0.613063 0.932273 0.455769 -0.154832
C12   C     C_R   0.456743 0.419177 0.966599 0.048667
C13   C     C_R   0.613710 0.059822 0.456957 -0.165594
C14   C     C_R   0.494540 0.130435 0.516775 -0.006486
C15   C     C_R   0.905620 0.321488 0.371550 -0.100523
C16   C     C_R   0.497874 0.263232 0.505857 0.520978
C17   C     C_R   0.997507 0.222896 0.319373 0.225494
C18   C     C_R   0.139334 0.219539 0.325445 -0.145189
C19   C     C_R   0.192519 0.318744 0.374169 -0.146728
C20   C     C_R   0.099020 0.411641 0.437360 0.143872
C21   C     C_R   0.949724 0.412126 0.436916 0.107728
C22   C     C_R   0.902301 0.583322 0.560695 -0.004676
C23   C     C_R   0.499248 0.431251 0.858362 0.021424
C24   C     C_R   0.050364 0.583402 0.560552 -0.001595
C25   C     C_R   0.577805 0.502395 0.299880 0.532668
C26   C     C_R   0.810608 0.492069 0.019580 -0.134638
C27   C     C_R   0.625120 0.498493 0.184947 0.003897
C28   C     C_R   0.243989 0.438738 0.860591 -0.164822
C29   C     C_R   0.207847 0.394861 0.958906 -0.137390
C30   C     C_R   0.314330 0.377980 0.010553 0.021204
C31   C     C_3   0.890255 0.565240 0.173916 -0.261572
C32   C     C_3   0.859371 0.700505 0.216162 -0.397544
C33   C     C_3   0.902272 0.164956 0.182433 -0.008078
C34   C     C_R   0.560461 0.445018 0.023242 0.015676
C35   C     C_3   0.742987 0.132518 0.195861 -0.269703
C36   C     C_3   0.700135 0.142890 0.095612 -0.480489
C37   C     C_3   0.282777 0.284309 0.091588 -0.286599
C38   C     C_3   0.282420 0.153004 0.040982 -0.431116
C39   C     C_R   0.708033 0.455606 0.968256 0.026286
C40   C     C_R   0.752032 0.431252 0.861382 -0.155340
C41   C     C_R   0.649190 0.416922 0.807065 -0.120235
C42   C     C_R   0.520594 0.471726 0.131225 -0.164276
C43   C     C_R   0.772126 0.515691 0.127148 0.001072
Cu1   Cu    Cu3+1 0.359340 0.500010 0.500010 0.906939
Cu2   Cu    Cu3+1 0.640660 0.499990 0.499990 0.900445
H1    H     H_    0.265707 0.785594 0.666438 0.128918
H2    H     H_    0.866190 0.427613 0.819086 0.100806
H3    H     H_    0.086118 0.651514 0.610334 0.107083
H4    H     H_    0.921041 0.506110 0.974365 0.098790
H5    H     H_    0.407120 0.474459 0.174189 0.129555
H6    H     H_    0.158514 0.451241 0.823418 0.119452
H7    H     H_    0.098014 0.365358 0.992276 0.101086
H8    H     H_    0.691387 0.390261 0.725741 0.168007
H9    H     H_    0.705205 0.880051 0.405524 0.136582
H10   H     H_    0.859715 0.760380 0.152045 0.143260
H11   H     H_    0.752565 0.711461 0.274779 0.171242
H12   H     H_    0.071172 0.910646 0.784946 0.105225
H13   H     H_    0.944777 0.732348 0.252852 0.148478
H14   H     H_    0.907105 0.505896 0.233646 0.162129
H15   H     H_    0.997289 0.562572 0.114676 0.127406
H16   H     H_    0.969044 0.113110 0.111174 0.154254
H17   H     H_    0.916868 0.265874 0.169658 0.105740
H18   H     H_    0.724707 0.035748 0.219483 0.177999
H19   H     H_    0.672287 0.196703 0.257254 0.143795
H20   H     H_    0.722526 0.237108 0.067976 0.166614
H21   H     H_    0.582440 0.125466 0.109498 0.146397
H22   H     H_    0.762088 0.073341 0.034768 0.143929
H23   H     H_    0.070542 0.139535 0.784405 0.106150
H24   H     H_    0.254273 0.085055 0.101389 0.149868
H25   H     H_    0.391844 0.127891 0.988746 0.157752
H26   H     H_    0.202206 0.146110 0.995128 0.146103
H27   H     H_    0.363688 0.281859 0.136156 0.135705
H28   H     H_    0.175306 0.308602 0.145737 0.143491
H29   H     H_    0.263798 0.243635 0.665183 0.145976
H30   H     H_    0.706673 0.103602 0.408730 0.173394
H31   H     H_    0.827484 0.651393 0.610561 0.121717
H32   H     H_    0.801624 0.323248 0.358249 0.181563
H33   H     H_    0.212428 0.144607 0.284627 0.134641
H34   H     H_    0.307577 0.319347 0.358552 0.183963
N1    N     N_R   0.852480 0.498790 0.499000 -0.245764
N2    N     N_R   0.148360 0.498710 0.498970 -0.234097
O1    O     O_R   0.381190 0.680360 0.500010 -0.497058
O2    O     O_R   0.618760 0.680340 0.500000 -0.499976
O3    O     O_R   0.323240 0.499990 0.650990 -0.517524
O4    O     O_R   0.560820 0.499960 0.650980 -0.511206
O5    O     O_R   0.381240 0.319660 0.500000 -0.524277
O6    O     O_R   0.618810 0.319640 0.499990 -0.522762
O7    O     O_R   0.439180 0.500040 0.349020 -0.515299
O8    O     O_R   0.676760 0.500010 0.349010 -0.524322
O9    O     O_3   0.948526 0.124946 0.266800 -0.582696

loop_
_geom_bond_atom_site_label_1
_geom_bond_atom_site_label_2
_ccdc_geom_bond_type
C40   H2    S    
C38   H25   S    
C2    C4    S    
C19   C20   A    
C34   C42   A    
C22   H31   S    
C36   H22   S    
C7    C8    A    
C12   C23   A    
C29   C30   A    
C31   C43   S    
C28   C29   A    
Cu2   O6    S    
Cu1   O1    S    
C5    C6    A    
C28   H6    S    
C36   H21   S    
C26   C39   A    
C18   C19   A    
C31   H14   S    
C13   H30   S    
C8    C9    A    
C16   O6    A    
C35   H19   S    
C32   H13   S    
Cu2   O8    S    
C9    C10   A    
C32   H10   S    
C6    H23   S    
C38   H24   S    
C20   N2    A    
C16   O5    A    
Cu2   O2    S    
Cu1   O5    S    
C26   C43   A    
C7    H29   S    
C17   O9    S    
C34   C39   A    
C24   H3    S    
Cu1   N2    S    
C26   H4    S    
C39   C40   A    
C36   H20   S    
C33   H17   S    
C4    O4    A    
C3    C5    A    
C1    O1    A    
C25   O7    A    
C30   C37   S    
C35   C36   S    
C31   H15   S    
Cu2   O4    S    
C24   N2    A    
C37   C38   S    
C3    C9    A    
C31   C32   S    
C4    O3    A    
C18   H33   S    
C17   C18   A    
C19   H34   S    
C41   H8    S    
C11   H9    S    
C42   H5    S    
C40   C41   A    
C14   C16   S    
C25   C27   S    
C12   C34   A    
Cu1   Cu2   S    
C15   C17   A    
C37   H28   S    
C38   H26   S    
C8    C14   A    
C12   C30   A    
C1    C10   S    
Cu1   O3    S    
C2    C28   A    
C6    C7    A    
C1    O2    A    
C3    H1    S    
C25   O8    A    
C23   C41   A    
C5    H12   S    
C22   N1    A    
Cu1   O7    S    
C33   O9    S    
C11   C13   A    
C27   C42   A    
C15   H32   S    
C21   N1    A    
C33   C35   S    
Cu2   N1    S    
C22   C24   A    
C10   C11   A    
C27   C43   A    
C15   C21   A    
C20   C21   A    
C33   H16   S    
C37   H27   S    
C2    C23   A    
C35   H18   S    
C13   C14   A    
C32   H11   S    
C29   H7    S    
