data_mof_unit_55359.cif
_audit_creation_date              2013-03-05T16:14:48-0500
_audit_creation_method            fapswitch 2.2
_symmetry_space_group_name_H-M    P1
_symmetry_Int_Tables_number       1
_space_group_crystal_system       triclinic
_cell_length_a                    9.41721
_cell_length_b                    10.672932
_cell_length_c                    17.348699
_cell_angle_alpha                 89.849907
_cell_angle_beta                  86.346677
_cell_angle_gamma                 90.006434
_cell_volume                      1740.15509379

loop_
_atom_site_label
_atom_site_type_symbol
_atom_site_description
_atom_site_fract_x
_atom_site_fract_y
_atom_site_fract_z
_atom_type_partial_charge
O1    O     O_R   0.379130 0.683150 0.499960 -0.598896
O2    O     O_R   0.620870 0.316850 0.500040 -0.598884
O3    O     O_R   0.620910 0.683140 0.500000 -0.553390
O4    O     O_R   0.379090 0.316860 0.500000 -0.553387
C1    C     C_R   0.499958 0.739998 0.500151 0.933891
C2    C     C_R   0.500042 0.260002 0.499849 0.933923
O5    O     O_R   0.365090 0.500030 0.613580 -0.586215
O6    O     O_R   0.634910 0.499970 0.386420 -0.586151
O7    O     O_R   0.606870 0.500020 0.613610 -0.545068
O8    O     O_R   0.393130 0.499980 0.386390 -0.545039
C3    C     C_R   0.481920 0.502885 0.649333 0.913855
C4    C     C_R   0.518081 0.497118 0.350666 0.913868
Cu1   Cu    Cu3+1 0.356850 0.500010 0.499980 1.031322
Cu2   Cu    Cu3+1 0.643150 0.499990 0.500020 1.031336
C5    C     C_R   0.474759 0.512285 0.733092 -0.204083
C6    C     C_R   0.525247 0.487708 0.266906 -0.204005
C7    C     C_R   0.556328 0.427893 0.773953 0.407239
C8    C     C_R   0.443600 0.572027 0.226038 0.407256
C9    C     C_R   0.559747 0.440245 0.853722 -0.251330
C10   C     C_R   0.440234 0.559672 0.146266 -0.251352
C11   C     C_R   0.480285 0.533483 0.893357 -0.087641
C12   C     C_R   0.519820 0.466507 0.106638 -0.087657
C13   C     C_R   0.395763 0.616969 0.852918 0.351376
C14   C     C_R   0.604422 0.383099 0.147085 0.351376
C15   C     C_R   0.394704 0.608217 0.772212 0.289727
C16   C     C_R   0.605427 0.391849 0.227792 0.289676
C17   C     C_2   0.494687 0.549287 0.976456 -0.063315
C18   C     C_2   0.505455 0.450691 0.023539 -0.063292
H1    H     H_    0.504222 0.355980 0.000836 0.191040
H2    H     H_    0.495923 0.643993 0.999167 0.191076
H3    H     H_    0.371837 0.621087 0.115438 0.193745
H4    H     H_    0.628095 0.378771 0.884540 0.193704
C19   C     C_3   0.363028 0.957359 0.501692 -0.343185
C20   C     C_3   0.636972 0.042641 0.498308 -0.343189
C21   C     C_3   0.438102 0.040773 0.438395 0.271451
C22   C     C_3   0.561898 0.959228 0.561606 0.271467
H5    H     H_    0.251380 0.923539 0.503132 0.207337
H6    H     H_    0.748620 0.076461 0.496868 0.207338
C23   C     C_3   0.500252 0.124223 0.499806 -0.251018
C24   C     C_3   0.499748 0.875777 0.500195 -0.251009
C25   C     C_3   0.428526 0.040726 0.563058 0.269066
C26   C     C_3   0.571474 0.959274 0.436943 0.269060
C27   C     C_3   0.953935 0.406274 0.461035 -0.032948
C28   C     C_3   0.046065 0.593726 0.538964 -0.032983
C29   C     C_3   0.047002 0.398162 0.530593 -0.023103
C30   C     C_3   0.952998 0.601837 0.469407 -0.023074
H7    H     H_    0.091230 0.312485 0.556473 0.172577
H8    H     H_    0.908770 0.687515 0.443527 0.172576
H9    H     H_    0.910270 0.327478 0.428190 0.159742
H10   H     H_    0.089730 0.672522 0.571809 0.159702
N1    N     N_3   0.141720 0.500030 0.499940 -0.186356
N2    N     N_3   0.858280 0.499970 0.500060 -0.186355
C31   C     C_3   0.058474 0.508141 0.430368 -0.001396
C32   C     C_3   0.941525 0.491859 0.569631 -0.001436
H11   H     H_    0.111803 0.515144 0.371584 0.175740
H12   H     H_    0.888197 0.484856 0.628416 0.175695
O9    O     O_3   0.632423 0.334598 0.734497 -0.664595
H13   H     H_    0.683005 0.283075 0.771712 0.361251
O10   O     O_3   0.367387 0.665257 0.265486 -0.664650
H14   H     H_    0.316759 0.716729 0.228265 0.361223
O11   O     O_3   0.685371 0.305393 0.265841 -0.618173
H15   H     H_    0.648733 0.297851 0.320322 0.338267
O12   O     O_3   0.314840 0.694758 0.734178 -0.618093
H16   H     H_    0.351297 0.702137 0.679658 0.338228
N3    N     N_R   0.311717 0.711537 0.893441 0.157312
O13   O     O_R   0.233510 0.682859 0.955536 -0.322874
O14   O     O_R   0.308158 0.825464 0.866719 -0.202873
N4    N     N_R   0.688601 0.288614 0.106565 0.157310
O15   O     O_R   0.766737 0.317356 0.044457 -0.322861
O16   O     O_R   0.692361 0.174710 0.133306 -0.202883
N5    N     N_R   0.371843 0.081303 0.368839 0.164408
O17   O     O_R   0.323132 0.998124 0.322664 -0.266012
O18   O     O_R   0.363131 0.199550 0.351636 -0.368574
N6    N     N_R   0.628158 0.918698 0.631162 0.164438
O19   O     O_R   0.676863 0.001878 0.677338 -0.266035
O20   O     O_R   0.636886 0.800450 0.648361 -0.368521
N7    N     N_R   0.351629 0.081573 0.634171 0.162588
O21   O     O_R   0.294310 0.998691 0.681609 -0.250000
O22   O     O_R   0.343339 0.199732 0.651891 -0.330881
N8    N     N_R   0.648370 0.918427 0.365830 0.162578
O23   O     O_R   0.705691 0.001310 0.318392 -0.250061
O24   O     O_R   0.656654 0.800269 0.348107 -0.330920

loop_
_geom_bond_atom_site_label_1
_geom_bond_atom_site_label_2
_geom_bond_distance
_ccdc_geom_bond_type
C26   N8    1.457924 S    
C20   C26   1.547273 S    
C23   C25   1.534553 S    
N7    O21   1.300258 A    
O5    C3    1.297376 A    
N6    O20   1.299895 A    
O1    C1    1.289653 A    
C18   H1    1.086157 S    
C9    C11   1.400445 A    
C16   O11   1.383570 S    
C14   C16   1.404166 A    
C25   N7    1.457925 S    
C27   N2    1.481845 S    
C5    C15   1.419825 A    
C29   N1    1.482156 S    
C30   N2    1.482155 S    
C15   O12   1.383601 S    
C29   H7    1.110410 S    
O4    Cu1   1.965960 S    
C21   C26   1.526793 S    
C7    C9    1.392913 A    
Cu1   N1    2.025969 S    
C3    C5    1.454106 S    
C27   C31   1.537618 S    
Cu2   N2    2.025969 S    
C4    C6    1.454122 S    
C28   C30   1.538207 S    
N4    O15   1.301427 A    
N3    O14   1.301372 A    
C20   C22   1.547288 S    
C24   C26   1.534553 S    
C11   C17   1.466764 S    
C21   N5    1.458040 S    
O10   H14   0.991723 S    
C12   C18   1.466736 S    
Cu1   Cu2   2.696191 S    
C17   H2    1.086165 S    
C22   C25   1.526795 S    
O2    C2    1.289652 A    
C9    H4    1.082923 S    
O8    C4    1.294912 A    
N2    C32   1.482865 S    
C30   H8    1.110411 S    
C31   H11   1.110035 S    
C6    C16   1.419806 A    
C32   H12   1.110035 S    
C19   C24   1.553273 S    
N6    O19   1.300279 A    
C20   C23   1.553272 S    
C22   C24   1.534682 S    
N8    O24   1.299997 A    
N5    O18   1.299896 A    
C27   H9    1.110552 S    
C19   H5    1.110358 S    
N1    C31   1.482867 S    
C21   C23   1.534680 S    
O7    Cu2   1.978471 S    
O7    C3    1.294906 A    
O6    C4    1.297378 A    
N7    O22   1.299996 A    
C27   C29   1.538205 S    
O3    Cu2   1.965960 S    
C22   N6    1.458040 S    
C28   N1    1.481844 S    
O4    C2    1.290521 A    
C10   C12   1.400423 A    
C29   C32   1.537335 S    
C11   C13   1.409884 A    
C12   C14   1.409866 A    
O1    Cu1   1.965843 S    
C28   H10   1.110551 S    
C5    C7    1.403589 A    
O6    Cu2   1.977274 S    
C20   H6    1.110358 S    
N8    O23   1.300259 A    
O3    C1    1.290522 A    
O8    Cu1   1.978469 S    
C19   C25   1.547272 S    
C13   N3    1.439577 S    
N5    O17   1.300278 A    
O9    H13   0.991729 S    
C30   C31   1.537333 S    
C19   C21   1.547288 S    
C8    C10   1.392911 A    
C13   C15   1.404164 A    
O11   H15   0.988374 S    
O2    Cu2   1.965843 S    
C14   N4    1.439577 S    
O12   H16   0.988391 S    
C28   C32   1.537619 S    
C8    O10   1.383738 S    
O5    Cu1   1.977274 S    
C6    C8    1.403586 A    
N3    O13   1.301427 A    
C1    C24   1.449158 S    
C17   C18   1.338249 D    
N4    O16   1.301355 A    
C2    C23   1.449157 S    
C7    O9    1.383750 S    
C10   H3    1.082923 S    
