data_mof_unit_66291.cif
_audit_creation_date              2012-10-26T21:01:55-0400
_audit_creation_method            fapswitch 2.2
_symmetry_space_group_name_H-M    P1
_symmetry_Int_Tables_number       1
_space_group_crystal_system       triclinic
_cell_length_a                    9.71553
_cell_length_b                    10.909709
_cell_length_c                    13.884596
_cell_angle_alpha                 90.354925
_cell_angle_beta                  85.050002
_cell_angle_gamma                 91.371581
_cell_volume                      1465.75690152

loop_
_atom_site_label
_atom_site_type_symbol
_atom_type_description
_atom_site_fract_x
_atom_site_fract_y
_atom_site_fract_z
_atom_type_partial_charge
Br1   Br    Br    0.459650 0.932853 0.631807 -0.476358
Br2   Br    Br    0.831205 0.689573 0.641577 -0.417590
C1    C     C_R   0.501841 0.734422 0.500752 0.651621
C2    C     C_R   0.499382 0.265867 0.491550 0.577300
C3    C     C_R   0.522162 0.498908 0.317106 0.593721
C4    C     C_1   0.535331 0.498331 0.213967 0.051140
C5    C     C_2   0.557005 0.497613 0.023521 -0.100079
C6    C     C_2   0.443294 0.502086 0.976452 -0.102676
C7    C     C_1   0.454137 0.501459 0.872833 -0.009380
C8    C     C_1   0.546082 0.497971 0.127143 -0.015290
C9    C     C_2   0.743006 0.112949 0.411998 0.240502
C10   C     C_2   0.619959 0.878197 0.334304 0.220465
C11   C     C_1   0.464745 0.500835 0.786009 0.040093
C12   C     C_2   0.601402 0.064904 0.441875 -0.027268
C13   C     C_2   0.493233 0.134915 0.471475 -0.058541
C14   C     C_2   0.575093 0.932279 0.430796 -0.050782
C15   C     C_2   0.509391 0.866582 0.504733 0.147997
C16   C     C_2   0.072934 0.565212 0.559485 0.022888
C17   C     C_2   0.918702 0.570894 0.555888 0.253518
C18   C     C_R   0.477818 0.500143 0.682884 0.569209
Cu1   Cu    Cu3+1 0.361370 0.499980 0.499980 1.009819
Cu2   Cu    Cu3+1 0.638630 0.500020 0.500020 1.099672
H1    H     H_    0.341579 0.506115 0.015438 0.147246
H2    H     H_    0.896900 0.435267 0.459522 0.207448
H3    H     H_    0.658725 0.493566 0.984543 0.155911
H4    H     H_    0.390531 0.092300 0.480418 0.132756
H5    H     H_    0.119764 0.620571 0.613624 0.181639
H6    H     H_    0.110989 0.453090 0.446606 0.208113
H7    H     H_    0.831307 0.059182 0.426747 0.122767
H8    H     H_    0.690602 0.929727 0.284051 0.131847
N1    N     N_2   0.152970 0.501340 0.501040 -0.368679
N2    N     N_2   0.846830 0.501370 0.501060 -0.326105
O1    O     O_R   0.382960 0.678040 0.499980 -0.482387
O2    O     O_2   0.574949 0.779382 0.307887 -0.507207
O3    O     O_R   0.617100 0.678080 0.500020 -0.445656
O4    O     O_R   0.366380 0.499950 0.637830 -0.499997
O5    O     O_R   0.600520 0.499990 0.637860 -0.457810
O6    O     O_R   0.382900 0.321920 0.499980 -0.507660
O7    O     O_R   0.617040 0.321960 0.500020 -0.451083
O8    O     O_R   0.399480 0.500010 0.362140 -0.499988
O9    O     O_R   0.633620 0.500050 0.362170 -0.464345
O10   O     O_2   0.762009 0.206406 0.364301 -0.496790

loop_
_geom_bond_atom_site_label_1
_geom_bond_atom_site_label_2
_ccdc_geom_bond_type
C4    C8    T    
C5    C8    S    
H2    N2    S    
Cu2   O3    S    
Br1   C15   S    
C5    H3    S    
C2    O7    A    
C1    O3    A    
C2    C13   S    
C6    C7    S    
C5    C6    D    
Cu1   O4    S    
Cu1   Cu2   S    
C18   O5    A    
Cu1   N1    S    
Cu1   O8    S    
Cu2   N2    S    
C17   N2    D    
C2    O6    A    
C1    C15   S    
C3    C4    S    
C9    C12   S    
C12   C14   S    
Cu2   O9    S    
Cu1   O1    S    
C1    O1    A    
C10   O2    D    
C18   O4    A    
C6    H1    S    
C9    H7    S    
C9    O10   D    
C16   C17   S    
C3    O8    A    
C7    C11   T    
C12   C13   D    
Cu1   O6    S    
C13   H4    S    
C3    O9    A    
C16   N1    D    
C11   C18   S    
C10   H8    S    
Br2   C17   S    
Cu2   O5    S    
Cu2   O7    S    
H6    N1    S    
C16   H5    S    
C10   C14   S    
C14   C15   D    
