data_mof_unit_66687.cif
_audit_creation_date              2013-03-05T15:54:33-0500
_audit_creation_method            fapswitch 2.2
_symmetry_space_group_name_H-M    P1
_symmetry_Int_Tables_number       1
_space_group_crystal_system       triclinic
_cell_length_a                    8.455937
_cell_length_b                    15.245775
_cell_length_c                    16.730097
_cell_angle_alpha                 98.032134
_cell_angle_beta                  94.229096
_cell_angle_gamma                 98.289725
_cell_volume                      2103.60226301

loop_
_atom_site_label
_atom_site_type_symbol
_atom_site_description
_atom_site_fract_x
_atom_site_fract_y
_atom_site_fract_z
_atom_type_partial_charge
P1    P     P_3+3 0.987090 0.708160 0.571840 0.550483
O1    O     O_2   0.162600 0.722340 0.548210 -0.367852
O2    O     O_3   0.890740 0.608910 0.545450 -0.288301
O3    O     O_3   0.394140 0.666560 0.400120 -0.285590
O4    O     O_2   0.298460 0.818523 0.456816 -0.302449
O5    O     O_3   0.997789 0.723333 0.678343 -0.632001
O6    O     O_3   0.385920 0.813303 0.312704 -0.489310
C1    C     C_3   0.584156 0.874251 0.232962 -0.839694
H1    H     H_    0.498722 0.920433 0.219646 0.301313
H2    H     H_    0.675663 0.909101 0.282092 0.268454
P2    P     P_3+3 0.349530 0.428340 0.313070 0.557489
P3    P     P_3+3 0.933214 0.611380 0.251508 0.584639
O7    O     O_2   0.182040 0.455730 0.301660 -0.308382
O8    O     O_3   0.971540 0.620730 0.357730 -0.247423
O9    O     O_2   0.021834 0.535244 0.217685 -0.319287
O10   O     O_3   0.310893 0.311434 0.278992 -0.589852
O11   O     O_3   0.043744 0.702258 0.216414 -0.537107
C2    C     C_3   0.958076 0.774473 0.215961 0.724624
H3    H     H_    0.829227 0.751013 0.194583 -0.076976
C3    C     C_3   0.031460 0.833544 0.156093 -0.668566
H4    H     H_    0.157901 0.862720 0.178002 0.222028
H5    H     H_    0.034348 0.790537 0.097003 0.242246
C4    C     C_3   0.695921 0.288484 0.276322 0.007298
H6    H     H_    0.613500 0.322188 0.314118 0.098444
C5    C     C_3   0.771763 0.353974 0.222958 -0.007467
H7    H     H_    0.677841 0.388129 0.198302 0.043776
H8    H     H_    0.864874 0.404241 0.260701 0.177302
Ba1   Ba    Ba6+2 0.163640 0.544330 0.462610 1.810768
C6    C     C_3   0.149940 0.724433 0.718204 0.700258
H9    H     H_    0.216037 0.677781 0.682747 0.066593
C7    C     C_3   0.243354 0.820517 0.732340 -0.737147
H10   H     H_    0.322284 0.829845 0.683414 0.245240
H11   H     H_    0.323222 0.835496 0.789649 0.266449
H12   H     H_    0.159837 0.870521 0.734745 0.277527
C8    C     C_3   0.231319 0.264403 0.334037 0.121171
H13   H     H_    0.130585 0.298230 0.353887 0.172584
H14   H     H_    0.319117 0.263217 0.386435 0.153446
C9    C     C_3   0.155971 0.166962 0.295529 -0.217169
H15   H     H_    0.025731 0.166482 0.280727 0.152917
P4    P     P_3+3 0.823210 0.291830 0.428100 0.498321
O12   O     O_2   0.647690 0.277600 0.451760 -0.382961
O13   O     O_3   0.919560 0.391080 0.454480 -0.329143
O14   O     O_3   0.416160 0.333430 0.599820 -0.413885
O15   O     O_3   0.821013 0.262761 0.322563 -0.622488
P5    P     P_3+3 0.871470 0.390907 0.748651 0.545932
O16   O     O_3   0.378690 0.546410 0.598120 -0.344722
O17   O     O_3   0.838760 0.379260 0.642200 -0.312570
O18   O     O_2   0.748956 0.448442 0.781421 -0.322773
O19   O     O_3   0.796204 0.287389 0.776744 -0.533820
Ba2   Ba    Ba6+2 0.646540 0.455660 0.537320 1.738992
P6    P     P_3+3 0.431970 0.784485 0.408792 0.637763
C10   C     C_3   0.495238 0.788661 0.257277 0.284356
H16   H     H_    0.584565 0.750123 0.281671 0.067205
H17   H     H_    0.645841 0.857700 0.178083 0.236598
O20   O     O_3   0.431610 0.453580 0.401810 -0.341044
C11   C     C_3   0.664414 0.720998 0.759581 0.286855
H18   H     H_    0.699776 0.674855 0.800513 0.187272
H19   H     H_    0.739293 0.717760 0.708775 0.150366
C12   C     C_3   0.694128 0.815922 0.808625 -0.714886
H20   H     H_    0.593197 0.823282 0.846768 0.222855
P7    P     P_3+3 0.460833 0.578283 0.700892 0.537451
O21   O     O_2   0.628260 0.544210 0.698310 -0.336389
O22   O     O_3   0.503577 0.695828 0.726914 -0.555888
C13   C     C_3   0.917802 0.234923 0.788061 0.221568
H21   H     H_    0.037933 0.269904 0.780732 -0.061119
C14   C     C_3   0.923134 0.213454 0.875845 -0.128141
H22   H     H_    0.047888 0.207763 0.897353 0.149534
H23   H     H_    0.889314 0.270005 0.917052 0.159119
P8    P     P_3+3 0.375937 0.218190 0.601279 0.590703
C15   C     C_3   0.398960 0.280500 0.754020 0.322775
H24   H     H_    0.272570 0.289597 0.742821 -0.008566
O23   O     O_2   0.503408 0.179750 0.550959 -0.284902
O24   O     O_3   0.431419 0.205309 0.702084 -0.409164
H25   H     H_    0.476089 0.342192 0.743240 0.106438
H26   H     H_    0.401901 0.331950 0.881425 0.046790
C16   C     C_3   0.436598 0.273160 0.843984 -0.060582
H27   H     H_    0.567424 0.276716 0.857850 0.196965
C17   C     C_R   0.162491 0.168389 0.555718 0.114534
C18   C     C_R   0.095838 0.075382 0.546290 -0.089608
C19   C     C_R   0.951052 0.889671 0.530958 -0.027469
C20   C     C_R   0.106315 0.919803 0.565574 -0.124043
C21   C     C_R   0.178557 0.008771 0.574172 0.388676
C22   C     C_R   0.877199 0.798572 0.530929 0.146023
H28   H     H_    0.175252 0.874929 0.589814 0.165008
C23   C     C_R   0.709547 0.781111 0.510132 0.125761
C24   C     C_R   0.917963 0.202634 0.480411 0.136060
C25   C     C_R   0.850300 0.109492 0.472398 0.036637
C26   C     C_R   0.936696 0.046776 0.507124 0.053860
C27   C     C_R   0.698272 0.076432 0.430899 -0.069173
C28   C     C_R   0.626889 0.987231 0.427653 -0.057439
C29   C     C_R   0.706707 0.925358 0.462863 -0.042559
C30   C     C_R   0.864639 0.954028 0.500518 0.080436
C31   C     C_R   0.631813 0.836222 0.464417 0.120788
C32   C     C_R   0.066936 0.228614 0.526332 -0.433909
H29   H     H_    0.506346 0.967724 0.398268 0.214297
H30   H     H_    0.630122 0.119539 0.401781 0.178959
C33   C     C_R   0.610814 0.542207 0.265697 0.067872
C34   C     C_R   0.464132 0.486581 0.238296 0.113340
C35   C     C_R   0.420049 0.465313 0.153104 -0.309541
C36   C     C_R   0.518002 0.505361 0.098127 0.121624
C37   C     C_R   0.671095 0.554003 0.127663 -0.265051
C38   C     C_R   0.718735 0.571304 0.211407 -0.079732
C39   C     C_R   0.386533 0.531977 0.856886 0.253852
C40   C     C_R   0.335739 0.526556 0.773700 0.014604
C41   C     C_R   0.282430 0.490622 0.908653 0.089389
N1    N     N_2   0.471035 0.494588 0.012682 -0.021037
N2    N     N_2   0.325365 0.496004 0.993900 -0.051527
C42   C     C_R   0.177088 0.490770 0.745876 -0.307997
C43   C     C_R   0.074740 0.447002 0.794386 0.290301
C44   C     C_R   0.127382 0.447719 0.876151 -0.367812
H31   H     H_    0.047170 0.416282 0.914972 0.182839
H32   H     H_    0.130653 0.501098 0.686598 0.175844
C45   C     C_2   0.402084 0.728968 0.184427 1.026622
O25   O     O_2   0.393011 0.753356 0.117762 -0.586590
O26   O     O_R   0.324274 0.644727 0.193894 -0.756923
H33   H     H_    0.261814 0.611641 0.141689 0.347618
N3    N     N_R   0.841832 0.308759 0.154532 0.293757
O27   O     O_R   0.795597 0.318405 0.080763 -0.314636
O28   O     O_R   0.944466 0.255189 0.166404 -0.331399
N4    N     N_R   0.127392 0.693608 0.796425 0.202108
O29   O     O_R   0.992768 0.645644 0.807337 -0.397847
O30   O     O_R   0.245667 0.706161 0.853102 -0.380802
N5    N     N_R   0.171755 0.104942 0.353520 0.229374
O31   O     O_R   0.312123 0.099733 0.388320 -0.409675
O32   O     O_R   0.054544 0.039985 0.353855 -0.335914
C46   C     C_2   0.216204 0.130412 0.216851 1.239027
O33   O     O_2   0.188899 0.163394 0.155792 -0.529989
O34   O     O_R   0.292304 0.054460 0.212041 -0.745472
H34   H     H_    0.319918 0.033974 0.155170 0.346075
C47   C     C_2   0.846240 0.829553 0.865714 1.162218
O35   O     O_2   0.854289 0.783438 0.919657 -0.499199
O36   O     O_R   0.976932 0.894348 0.857836 -0.720216
H35   H     H_    0.070636 0.895985 0.899769 0.362198
C48   C     C_2   0.701572 0.886119 0.753505 1.179623
O37   O     O_2   0.799676 0.888884 0.703353 -0.649047
O38   O     O_R   0.599053 0.949859 0.761826 -0.697459
H36   H     H_    0.621945 0.996046 0.724619 0.378949
C49   C     C_2   0.939209 0.907937 0.141952 1.080721
O39   O     O_2   0.931846 0.968215 0.197198 -0.597644
O40   O     O_R   0.863436 0.908594 0.065044 -0.714981
H37   H     H_    0.805485 0.962111 0.062878 0.365922
C50   C     C_2   0.885663 0.152157 0.724771 1.025665
O41   O     O_2   0.973251 0.095046 0.724503 -0.600795
O42   O     O_R   0.755278 0.141110 0.666085 -0.702511
H38   H     H_    0.744073 0.082244 0.628250 0.329866
N6    N     N_R   0.817012 0.131148 0.883466 0.283998
O43   O     O_R   0.875108 0.066666 0.912989 -0.291282
O44   O     O_R   0.663042 0.124033 0.865974 -0.283938
N7    N     N_R   0.972813 0.824906 0.297636 0.244211
O45   O     O_R   0.862754 0.806251 0.345216 -0.487707
O46   O     O_R   0.109239 0.871764 0.329028 -0.261250
N8    N     N_R   0.354158 0.191783 0.868807 0.288193
O47   O     O_R   0.380757 0.177847 0.943194 -0.251381
O48   O     O_R   0.254718 0.132943 0.818618 -0.272381
N9    N     N_R   0.334825 0.027598 0.616088 0.246170
O49   O     O_R   0.453188 0.004440 0.577026 -0.414854
O50   O     O_R   0.345211 0.028532 0.694012 -0.289345
N10   N     N_R   0.610271 0.719781 0.549181 0.217753
O51   O     O_R   0.601431 0.634364 0.527335 -0.264878
O52   O     O_R   0.494824 0.748861 0.586907 -0.404797
C51   C     C_2   0.126539 0.322384 0.544217 1.090180
O53   O     O_2   0.122966 0.361290 0.612061 -0.700198
O54   O     O_R   0.210737 0.362875 0.488008 -0.811001
H39   H     H_    0.284465 0.418234 0.513718 0.394136
N11   N     N_R   0.529911 0.590628 0.891150 0.229311
O55   O     O_R   0.519399 0.666314 0.935585 -0.286877
O56   O     O_R   0.666048 0.560765 0.893230 -0.364154
C52   C     C_2   0.784286 0.583300 0.070341 1.183431
O57   O     O_2   0.787692 0.657552 0.050418 -0.570505
O58   O     O_R   0.887684 0.526100 0.039562 -0.738812
H40   H     H_    0.961598 0.554342 0.001970 0.347608
C53   C     C_2   0.282671 0.395458 0.119729 1.167739
O59   O     O_2   0.148203 0.403447 0.137870 -0.540597
O60   O     O_R   0.306022 0.323178 0.063047 -0.720062
H41   H     H_    0.201969 0.281866 0.041930 0.364586
N12   N     N_R   0.661539 0.559999 0.349550 0.253050
O61   O     O_R   0.732366 0.501428 0.381814 -0.352676
O62   O     O_R   0.689234 0.642980 0.383546 -0.407950
C54   C     C_2   0.601511 0.207146 0.221817 1.076729
O63   O     O_2   0.506218 0.219054 0.167554 -0.540588
O64   O     O_R   0.627580 0.119300 0.226887 -0.733733
H42   H     H_    0.716400 0.113910 0.268844 0.324136

loop_
_geom_bond_atom_site_label_1
_geom_bond_atom_site_label_2
_geom_bond_distance
_ccdc_geom_bond_type
C14   H23   1.111052 S    
C41   C44   1.410886 A    
C12   C47   1.515301 S    
N9    O49   1.298976 A    
C37   C38   1.406286 A    
N9    O50   1.298106 A    
O54   H39   0.996642 S    
C25   C26   1.442055 A    
C37   C52   1.472105 S    
O34   H34   1.013950 S    
C51   O53   1.209601 D    
N7    O45   1.294932 A    
N5    O31   1.300883 A    
C10   C45   1.508604 S    
C10   H16   1.109869 S    
C41   N2    1.433494 S    
Ba1   O16   2.793336 S    
N11   O55   1.300619 A    
P2    C34   1.879773 S    
O2    Ba1   2.993462 S    
C8    H14   1.110073 S    
O6    C10   1.408804 S    
C2    H3    1.112364 S    
N3    O28   1.297682 A    
O10   C8    1.397060 S    
C9    H15   1.109589 S    
P5    C43   1.862944 S    
C52   O58   1.396742 S    
N5    O32   1.297084 A    
N1    N2    1.252575 D    
C16   N8    1.461139 S    
C3    C49   1.501236 S    
O26   H33   1.014019 S    
C42   C43   1.393314 A    
P1    O1    1.556754 D    
P4    C24   1.949468 S    
P7    O22   1.761712 S    
O60   H41   1.013825 S    
C24   C32   1.400824 A    
O3    Ba1   2.856956 S    
C23   N10   1.425137 S    
C44   H31   1.081577 S    
C23   C31   1.409831 A    
O2    Ba2   2.867035 S    
C26   C30   1.442523 A    
C53   O60   1.396757 S    
C1    H1    1.110868 S    
P3    O11   1.752931 S    
C15   H25   1.109231 S    
P1    Ba1   3.465382 S    
C4    H6    1.107738 S    
C7    H11   1.107405 S    
O7    Ba1   2.864511 S    
P8    O24   1.762185 S    
C15   H24   1.103190 S    
C2    N7    1.458588 S    
C1    C10   1.531034 S    
C4    C54   1.515826 S    
C33   C38   1.404516 A    
P4    O13   1.597817 S    
C14   H22   1.108590 S    
C12   H20   1.111818 S    
O14   P8    1.744692 S    
C33   N12   1.413131 S    
N10   O52   1.298229 A    
N7    O46   1.298137 A    
P8    C17   1.911884 S    
Ba1   Ba2   4.623295 S    
C19   C22   1.438261 A    
C18   C26   1.432243 A    
C51   O54   1.380780 S    
Ba1   O20   2.988986 S    
N4    O30   1.300077 A    
C33   C34   1.404269 A    
O17   Ba2   2.788167 S    
N6    O44   1.298739 A    
P5    O17   1.761989 S    
C6    N4    1.467172 S    
C11   O22   1.406024 S    
C50   O41   1.221490 D    
O3    P6    1.763548 S    
P1    O5    1.758275 S    
C28   H29   1.080252 S    
C8    C9    1.557868 S    
O40   H37   1.013947 S    
C45   O25   1.224557 D    
C1    H17   1.105687 S    
C29   C30   1.414933 A    
C17   C18   1.430765 A    
O42   H38   1.011400 S    
C48   O38   1.392176 S    
C35   C53   1.475413 S    
O16   P7    1.779868 S    
C5    H7    1.096834 S    
O64   H42   1.009817 S    
C20   C21   1.388254 A    
C4    O15   1.398169 S    
C42   H32   1.080066 S    
C45   O26   1.391417 S    
P1    O2    1.597834 S    
C8    H13   1.105594 S    
C13   C14   1.547549 S    
C19   C30   1.430899 A    
P8    O23   1.546649 D    
C47   O36   1.399133 S    
H26   C16   1.108082 S    
C9    C46   1.509407 S    
P3    C38   1.870584 S    
C6    H9    1.102616 S    
C29   C31   1.418677 A    
P2    O10   1.768923 S    
C7    H10   1.105186 S    
P3    O9    1.535870 D    
P5    O19   1.754552 S    
P7    C40   1.855392 S    
C15   O24   1.411381 S    
O11   C2    1.403014 S    
C7    H12   1.110123 S    
C39   C41   1.423903 A    
C16   H27   1.105389 S    
C32   C51   1.427497 S    
C49   O40   1.396452 S    
O13   Ba2   2.994328 S    
C21   N9    1.420549 S    
C1    H2    1.105555 S    
C52   O57   1.221007 D    
C22   C23   1.412170 A    
P6    C31   1.876809 S    
C39   N11   1.428179 S    
C25   C27   1.404425 A    
C15   C16   1.538132 S    
N10   O51   1.292257 A    
Ba2   O21   2.864640 S    
C50   O42   1.395891 S    
P1    C22   1.941938 S    
C11   H18   1.103786 S    
O12   Ba2   2.888289 S    
C40   C42   1.392821 A    
C20   H28   1.062996 S    
P2    O20   1.563739 S    
C53   O59   1.216691 D    
N6    O43   1.300349 A    
N8    O48   1.297947 A    
P5    O18   1.534484 D    
P4    O12   1.557034 D    
C46   O34   1.399243 S    
C3    H4    1.111234 S    
C24   C25   1.436321 A    
C9    N5    1.458350 S    
C3    H5    1.111222 S    
C19   C20   1.381929 A    
C5    N3    1.460835 S    
C18   C21   1.423803 A    
C11   C12   1.537410 S    
O14   Ba2   2.856416 S    
C48   O37   1.223273 D    
C5    H8    1.106063 S    
O16   Ba2   2.988124 S    
C12   C48   1.504849 S    
C36   N1    1.435279 S    
Ba2   O20   2.792738 S    
C35   C36   1.424186 A    
C13   H21   1.100800 S    
C27   H30   1.076383 S    
N12   O61   1.299479 A    
C47   O35   1.222881 D    
P3    O8    1.764767 S    
O6    P6    1.755925 S    
C6    C7    1.538741 S    
N3    O27   1.301443 A    
P2    O7    1.539356 D    
C28   C29   1.404481 A    
C13   C50   1.507495 S    
P2    Ba1   3.464414 S    
C17   C32   1.420959 A    
C46   O33   1.221433 D    
P4    Ba2   3.465886 S    
Ba1   O13   2.866425 S    
C36   C37   1.412936 A    
C11   H19   1.096577 S    
O36   H35   1.013910 S    
C2    C3    1.543347 S    
C4    C5    1.534320 S    
P7    O21   1.578262 D    
C14   N6    1.460463 S    
C49   O39   1.220783 D    
C54   O63   1.219321 D    
P4    O15   1.757376 S    
O5    C6    1.401575 S    
N8    O47   1.300358 A    
N11   O56   1.297431 A    
C34   C35   1.425877 A    
O58   H40   1.013711 S    
C39   C40   1.413385 A    
O19   C13   1.408432 S    
N4    O29   1.300713 A    
O4    P6    1.541285 D    
O1    Ba1   2.887706 S    
O8    Ba1   2.787560 S    
C27   C28   1.398042 A    
C43   C44   1.405030 A    
O38   H36   1.010825 S    
N12   O62   1.293318 A    
C54   O64   1.401281 S    
