data_mof_unit_44358.cif
_audit_creation_date              2012-12-10T18:16:22-0500
_audit_creation_method            fapswitch 2.2
_symmetry_space_group_name_H-M    P1
_symmetry_Int_Tables_number       1
_space_group_crystal_system       triclinic
_cell_length_a                    12.583684
_cell_length_b                    13.117808
_cell_length_c                    27.736963
_cell_angle_alpha                 90.484275
_cell_angle_beta                  102.942271
_cell_angle_gamma                 81.934301
_cell_volume                      4416.84432767

loop_
_atom_site_label
_atom_site_type_symbol
_atom_type_description
_atom_site_fract_x
_atom_site_fract_y
_atom_site_fract_z
_atom_type_partial_charge
C1    C     C_R   0.438318 0.691430 0.495469 0.845784
C2    C     C_R   0.407952 0.490761 0.712966 -0.084089
C3    C     C_R   0.506805 0.494603 0.747619 0.284017
C4    C     C_R   0.502397 0.485304 0.898454 -0.096083
C5    C     C_R   0.529439 0.572720 0.877087 0.005550
C6    C     C_R   0.555726 0.657053 0.906009 -0.119286
C7    C     C_R   0.476046 0.399640 0.868754 -0.178468
C8    C     C_R   0.502996 0.500185 0.646742 -0.052826
C9    C     C_R   0.501179 0.490445 0.353799 -0.049620
C10   C     C_R   0.518386 0.572611 0.028647 0.043991
C11   C     C_R   0.486342 0.391217 0.023227 0.074323
C12   C     C_R   0.500891 0.500490 0.593839 0.886157
C13   C     C_R   0.502531 0.480981 0.051199 0.075860
C14   C     C_R   0.526685 0.662018 0.057370 -0.210936
C15   C     C_R   0.525070 0.659811 0.107150 -0.130689
C16   C     C_R   0.514413 0.568764 0.130083 -0.020817
C17   C     C_R   0.502672 0.479146 0.102266 -0.055984
C18   C     C_R   0.490785 0.387789 0.125582 -0.024044
C19   C     C_R   0.491020 0.387786 0.176047 0.483016
C20   C     C_R   0.514408 0.565317 0.180428 0.514236
C21   C     C_R   0.604812 0.480471 0.289274 0.053840
C22   C     C_R   0.600927 0.489552 0.339022 -0.160837
C23   C     C_R   0.561965 0.308538 0.507961 0.920524
C24   C     C_R   0.404476 0.481213 0.318444 -0.223373
C25   C     C_R   0.407114 0.473320 0.268776 -0.101531
C26   C     C_R   0.506255 0.473720 0.253952 0.263705
C27   C     C_R   0.524659 0.572185 0.978277 0.061766
C28   C     C_R   0.501809 0.484264 0.949533 0.081716
C29   C     C_R   0.478627 0.395478 0.971474 -0.034086
C30   C     C_R   0.554022 0.656777 0.955655 -0.209995
C31   C     C_R   0.441100 0.315656 0.890144 0.476123
C32   C     C_R   0.479472 0.299603 0.048258 -0.204633
C33   C     C_R   0.480820 0.298342 0.098384 -0.135196
C34   C     C_R   0.499670 0.498226 0.406239 0.881895
C35   C     C_R   0.444674 0.314646 0.940738 -0.274835
C36   C     C_R   0.697122 0.062741 0.579420 -0.248538
C37   C     C_R   0.599496 0.199669 0.521263 -0.203995
C38   C     C_R   0.301795 0.837978 0.456765 -0.188205
C39   C     C_R   0.275517 0.942530 0.444989 -0.114238
C40   C     C_R   0.348457 0.010023 0.465684 -0.170906
C41   C     C_R   0.447002 0.973992 0.500807 0.102917
C42   C     C_R   0.464145 0.870887 0.517959 0.091355
C43   C     C_R   0.529249 0.036406 0.519587 0.097094
C44   C     C_R   0.617288 0.000367 0.559872 0.103652
C45   C     C_R   0.529592 0.574369 0.826885 0.513428
C46   C     C_R   0.623850 0.902889 0.580743 -0.200988
C47   C     C_R   0.548031 0.838857 0.560127 -0.195565
C48   C     C_R   0.527325 0.133007 0.498808 -0.286895
C49   C     C_R   0.688322 0.163534 0.561441 0.368760
C50   C     C_R   0.398049 0.801424 0.491938 -0.112111
C51   C     C_R   0.089003 0.346575 0.430799 -0.203829
C52   C     C_R   0.800763 0.628416 0.559192 0.061208
C53   C     C_R   0.905474 0.656778 0.570900 -0.231741
C54   C     C_R   0.986047 0.608604 0.547921 -0.156823
C55   C     C_R   0.962072 0.530893 0.513029 0.016523
C56   C     C_R   0.485643 0.403049 0.818971 0.563205
C57   C     C_R   0.854059 0.505323 0.502400 0.222811
C58   C     C_R   0.040687 0.477366 0.488763 -0.061473
C59   C     C_R   0.010094 0.399017 0.454373 0.044300
C60   C     C_R   0.902034 0.374627 0.444823 0.334373
C61   C     C_R   0.826621 0.428190 0.468796 -0.268010
C62   C     C_R   0.149839 0.498002 0.497692 -0.002829
C63   C     C_R   0.195034 0.370838 0.441447 -0.019416
C64   C     C_R   0.603707 0.502173 0.731948 -0.078315
C65   C     C_R   0.601816 0.505436 0.681665 -0.161961
C66   C     C_R   0.405962 0.493249 0.662767 -0.200666
H1    H     H_    0.328523 0.489734 0.636617 0.171320
H2    H     H_    0.680349 0.504951 0.758760 0.158457
H3    H     H_    0.475997 0.226433 0.030457 0.156044
H4    H     H_    0.326673 0.481363 0.329034 0.163935
H5    H     H_    0.474586 0.226462 0.115800 0.195210
H6    H     H_    0.331543 0.468905 0.241483 0.145749
H7    H     H_    0.415560 0.250814 0.955210 0.206726
H8    H     H_    0.688755 0.875367 0.612541 0.152789
H9    H     H_    0.764078 0.033637 0.610092 0.191168
H10   H     H_    0.332791 0.485505 0.725074 0.159995
H11   H     H_    0.466559 0.160478 0.465860 0.164149
H12   H     H_    0.249144 0.785345 0.437082 0.161387
H13   H     H_    0.324362 0.090007 0.454466 0.137440
H14   H     H_    0.200745 0.970808 0.418077 0.168165
H15   H     H_    0.555114 0.764081 0.577678 0.150425
H16   H     H_    0.256460 0.330684 0.423651 0.135218
H17   H     H_    0.070780 0.286973 0.404408 0.215246
H18   H     H_    0.180528 0.555283 0.522975 0.120488
H19   H     H_    0.737894 0.665143 0.577028 0.120163
H20   H     H_    0.578501 0.724053 0.890412 0.200779
H21   H     H_    0.065760 0.633670 0.558460 0.137545
H22   H     H_    0.924197 0.715854 0.597713 0.157725
H23   H     H_    0.746960 0.405682 0.461853 0.237564
H24   H     H_    0.676547 0.494386 0.366261 0.172305
H25   H     H_    0.532176 0.730197 0.127609 0.193736
H26   H     H_    0.531978 0.736040 0.042308 0.149622
H27   H     H_    0.578858 0.723521 0.975517 0.150123
H28   H     H_    0.677691 0.510925 0.670229 0.191103
N1    N     N_R   0.508233 0.490388 0.799194 -0.363935
N2    N     N_R   0.504130 0.475418 0.202307 -0.358545
N3    N     N_R   0.222180 0.444690 0.474320 -0.102350
N4    N     N_R   0.776980 0.554780 0.525420 -0.106231
O1    O     O_R   0.366730 0.627160 0.487740 -0.620227
O2    O     O_2   0.524313 0.651013 0.207421 -0.560964
O3    O     O_2   0.476153 0.319800 0.790471 -0.442496
O4    O     O_2   0.479653 0.300870 0.198938 -0.549720
O5    O     O_R   0.544830 0.662520 0.504140 -0.620083
O6    O     O_R   0.410970 0.482310 0.563040 -0.623994
O7    O     O_R   0.589070 0.517670 0.579450 -0.597396
O8    O     O_R   0.455170 0.337480 0.495860 -0.614677
O9    O     O_R   0.633270 0.372840 0.512260 -0.565316
O10   O     O_R   0.410930 0.482330 0.420550 -0.623667
O11   O     O_R   0.589030 0.517690 0.436960 -0.646726
O12   O     O_2   0.550408 0.659465 0.805642 -0.546374
Zn1   Zn    Zn3+2 0.381080 0.476390 0.489050 0.953864
Zn2   Zn    Zn3+2 0.618920 0.523610 0.510950 0.998695
S1    S     S_3+6 0.384308 0.212736 0.856014 0.075663
O13   O     O_2   0.298025 0.255216 0.811393 -0.234761
O14   O     O_2   0.474425 0.142746 0.839803 -0.227143
O15   O     O_3   0.325445 0.143562 0.890893 -0.573771
H29   H     H_    0.298637 0.087630 0.869338 0.395272
S2    S     S_3+6 0.787040 0.240475 0.591938 0.054657
O16   O     O_2   0.730029 0.332763 0.612962 -0.262112
O17   O     O_2   0.868970 0.180832 0.633498 -0.267856
O18   O     O_3   0.855120 0.279878 0.551588 -0.529923
H30   H     H_    0.880800 0.216393 0.535455 0.353879
S3    S     S_3+6 0.857725 0.275544 0.404355 0.000821
O19   O     O_2   0.870403 0.299918 0.353298 -0.282889
O20   O     O_2   0.927778 0.174680 0.422182 -0.312247
O21   O     O_3   0.724818 0.264416 0.401505 -0.546779
H31   H     H_    0.725045 0.227079 0.432441 0.351803
C67   C     C_R   0.711930 0.479156 0.275095 0.133791
C68   C     C_R   0.778116 0.555968 0.291769 -0.107243
C69   C     C_R   0.880009 0.553935 0.279263 -0.120680
C70   C     C_R   0.916843 0.475255 0.250150 -0.100549
C71   C     C_R   0.852019 0.398241 0.233652 -0.104539
C72   C     C_R   0.750231 0.399788 0.246197 -0.079643
H32   H     H_    0.750569 0.617709 0.314214 0.136800
H33   H     H_    0.930433 0.613395 0.292156 0.137854
H34   H     H_    0.995800 0.473736 0.240545 0.131855
H35   H     H_    0.881037 0.336826 0.211452 0.142586
H36   H     H_    0.702595 0.337987 0.234208 0.162421

loop_
_geom_bond_atom_site_label_1
_geom_bond_atom_site_label_2
_ccdc_geom_bond_type
C10   C27   A    
C58   C62   A    
C56   N1    A    
C21   C26   A    
C8    C66   A    
O21   H31   S    
O9    Zn2   S    
C69   H33   S    
C67   C68   A    
C1    O1    A    
C68   C69   A    
C24   H4    S    
S3    O19   D    
C53   C54   A    
C5    C6    A    
C64   H2    S    
C28   C29   A    
C7    C31   A    
C56   O3    S    
C12   O6    A    
C30   H27   S    
C54   H21   S    
N3    Zn1   S    
C19   O4    S    
C9    C22   A    
S3    O20   D    
C15   C16   A    
O15   H29   S    
C18   C19   A    
C41   C42   A    
S2    O16   D    
C46   C47   A    
C44   C46   A    
C71   C72   A    
C43   C48   A    
C1    O5    A    
C16   C20   A    
S1    O15   S    
C66   H1    S    
C20   N2    A    
C23   O9    A    
C59   C60   A    
C21   C22   A    
C27   C30   A    
C41   C43   A    
C7    C56   A    
C4    C7    A    
C4    C28   A    
C61   H23   S    
O8    Zn1   S    
C26   N2    S    
C38   C39   A    
N4    Zn2   S    
C63   H16   S    
C39   H14   S    
C51   C63   A    
C24   C25   A    
C70   H34   S    
C10   C14   A    
O11   Zn2   S    
C39   C40   A    
C45   O12   S    
C16   C17   A    
S3    O21   S    
C38   H12   S    
C58   C59   A    
C23   C37   S    
C23   O8    A    
C5    C45   A    
O5    Zn2   S    
C21   C67   S    
S2    O18   S    
C48   H11   S    
C60   S3    S    
C43   C44   A    
C36   C49   A    
C36   H9    S    
C62   N3    A    
C37   C49   A    
C8    C65   A    
C49   S2    S    
C20   O2    S    
C8    C12   S    
O1    Zn1   S    
C17   C18   A    
C22   H24   S    
C40   H13   S    
C25   H6    S    
C37   C48   A    
C14   H26   S    
O18   H30   S    
C42   C50   A    
C65   H28   S    
C6    C30   A    
O7    Zn2   S    
C52   H19   S    
C11   C32   A    
C55   C57   A    
C9    C34   S    
C31   C35   A    
C36   C44   A    
C51   C59   A    
C70   C71   A    
C45   N1    A    
C51   H17   S    
C46   H8    S    
C2    H10   S    
C52   C53   A    
S1    O13   D    
C1    C50   S    
C62   H18   S    
C54   C55   A    
C35   H7    S    
C4    C5    A    
C2    C66   A    
C10   C13   A    
O6    Zn1   S    
C3    N1    S    
C9    C24   A    
C57   C61   A    
C32   H3    S    
C38   C50   A    
C29   C35   A    
C6    H20   S    
O10   Zn1   S    
C13   C17   A    
C34   O10   A    
C32   C33   A    
C69   C70   A    
C25   C26   A    
C63   N3    A    
C67   C72   A    
C64   C65   A    
C11   C13   A    
C12   O7    A    
C57   N4    A    
C52   N4    A    
C2    C3    A    
C53   H22   S    
C42   C47   A    
C47   H15   S    
C3    C64   A    
C18   C33   A    
S2    O17   D    
C33   H5    S    
C15   H25   S    
C68   H32   S    
C72   H36   S    
C11   C29   A    
C55   C58   A    
C27   C28   A    
C34   O11   A    
C14   C15   A    
C60   C61   A    
C40   C41   A    
C71   H35   S    
C31   S1    S    
C19   N2    A    
S1    O14   D    
