data_mof_unit_64540.cif
_audit_creation_date              2012-10-26T17:30:59-0400
_audit_creation_method            fapswitch 2.2
_symmetry_space_group_name_H-M    P1
_symmetry_Int_Tables_number       1
_space_group_crystal_system       triclinic
_cell_length_a                    27.831403
_cell_length_b                    27.891038
_cell_length_c                    27.968382
_cell_angle_alpha                 109.418651
_cell_angle_beta                  109.676805
_cell_angle_gamma                 109.188782
_cell_volume                      16739.0597751

loop_
_atom_site_label
_atom_site_type_symbol
_atom_type_description
_atom_site_fract_x
_atom_site_fract_y
_atom_site_fract_z
_atom_type_partial_charge
C1    C     C_R   0.920511 0.920494 0.500046 0.554454
C2    C     C_R   0.705868 0.705042 0.498246 0.029489
C3    C     C_3   0.565676 0.786446 0.694782 -0.405489
C4    C     C_3   0.435549 0.626233 0.716854 -0.273854
C5    C     C_3   0.403153 0.612592 0.749346 -0.456599
C6    C     C_3   0.865354 0.068989 0.270043 -0.272202
C7    C     C_3   0.863101 0.083207 0.221430 -0.441338
C8    C     C_3   0.773508 0.117857 0.284995 -0.401708
C9    C     C_3   0.756399 0.050701 0.362507 -0.268446
C10   C     C_3   0.707541 0.064598 0.361470 -0.444700
C11   C     C_3   0.855672 0.743268 0.505546 -0.266621
C12   C     C_3   0.848532 0.710229 0.445578 -0.434225
C13   C     C_R   0.701956 0.755340 0.501815 0.032641
C14   C     C_3   0.752422 0.640599 0.485754 -0.265608
C15   C     C_3   0.706724 0.590737 0.423000 -0.438300
C16   C     C_3   0.650055 0.760946 0.504655 -0.267281
C17   C     C_3   0.661080 0.785116 0.567270 -0.435782
C18   C     C_R   0.920145 0.000027 0.420134 0.555251
C19   C     C_R   0.746406 0.799983 0.503018 0.012954
C20   C     C_R   0.794895 0.794346 0.502030 0.030079
C21   C     C_R   0.799831 0.744819 0.500370 0.028456
C22   C     C_1   0.661236 0.660425 0.499017 -0.067336
C23   C     C_1   0.839357 0.839004 0.501130 -0.065292
C24   C     C_1   0.876363 0.876113 0.500468 -0.040495
C25   C     C_1   0.624029 0.623475 0.499604 -0.042841
C26   C     C_3   0.792740 0.000900 0.293026 0.023126
C27   C     C_R   0.248968 0.943773 0.742258 0.037351
C28   C     C_R   0.293652 0.997789 0.794161 0.030422
C29   C     C_R   0.294050 0.050725 0.801845 0.015108
C30   C     C_R   0.079554 0.079503 0.500023 0.554291
C31   C     C_R   0.249509 0.048991 0.757171 -0.107878
C32   C     C_R   0.205848 0.996557 0.705487 0.012044
C33   C     C_R   0.205276 0.943382 0.696833 0.044395
C34   C     C_1   0.339664 0.999078 0.839953 -0.075486
C35   C     C_1   0.161585 0.998555 0.661559 -0.069156
C36   C     C_1   0.124444 0.999576 0.624550 -0.035086
C37   C     C_3   0.762229 0.055738 0.268086 0.038832
C38   C     C_1   0.377701 0.999791 0.877805 -0.041095
C39   C     C_R   0.250211 0.240710 0.446842 0.029065
C40   C     C_R   0.292752 0.294257 0.499678 0.025128
C41   C     C_R   0.292022 0.304553 0.552504 0.029070
C42   C     C_R   0.079967 0.999995 0.579942 0.554712
C43   C     C_R   0.249346 0.259684 0.552971 0.028584
C44   C     C_R   0.206901 0.206060 0.500180 0.024682
C45   C     C_R   0.207478 0.195862 0.447291 0.028548
C46   C     C_1   0.338122 0.339045 0.499816 -0.067758
C47   C     C_1   0.161721 0.161156 0.500146 -0.068593
C48   C     C_3   0.710322 0.000481 0.210384 0.036081
C49   C     C_1   0.124176 0.123903 0.500109 -0.042294
C50   C     C_1   0.375801 0.376226 0.499935 -0.042249
C51   C     C_R   0.502223 0.079605 0.081694 0.553546
C52   C     C_R   0.582527 0.000116 0.082439 0.555407
C53   C     C_R   0.502938 0.920538 0.923337 0.555699
C54   C     C_3   0.699085 0.968092 0.244080 0.048784
C55   C     C_R   0.422637 0.000104 0.922681 0.554709
C56   C     C_R   0.500422 0.420590 0.420862 0.553369
C57   C     C_R   0.579547 0.579420 0.499966 0.553613
C58   C     C_R   0.499626 0.579508 0.579211 0.553992
C59   C     C_3   0.803959 0.033051 0.259333 0.045724
C60   C     C_R   0.420437 0.420516 0.499955 0.553426
C61   C     C_R   0.547346 0.309280 0.282123 0.029233
C62   C     C_R   0.501152 0.293792 0.294776 0.026157
C63   C     C_R   0.455230 0.235033 0.264469 0.029287
C64   C     C_R   0.456591 0.190700 0.222117 0.027863
C65   C     C_R   0.501626 0.206480 0.207974 0.024485
C66   C     C_3   0.740999 0.945322 0.235304 -0.119490
C67   C     C_R   0.546459 0.265549 0.236917 0.027954
C68   C     C_1   0.500884 0.338803 0.339494 -0.067121
C69   C     C_1   0.501834 0.161452 0.163162 -0.069437
C70   C     C_3   0.751971 0.977755 0.201127 -0.113997
C71   C     C_1   0.502005 0.124064 0.125952 -0.043190
C72   C     C_1   0.500662 0.376169 0.376644 -0.042136
C73   C     C_R   0.531698 0.766250 0.722950 0.010543
C74   C     C_R   0.500245 0.706604 0.706638 0.053619
C75   C     C_R   0.469165 0.690630 0.734965 0.022554
C76   C     C_R   0.470359 0.735046 0.779273 -0.090967
C77   C     C_R   0.501486 0.793753 0.795205 0.002725
C78   C     C_1   0.875625 0.000149 0.375588 -0.036312
C79   C     C_R   0.531868 0.809110 0.767145 -0.099095
C80   C     C_1   0.499867 0.661668 0.661224 -0.070859
C81   C     C_1   0.838237 0.000390 0.338275 -0.078325
C82   C     C_1   0.502158 0.838525 0.840580 -0.066610
C83   C     C_1   0.502614 0.875968 0.878444 -0.028366
C84   C     C_1   0.499617 0.624149 0.623649 -0.040238
C85   C     C_1   0.627214 0.000208 0.127049 -0.034117
C86   C     C_3   0.750994 0.023501 0.302096 0.060243
C87   C     C_3   0.741984 0.853768 0.506209 -0.398103
C88   C     C_3   0.158299 0.887235 0.639065 -0.270271
C89   C     C_3   0.101958 0.858897 0.640443 -0.439806
C90   C     C_3   0.248383 0.887215 0.736342 -0.273575
C91   C     C_3   0.288090 0.876273 0.712703 -0.437450
C92   C     C_1   0.664739 0.000306 0.164571 -0.068680
C93   C     C_3   0.342431 0.107964 0.858253 -0.268813
C94   C     C_3   0.339755 0.163253 0.863344 -0.455678
C95   C     C_3   0.162514 0.136611 0.391904 -0.269190
C96   C     C_3   0.105043 0.135274 0.360059 -0.439113
C97   C     C_3   0.250540 0.232607 0.390238 -0.268582
C98   C     C_3   0.292433 0.210477 0.382918 -0.442525
C99   C     C_3   0.336641 0.364005 0.607763 -0.270960
C100  C     C_3   0.394226 0.365792 0.640156 -0.436755
C101  C     C_3   0.248775 0.267991 0.609503 -0.269733
C102  C     C_3   0.206570 0.289891 0.616207 -0.436438
C103  C     C_R   0.753253 0.698236 0.495218 0.030859
C104  C     C_3   0.592889 0.281090 0.218866 -0.269273
C105  C     C_3   0.643101 0.272298 0.250489 -0.437691
C106  C     C_3   0.637361 0.928524 0.230223 -0.270450
C107  C     C_3   0.638572 0.897573 0.266127 -0.445064
C108  C     C_3   0.597325 0.372633 0.317498 -0.271194
C109  C     C_3   0.581386 0.409518 0.292118 -0.440912
C110  C     C_3   0.405086 0.220514 0.277819 -0.271022
C111  C     C_3   0.421086 0.211215 0.330599 -0.440950
C112  C     C_3   0.410463 0.126322 0.191665 -0.269968
C113  C     C_3   0.360294 0.107714 0.132883 -0.436264
Cu1   Cu    Cu3+1 0.999750 0.040980 0.540800 0.925971
Cu2   Cu    Cu3+1 0.000250 0.959020 0.459200 0.926582
Cu3   Cu    Cu3+1 0.461600 0.959120 0.002610 0.925981
Cu4   Cu    Cu3+1 0.543650 0.041070 0.002550 0.928400
Cu5   Cu    Cu3+1 0.458780 0.500040 0.458810 0.927607
Cu6   Cu    Cu3+1 0.541220 0.499960 0.541190 0.927222
H1    H     H_    0.733012 0.900067 0.222493 0.107565
H2    H     H_    0.083491 0.888727 0.647029 0.160358
H3    H     H_    0.666864 0.755424 0.584182 0.159361
H4    H     H_    0.701041 0.829057 0.596472 0.148832
H5    H     H_    0.622943 0.789130 0.568120 0.133355
H6    H     H_    0.640346 0.789298 0.487705 0.135310
H7    H     H_    0.608991 0.717827 0.475747 0.148161
H8    H     H_    0.068855 0.817724 0.598193 0.133268
H9    H     H_    0.148114 0.896359 0.602189 0.149594
H10   H     H_    0.173639 0.855345 0.627752 0.135682
H11   H     H_    0.273649 0.873384 0.669202 0.145538
H12   H     H_    0.334346 0.912167 0.743257 0.161979
H13   H     H_    0.286096 0.834427 0.707983 0.137551
H14   H     H_    0.263054 0.888837 0.779298 0.149308
H15   H     H_    0.203396 0.848898 0.707966 0.136319
H16   H     H_    0.343496 0.170769 0.827851 0.148007
H17   H     H_    0.248206 0.088532 0.761750 0.120383
H18   H     H_    0.298279 0.159807 0.861777 0.148701
H19   H     H_    0.377085 0.201659 0.905972 0.139124
H20   H     H_    0.340996 0.103775 0.895981 0.148710
H21   H     H_    0.385684 0.114663 0.862673 0.152293
H22   H     H_    0.085047 0.141924 0.388269 0.158816
H23   H     H_    0.112825 0.170019 0.347901 0.143711
H24   H     H_    0.073578 0.092103 0.319518 0.134918
H25   H     H_    0.179355 0.124977 0.361630 0.136412
H26   H     H_    0.153342 0.100812 0.402583 0.149406
H27   H     H_    0.338242 0.242802 0.419203 0.159542
H28   H     H_    0.555893 0.854772 0.779732 0.114564
H29   H     H_    0.279729 0.168144 0.382479 0.144735
H30   H     H_    0.290800 0.203918 0.340890 0.131106
H31   H     H_    0.206063 0.202538 0.351195 0.136490
H32   H     H_    0.263668 0.274436 0.389581 0.147950
H33   H     H_    0.386530 0.331235 0.652569 0.144202
H34   H     H_    0.414496 0.359158 0.612210 0.164887
H35   H     H_    0.425405 0.409108 0.680580 0.134996
H36   H     H_    0.345734 0.399639 0.596845 0.143898
H37   H     H_    0.319508 0.375639 0.637756 0.135837
H38   H     H_    0.219244 0.332148 0.616485 0.142787
H39   H     H_    0.447297 0.724760 0.801920 0.117640
H40   H     H_    0.160905 0.257406 0.579690 0.164026
H41   H     H_    0.207826 0.296511 0.658104 0.135660
H42   H     H_    0.235765 0.226292 0.610413 0.146519
H43   H     H_    0.293140 0.298311 0.648667 0.136352
H44   H     H_    0.664229 0.299753 0.298670 0.142804
H45   H     H_    0.626591 0.225680 0.238845 0.160335
H46   H     H_    0.676656 0.284964 0.237345 0.135412
H47   H     H_    0.573157 0.253935 0.170825 0.148906
H48   H     H_    0.610747 0.326541 0.226861 0.136088
H49   H     H_    0.658923 0.869958 0.256971 0.148582
H50   H     H_    0.751594 0.958796 0.159177 0.106644
H51   H     H_    0.663600 0.929739 0.313623 0.151647
H52   H     H_    0.592933 0.868959 0.254179 0.135228
H53   H     H_    0.615544 0.954764 0.238363 0.141899
H54   H     H_    0.611091 0.894929 0.182984 0.144858
H55   H     H_    0.571182 0.391099 0.245875 0.145464
H56   H     H_    0.542660 0.410989 0.294027 0.162050
H57   H     H_    0.618960 0.454944 0.317931 0.130865
H58   H     H_    0.608124 0.392423 0.363942 0.145714
H59   H     H_    0.638988 0.375902 0.320152 0.136133
H60   H     H_    0.431711 0.175282 0.322711 0.145415
H61   H     H_    0.703640 0.840873 0.465219 0.119559
H62   H     H_    0.459564 0.251860 0.370468 0.161939
H63   H     H_    0.383391 0.199443 0.338421 0.131191
H64   H     H_    0.393927 0.256099 0.286505 0.145974
H65   H     H_    0.363603 0.181516 0.239743 0.136431
H66   H     H_    0.338868 0.134759 0.138978 0.143678
H67   H     H_    0.376929 0.112500 0.102865 0.161223
H68   H     H_    0.326953 0.061092 0.112306 0.136344
H69   H     H_    0.430493 0.098019 0.184476 0.148830
H70   H     H_    0.392526 0.116546 0.219215 0.136160
H71   H     H_    0.563434 0.750185 0.660258 0.139491
H72   H     H_    0.736934 0.874600 0.544223 0.128297
H73   H     H_    0.548012 0.809397 0.674518 0.125691
H74   H     H_    0.612661 0.817394 0.728707 0.126798
H75   H     H_    0.434658 0.634648 0.796934 0.148864
H76   H     H_    0.369411 0.626423 0.742068 0.148531
H77   H     H_    0.380518 0.564636 0.732340 0.136623
H78   H     H_    0.402613 0.601263 0.669341 0.148406
H79   H     H_    0.466956 0.609432 0.723458 0.149663
H80   H     H_    0.840464 0.042330 0.178916 0.147385
H81   H     H_    0.839865 0.108412 0.217431 0.152040
H82   H     H_    0.908564 0.109949 0.231678 0.134236
H83   H     H_    0.780990 0.888194 0.511823 0.139734
H84   H     H_    0.890395 0.110246 0.312710 0.140962
H85   H     H_    0.888767 0.043635 0.272424 0.145452
H86   H     H_    0.812296 0.149001 0.329558 0.123068
H87   H     H_    0.781621 0.129716 0.253305 0.130038
H88   H     H_    0.734512 0.120850 0.284045 0.125533
H89   H     H_    0.704798 0.092773 0.341792 0.150116
H90   H     H_    0.664579 0.023906 0.336788 0.148461
H91   H     H_    0.716842 0.088252 0.407030 0.134413
H92   H     H_    0.755971 0.020278 0.379994 0.141671
H93   H     H_    0.799458 0.091757 0.392715 0.141614
H94   H     H_    0.110705 0.848396 0.676369 0.144715
H95   H     H_    0.814512 0.663537 0.422275 0.148567
H96   H     H_    0.836079 0.730255 0.418576 0.162236
H97   H     H_    0.890802 0.712534 0.451131 0.132947
H98   H     H_    0.893735 0.788112 0.529156 0.145817
H99   H     H_    0.869975 0.724989 0.533692 0.123193
H100  H     H_    0.661436 0.580352 0.413654 0.158695
H101  H     H_    0.714446 0.602560 0.391056 0.147765
H102  H     H_    0.710021 0.550705 0.416670 0.128164
H103  H     H_    0.794908 0.642684 0.494103 0.136418
H104  H     H_    0.742888 0.628864 0.517066 0.145653
O1    O     O_R   0.939930 0.974760 0.534440 -0.503933
O2    O     O_R   0.535120 0.440180 0.475200 -0.504453
O3    O     O_R   0.525050 0.559880 0.465230 -0.504596
O4    O     O_R   0.940350 0.905550 0.465530 -0.503968
O5    O     O_R   0.594670 0.559820 0.534800 -0.503456
O6    O     O_R   0.464880 0.559830 0.524810 -0.502525
O7    O     O_R   0.534500 0.559760 0.594380 -0.502722
O8    O     O_R   0.405330 0.440190 0.465210 -0.503949
O9    O     O_R   0.474950 0.440120 0.534770 -0.504847
O10   O     O_R   0.939640 0.034610 0.474300 -0.505962
O11   O     O_R   0.940060 0.965400 0.405390 -0.503247
O12   O     O_R   0.536970 0.094550 0.062100 -0.505317
O13   O     O_R   0.059650 0.094450 0.534470 -0.505115
O14   O     O_R   0.060070 0.025240 0.465560 -0.504104
O15   O     O_R   0.059940 0.034600 0.594610 -0.502704
O16   O     O_R   0.060360 0.965390 0.525700 -0.504910
O17   O     O_R   0.467680 0.025340 0.062150 -0.504906
O18   O     O_R   0.528130 0.965490 0.062760 -0.505298
O19   O     O_R   0.597420 0.034690 0.062700 -0.503527
O20   O     O_R   0.468280 0.905650 0.943070 -0.503892
O21   O     O_R   0.537570 0.974850 0.943010 -0.502659
O22   O     O_R   0.407830 0.965500 0.942460 -0.503969
O23   O     O_R   0.477120 0.034710 0.942410 -0.503963
O24   O     O_R   0.465500 0.440250 0.405630 -0.504347

loop_
_geom_bond_atom_site_label_1
_geom_bond_atom_site_label_2
_ccdc_geom_bond_type
C100  H34   S    
C29   C93   S    
C4    H78   S    
C101  C102  S    
C60   O8    A    
C73   C74   A    
C36   C42   S    
C95   C96   S    
C95   H26   S    
C53   O21   A    
C12   H95   S    
C80   C84   T    
Cu1   Cu2   S    
C42   O15   A    
C109  H57   S    
C47   C49   T    
C91   H11   S    
C107  H52   S    
Cu4   O23   S    
C27   C33   A    
C40   C46   S    
C76   H39   S    
C3    H74   S    
C51   C71   S    
C56   O2    A    
C1    O1    A    
C93   H20   S    
C77   C82   S    
C89   H94   S    
C28   C29   A    
C70   H50   S    
C19   C87   S    
C90   H15   S    
C65   C69   S    
Cu3   O22   S    
C39   C97   S    
C91   H12   S    
C106  C107  S    
Cu4   O12   S    
C9    H93   S    
C113  H68   S    
C111  H62   S    
C108  C109  S    
C27   C90   S    
C51   O12   A    
C7    H81   S    
C69   C71   T    
C61   C108  S    
C10   H89   S    
Cu5   Cu6   S    
C104  C105  S    
C4    C75   S    
C17   H5    S    
Cu6   O7    S    
C109  H55   S    
C87   H61   S    
C110  C111  S    
C57   O5    A    
C10   H91   S    
C38   C55   S    
C35   C36   T    
C105  H46   S    
C16   C17   S    
C56   C72   S    
C55   O23   A    
C99   H36   S    
C67   C104  S    
C97   H31   S    
C41   C99   S    
C51   O17   A    
C9    C10   S    
C11   H98   S    
C87   H83   S    
C90   C91   S    
C44   C47   S    
C18   C78   S    
C39   C45   A    
Cu4   O19   S    
C1    O4    A    
C4    H79   S    
C96   H22   S    
Cu3   O20   S    
C110  H65   S    
C95   H25   S    
C34   C38   T    
C112  H70   S    
C111  H60   S    
C41   C43   A    
C61   C62   A    
C98   H29   S    
C25   C57   S    
C88   H10   S    
C88   H9    S    
C102  H38   S    
C112  C113  S    
C85   C92   T    
C17   H4    S    
Cu6   O5    S    
C97   C98   S    
Cu1   O10   S    
C77   C79   A    
C97   H32   S    
C56   O24   A    
C18   O10   A    
C74   C75   A    
C13   C19   A    
C108  H58   S    
C26   C66   S    
C32   C35   S    
C14   H104  S    
C76   C77   A    
C3    H71   S    
C102  H41   S    
C39   C40   A    
C54   C86   S    
C90   H14   S    
C54   C106  S    
Cu5   O24   S    
C31   H17   S    
Cu1   O13   S    
C26   C86   S    
C98   H27   S    
C65   C67   A    
C52   O18   A    
Cu2   O14   S    
C22   C25   T    
C111  H63   S    
C100  H33   S    
C68   C72   T    
C15   H102  S    
C8    H88   S    
C48   C54   S    
C75   C76   A    
C43   C101  S    
Cu2   O4    S    
C62   C63   A    
C58   O7    A    
C52   O19   A    
C9    C86   S    
C37   C86   S    
C10   H90   S    
C31   C32   A    
C20   C23   S    
Cu5   O8    S    
C23   C24   T    
C113  H66   S    
C99   H37   S    
C105  H44   S    
C94   H16   S    
C73   C79   A    
C105  H45   S    
C108  H59   S    
C93   C94   S    
C109  H56   S    
C88   C89   S    
C37   C48   S    
C8    H87   S    
C58   C84   S    
C2    C13   A    
C11   H99   S    
C37   C59   S    
C61   C67   A    
Cu6   O9    S    
C5    H77   S    
C57   O3    A    
C16   H6    S    
C40   C41   A    
C30   C49   S    
C52   C85   S    
C110  H64   S    
C26   C81   S    
C43   C44   A    
C55   O22   A    
C94   H19   S    
C8    C37   S    
C12   H97   S    
C30   O14   A    
C15   H100  S    
C45   C95   S    
C44   C45   A    
Cu6   O2    S    
C87   H72   S    
C89   H8    S    
C100  H35   S    
C46   C50   T    
C107  H49   S    
C101  H43   S    
C6    H85   S    
C19   C20   A    
Cu5   O3    S    
C60   O9    A    
C106  H53   S    
C6    C59   S    
C33   C88   S    
C53   O20   A    
C48   C70   S    
C4    C5    S    
C74   C80   S    
C102  H40   S    
C112  H69   S    
C79   H28   S    
C42   O16   A    
C18   O11   A    
Cu3   O18   S    
C6    C7    S    
C54   C66   S    
Cu1   O1    S    
Cu3   O17   S    
C99   C100  S    
C62   C68   S    
C53   C83   S    
C50   C60   S    
C32   C33   A    
C2    C22   S    
C63   C110  S    
C101  H42   S    
C6    H84   S    
C7    H82   S    
C93   H21   S    
C5    H76   S    
C64   C65   A    
C104  H48   S    
Cu2   O16   S    
C78   C81   T    
C14   C103  S    
C66   C70   S    
C89   H2    S    
C2    C103  A    
C9    H92   S    
C14   H103  S    
C113  H67   S    
C106  H54   S    
C11   C21   S    
Cu3   Cu4   S    
C28   C34   S    
C7    H80   S    
C8    H86   S    
C3    C73   S    
C64   C112  S    
C59   C70   S    
C96   H23   S    
C63   C64   A    
C21   C103  A    
Cu4   O21   S    
C17   H3    S    
Cu1   O15   S    
C20   C21   A    
C91   H13   S    
C1    C24   S    
C29   C31   A    
C82   C83   T    
C48   C92   S    
C13   C16   S    
C27   C28   A    
C58   O6    A    
C94   H18   S    
C14   C15   S    
C26   C59   S    
C66   H1    S    
Cu5   O6    S    
C12   H96   S    
C30   O13   A    
C15   H101  S    
C3    H73   S    
C16   H7    S    
C104  H47   S    
C98   H30   S    
Cu2   O11   S    
C11   C12   S    
C5    H75   S    
C96   H24   S    
C107  H51   S    
