data_mof_unit_24574.cif
_audit_creation_date              2013-03-05T15:41:46-0500
_audit_creation_method            fapswitch 2.2
_symmetry_space_group_name_H-M    P1
_symmetry_Int_Tables_number       1
_space_group_crystal_system       triclinic
_cell_length_a                    19.280043
_cell_length_b                    8.725706
_cell_length_c                    7.508846
_cell_angle_alpha                 102.847587
_cell_angle_beta                  93.267478
_cell_angle_gamma                 92.345107
_cell_volume                      1227.73589759

loop_
_atom_site_label
_atom_site_type_symbol
_atom_site_description
_atom_site_fract_x
_atom_site_fract_y
_atom_site_fract_z
_atom_type_partial_charge
O1    O     O_R   0.505010 0.286130 0.619770 -0.567147
O2    O     O_R   0.494990 0.713870 0.380230 -0.578929
O3    O     O_R   0.491990 0.256780 0.308370 -0.589099
O4    O     O_R   0.508010 0.743220 0.691630 -0.581782
C1    C     C_R   0.495796 0.200647 0.455179 0.914314
C2    C     C_R   0.503845 0.799242 0.545000 0.825241
O5    O     O_R   0.406650 0.514660 0.655750 -0.531004
O6    O     O_R   0.593350 0.485340 0.344250 -0.534170
O7    O     O_R   0.393640 0.485310 0.344340 -0.560956
O8    O     O_R   0.606360 0.514690 0.655660 -0.555844
C3    C     C_R   0.367955 0.503314 0.504112 0.844819
C4    C     C_R   0.632034 0.496712 0.495887 0.849087
Cu1   Cu    Cu3+1 0.507710 0.517380 0.684380 1.104384
Cu2   Cu    Cu3+1 0.492290 0.482620 0.315620 1.097577
C5    C     C_R   0.261391 0.619848 0.646601 0.313071
C6    C     C_R   0.738432 0.379416 0.353671 0.316248
C7    C     C_R   0.188087 0.614762 0.652626 0.169206
C8    C     C_R   0.811709 0.384448 0.347027 0.168183
C9    C     C_R   0.146807 0.502516 0.519469 -0.021504
C10   C     C_R   0.853103 0.497183 0.479375 -0.021230
C11   C     C_R   0.178685 0.393421 0.387743 -0.210016
C12   C     C_R   0.821335 0.606792 0.610834 -0.207063
H1    H     H_    0.147778 0.307146 0.284509 0.180974
H2    H     H_    0.852313 0.693449 0.713484 0.180497
C13   C     C_R   0.250542 0.396379 0.384035 -0.188975
C14   C     C_R   0.749495 0.603943 0.615012 -0.200517
H3    H     H_    0.273792 0.310362 0.280647 0.198162
H4    H     H_    0.726320 0.690414 0.718082 0.190665
C15   C     C_R   0.292276 0.507922 0.512376 -0.140130
C16   C     C_R   0.707680 0.491933 0.487486 -0.134361
N1    N     N_R   0.031785 0.363958 0.450180 -0.239058
N2    N     N_R   0.968134 0.635759 0.548159 -0.239622
N3    N     N_R   0.962700 0.362642 0.440070 -0.190974
N4    N     N_R   0.037218 0.637076 0.558279 -0.191074
C17   C     C_R   0.929585 0.498519 0.488108 0.426973
C18   C     C_R   0.070329 0.501195 0.510289 0.427377
C19   C     C_2   0.482039 0.035364 0.440654 0.063876
C20   C     C_2   0.515365 0.965311 0.561714 0.033891
N5    N     N_2   0.480680 0.456420 0.038530 -0.004462
N6    N     N_2   0.519320 0.543580 0.961470 -0.001914
N7    N     N_R   0.303777 0.742139 0.769892 0.118502
O9    O     O_R   0.349213 0.826855 0.706405 -0.413885
O10   O     O_R   0.294124 0.776275 0.943995 -0.364478
N8    N     N_R   0.695932 0.256638 0.231447 0.115563
O11   O     O_R   0.705223 0.221950 0.057156 -0.368840
O12   O     O_R   0.650786 0.172046 0.296113 -0.396621
N9    N     N_2   0.155447 0.724294 0.788094 -0.405820
H5    H     H_    0.178933 0.836064 0.824261 0.297171
C21   C     C_3   0.134711 0.663340 0.942534 -0.560592
H6    H     H_    0.180988 0.632124 0.019337 0.256520
H7    H     H_    0.098837 0.557278 0.895793 0.217717
H8    H     H_    0.107104 0.754057 0.036041 0.225827
N10   N     N_2   0.844202 0.274479 0.211683 -0.406100
H9    H     H_    0.820691 0.162714 0.176180 0.296461
C22   C     C_3   0.864679 0.334773 0.056567 -0.561220
H10   H     H_    0.818281 0.365598 0.979884 0.257321
H11   H     H_    0.892213 0.243808 0.963188 0.225561
H12   H     H_    0.900537 0.440941 0.102517 0.217828
N11   N     N_2   0.424839 0.959822 0.319115 -0.466749
H13   H     H_    0.392594 0.881797 0.365205 0.288727
C23   C     C_3   0.438758 0.913729 0.127973 -0.396756
H14   H     H_    0.424274 0.787001 0.074334 0.265465
H15   H     H_    0.494699 0.931728 0.107873 0.207983
H16   H     H_    0.407832 0.983897 0.049362 0.267107
N12   N     N_2   0.572595 0.043922 0.680489 -0.442634
H17   H     H_    0.618766 0.988735 0.660659 0.265260
C24   C     C_3   0.558730 0.092824 0.871415 -0.402225
H18   H     H_    0.578731 0.216150 0.924275 0.281249
H19   H     H_    0.585189 0.016700 0.951452 0.242083
H20   H     H_    0.502181 0.087962 0.890718 0.215983
N13   N     N_R   0.415028 0.412185 0.953103 0.254010
O13   O     O_R   0.363930 0.503005 0.996249 -0.327171
O14   O     O_R   0.400662 0.266057 0.870037 -0.372350
N14   N     N_R   0.584389 0.591360 0.048823 0.253674
O15   O     O_R   0.636656 0.503841 0.006788 -0.326068
O16   O     O_R   0.597006 0.738243 0.131391 -0.373212

loop_
_geom_bond_atom_site_label_1
_geom_bond_atom_site_label_2
_geom_bond_distance
_ccdc_geom_bond_type
C23   H16   1.108737 S    
O6    Cu2   1.946638 S    
O7    Cu2   1.926845 S    
N1    N3    1.329228 A    
C5    C15   1.415082 A    
C19   C20   1.351101 D    
C1    C19   1.434458 S    
C13   H3    1.083990 S    
N7    O10   1.300579 A    
N7    O9    1.300936 A    
C6    N8    1.437575 S    
C14   H4    1.084082 S    
N9    H5    1.030535 S    
N12   C24   1.445617 S    
C20   N12   1.427312 S    
O5    Cu1   1.946638 S    
O6    C4    1.307457 A    
C24   H20   1.108358 S    
C4    C16   1.465303 S    
C21   H8    1.110319 S    
C22   H10   1.110829 S    
C22   H11   1.110344 S    
N11   H13   1.031712 S    
N9    C21   1.448197 S    
C19   N11   1.428931 S    
N10   H9    1.030558 S    
N12   H17   1.031880 S    
O5    C3    1.307606 A    
O7    C3    1.303636 A    
C3    C15   1.465760 S    
O2    C2    1.292463 A    
O3    Cu2   1.958989 S    
N14   O16   1.300045 A    
O1    C1    1.292095 A    
O8    C4    1.303568 A    
C6    C8    1.415739 A    
C9    C11   1.400242 A    
C10   C12   1.400453 A    
C14   C16   1.397658 A    
N4    C18   1.356958 A    
C9    C18   1.471646 S    
N10   C22   1.448168 S    
C11   H1    1.083418 S    
C13   C15   1.397787 A    
C23   H14   1.107610 S    
O2    Cu2   1.965414 S    
C12   H2    1.083482 S    
N11   C23   1.445609 S    
O4    C2    1.300052 A    
O1    Cu1   1.965414 S    
N14   O15   1.300135 A    
C6    C16   1.414887 A    
C24   H18   1.105849 S    
N2    C17   1.355940 A    
N13   O14   1.299723 A    
N13   O13   1.299846 A    
N8    O11   1.300567 A    
C5    N7    1.437565 S    
C8    C10   1.415196 A    
C5    C7    1.415809 A    
C21   H6    1.110823 S    
C12   C14   1.386563 A    
C22   H12   1.110621 S    
C24   H19   1.110379 S    
N5    N6    1.291007 D    
C23   H15   1.107225 S    
C21   H7    1.110650 S    
C11   C13   1.386587 A    
N1    C18   1.355918 A    
C7    C9    1.415057 A    
Cu1   N6    2.040236 S    
N5    N13   1.385638 S    
N8    O12   1.301232 A    
C8    N10   1.426220 S    
N3    C17   1.357000 A    
Cu2   N5    2.040236 S    
Cu1   Cu2   2.715294 S    
C10   C17   1.471744 S    
C2    C20   1.433349 S    
C7    N9    1.426192 S    
O4    Cu1   1.958989 S    
N6    N14   1.385526 S    
O3    C1    1.301667 A    
O8    Cu1   1.926843 S    
N2    N4    1.329198 A    
