data_mof_unit_57053.cif
_audit_creation_date              2012-12-10T20:44:48-0500
_audit_creation_method            fapswitch 2.2
_symmetry_space_group_name_H-M    P1
_symmetry_Int_Tables_number       1
_space_group_crystal_system       triclinic
_cell_length_a                    9.867489
_cell_length_b                    10.680249
_cell_length_c                    16.700803
_cell_angle_alpha                 89.258233
_cell_angle_beta                  94.962423
_cell_angle_gamma                 89.759647
_cell_volume                      1753.28233017

loop_
_atom_site_label
_atom_site_type_symbol
_atom_type_description
_atom_site_fract_x
_atom_site_fract_y
_atom_site_fract_z
_atom_type_partial_charge
C1    C     C_R   0.499789 0.259928 0.497402 0.874135
C2    C     C_R   0.498120 0.128790 0.483963 -0.106697
C3    C     C_R   0.374013 0.065861 0.469326 -0.218324
C4    C     C_R   0.518447 0.501319 0.653669 0.880836
C5    C     C_R   0.373726 0.936330 0.469064 -0.218963
C6    C     C_R   0.497550 0.871571 0.483382 -0.104704
C7    C     C_R   0.619918 0.935650 0.482167 0.133902
C8    C     C_3   0.746271 0.926034 0.538150 -0.469571
C9    C     C_3   0.745974 0.067776 0.539150 -0.499179
C10   C     C_R   0.076118 0.401404 0.532697 0.184123
C11   C     C_R   0.065922 0.591735 0.461435 -0.107466
C12   C     C_R   0.654388 0.479989 0.785052 -0.315972
C13   C     C_R   0.921971 0.591814 0.461490 -0.105212
C14   C     C_R   0.933532 0.401115 0.532244 0.145159
C15   C     C_3   0.938504 0.355194 0.616993 -0.559376
C16   C     C_R   0.499319 0.740063 0.497058 0.875706
C17   C     C_3   0.092442 0.355211 0.617895 0.218037
C18   C     C_R   0.481602 0.498723 0.346528 0.897398
C19   C     C_R   0.531575 0.511503 0.740660 -0.028324
C20   C     C_R   0.421774 0.556116 0.779588 -0.224110
C21   C     C_R   0.430487 0.559652 0.862429 -0.190180
C22   C     C_R   0.549743 0.519339 0.907583 0.316819
C23   C     C_R   0.554113 0.389868 0.142926 -0.097340
C24   C     C_R   0.665703 0.485686 0.868827 -0.029167
C25   C     C_2   0.653766 0.308117 0.106686 0.522536
C26   C     C_2   0.797975 0.451566 0.913003 0.401074
C27   C     C_R   0.566076 0.410123 0.225440 -0.191927
C28   C     C_R   0.445239 0.447636 0.095418 0.184320
C29   C     C_R   0.468258 0.481207 0.260444 -0.115774
C30   C     C_R   0.353956 0.527705 0.214059 -0.329577
C31   C     C_R   0.342134 0.511639 0.130859 0.487201
C32   C     C_R   0.620192 0.063447 0.482647 0.152816
H1    H     H_    0.650204 0.368712 0.262872 0.203630
H2    H     H_    0.896393 0.259827 0.622326 0.161254
H3    H     H_    0.141408 0.261090 0.624722 0.093064
H4    H     H_    0.740698 0.448969 0.754602 0.148258
H5    H     H_    0.276710 0.579668 0.242189 0.160379
H6    H     H_    0.342959 0.590864 0.891864 0.189249
H7    H     H_    0.328846 0.587648 0.746143 0.209512
H8    H     H_    0.277537 0.115384 0.463951 0.168739
H9    H     H_    0.156237 0.405882 0.724518 0.330866
H10   H     H_    0.637625 0.282052 0.044024 0.078009
H11   H     H_    0.878832 0.412733 0.880609 0.066874
H12   H     H_    0.277147 0.887957 0.463599 0.167072
H13   H     H_    0.172017 0.605197 0.116451 0.343364
H14   H     H_    0.728334 0.882528 0.597159 0.210426
H15   H     H_    0.833062 0.886058 0.508543 0.202307
H16   H     H_    0.726390 0.106214 0.598652 0.200385
H17   H     H_    0.833060 0.109721 0.510551 0.205254
H18   H     H_    0.115474 0.667000 0.431523 0.134182
H19   H     H_    0.863050 0.667156 0.431626 0.144270
H20   H     H_    0.897818 0.425182 0.657423 0.232557
N1    N     N_2   0.550478 0.506833 0.991442 -0.144529
N2    N     N_2   0.445367 0.455269 0.011570 -0.169286
N3    N     N_R   0.142860 0.499130 0.500540 -0.081763
N4    N     N_R   0.857210 0.499170 0.500530 -0.092187
O1    O     O_R   0.614690 0.316790 0.499990 -0.612883
O2    O     O_2   0.754579 0.267802 0.146500 -0.555346
O3    O     O_2   0.819970 0.468624 0.985071 -0.530036
O4    O     O_3   0.235023 0.562703 0.082289 -0.736747
O5    O     O_R   0.385350 0.316760 0.500000 -0.630959
O6    O     O_R   0.627460 0.498860 0.616130 -0.622745
O7    O     O_R   0.398120 0.498820 0.616130 -0.557272
O8    O     O_R   0.614650 0.683240 0.500000 -0.620599
O9    O     O_R   0.385310 0.683210 0.500010 -0.625832
O10   O     O_R   0.601880 0.501180 0.383870 -0.617323
O11   O     O_R   0.372540 0.501140 0.383870 -0.618708
O12   O     O_3   0.150914 0.445141 0.670157 -0.728521
Zn1   Zn    Zn3+2 0.653130 0.500020 0.499990 0.953500
Zn2   Zn    Zn3+2 0.346870 0.499980 0.500010 0.979384

loop_
_geom_bond_atom_site_label_1
_geom_bond_atom_site_label_2
_ccdc_geom_bond_type
C25   H10   S    
O5    Zn2   S    
C14   N4    A    
H13   O4    S    
C6    C7    A    
C7    C32   A    
C1    O1    A    
C27   C29   A    
C17   H3    S    
C26   O3    D    
C12   C24   A    
C15   H2    S    
C19   C20   A    
C14   C15   S    
O7    Zn2   S    
C30   C31   A    
O11   Zn2   S    
C13   N4    A    
C2    C3    A    
C8    H15   S    
C11   N3    A    
C7    C8    S    
C18   C29   S    
C13   H19   S    
N1    N2    D    
C27   H1    S    
C10   N3    A    
C11   C13   A    
C4    O7    A    
C29   C30   A    
C12   C19   A    
C21   C22   A    
C26   H11   S    
C5    H12   S    
C24   C26   S    
C3    H8    S    
C1    C2    S    
C22   N1    S    
C23   C27   A    
C23   C25   S    
C10   C14   A    
C5    C6    A    
C18   O10   A    
C22   C24   A    
C9    C32   S    
O10   Zn1   S    
C12   H4    S    
C23   C28   A    
C10   C17   S    
C6    C16   S    
O9    Zn2   S    
N3    Zn2   S    
C31   O4    S    
C4    O6    A    
C9    H17   S    
C20   C21   A    
O6    Zn1   S    
C9    H16   S    
C2    C32   A    
N4    Zn1   S    
C25   O2    D    
C15   C17   S    
C20   H7    S    
C11   H18   S    
H9    O12   S    
C17   O12   S    
C28   N2    S    
C16   O9    A    
C16   O8    A    
C8    H14   S    
O1    Zn1   S    
C18   O11   A    
C15   H20   S    
C4    C19   S    
O8    Zn1   S    
C28   C31   A    
C21   H6    S    
C30   H5    S    
C8    C9    S    
C3    C5    A    
C1    O5    A    
