data_mof_unit_50435.cif
_audit_creation_date              2012-12-10T17:49:43-0500
_audit_creation_method            fapswitch 2.2
_symmetry_space_group_name_H-M    P1
_symmetry_Int_Tables_number       1
_space_group_crystal_system       triclinic
_cell_length_a                    10.614149
_cell_length_b                    10.731537
_cell_length_c                    10.115215
_cell_angle_alpha                 90.912373
_cell_angle_beta                  90.563873
_cell_angle_gamma                 94.782335
_cell_volume                      1147.95612344

loop_
_atom_site_label
_atom_site_type_symbol
_atom_type_description
_atom_site_fract_x
_atom_site_fract_y
_atom_site_fract_z
_atom_type_partial_charge
C1    C     C_R   0.518042 0.263598 0.499096 0.930948
C2    C     C_R   0.599864 0.075897 0.609195 0.036419
C3    C     C_R   0.555526 0.135767 0.495183 -0.200514
C4    C     C_R   0.258162 0.499619 0.498160 0.923276
C5    C     C_R   0.538548 0.067372 0.375562 0.327127
C6    C     C_R   0.511079 0.939757 0.379783 0.047062
C7    C     C_R   0.535600 0.876605 0.497352 -0.115365
C8    C     C_R   0.296812 0.364878 0.129795 0.026648
C9    C     C_R   0.185285 0.332948 0.058024 0.300974
C10   C     C_R   0.181862 0.354297 0.924093 0.301938
C11   C     C_R   0.297221 0.372435 0.859758 0.325039
C12   C     C_3   0.968343 0.616448 0.455547 0.355925
C13   C     C_R   0.398707 0.441017 0.926499 -0.052100
C14   C     C_R   0.399410 0.438112 0.069880 0.069045
C15   C     C_R   0.597521 0.555130 0.072602 0.082541
C16   C     C_R   0.507429 0.740785 0.500213 0.968990
C17   C     C_R   0.599591 0.550081 0.931129 0.145876
C18   C     C_R   0.741732 0.503537 0.500045 0.966619
C19   C     C_3   0.029937 0.390744 0.528281 0.033692
C20   C     C_3   0.946034 0.416656 0.410863 0.079313
C21   C     C_3   0.876472 0.505888 0.497599 -0.221878
C22   C     C_3   0.959054 0.479116 0.618649 -0.222163
C23   C     C_3   0.038942 0.525253 0.371258 0.027162
C24   C     C_3   0.051911 0.590820 0.576344 0.378509
C25   C     C_3   0.123065 0.500565 0.490828 -0.200522
C26   C     C_R   0.659213 0.141207 0.720658 0.113890
C27   C     C_R   0.692243 0.074511 0.832976 0.086912
C28   C     C_R   0.698293 0.946565 0.821974 -0.132528
C29   C     C_R   0.666295 0.885578 0.702743 0.362318
C30   C     C_R   0.597031 0.944050 0.605268 -0.042060
Cl1   Cl    Cl    0.764569 0.770869 0.655268 -0.561851
Cl2   Cl    Cl    0.063814 0.231714 0.126058 -0.550749
Cl3   Cl    Cl    0.045989 0.295102 0.838474 -0.654475
Cl4   Cl    Cl    0.330988 0.229271 0.787727 -0.542856
Cl5   Cl    Cl    0.122529 0.707922 0.687081 -0.488827
Cl6   Cl    Cl    0.932364 0.764446 0.394095 -0.517903
Cl7   Cl    Cl    0.558400 0.134874 0.217625 -0.644834
H1    H     H_    0.745807 0.899055 0.899148 0.188466
H2    H     H_    0.235883 0.300641 0.308087 0.230667
H3    H     H_    0.742538 0.681045 0.901955 0.223709
H4    H     H_    0.782742 0.533104 0.894416 0.184394
H5    H     H_    0.993317 0.210635 0.590480 0.257227
H6    H     H_    0.148729 0.267611 0.603177 0.278888
H7    H     H_    0.004414 0.561822 0.178417 0.223984
H8    H     H_    0.140554 0.631948 0.239254 0.225908
H9    H     H_    0.680189 0.319026 0.792768 0.215496
H10   H     H_    0.807097 0.270270 0.712718 0.202769
H11   H     H_    0.821080 0.190598 0.933183 0.267823
H12   H     H_    0.921511 0.468386 0.719764 0.220955
H13   H     H_    0.670490 0.198211 0.981288 0.239702
H14   H     H_    0.922845 0.237245 0.340169 0.266527
H15   H     H_    0.789296 0.302292 0.354830 0.205277
H16   H     H_    0.375218 0.917250 0.235992 0.232597
H17   H     H_    0.521425 0.881449 0.187669 0.243379
H18   H     H_    0.762234 0.551131 0.173137 0.233907
H19   H     H_    0.673211 0.671165 0.218688 0.263964
H20   H     H_    0.314684 0.201537 0.218716 0.248183
N1    N     N_R   0.498800 0.498800 0.142780 -0.097125
N2    N     N_3   0.708829 0.268463 0.710876 -0.435674
N3    N     N_3   0.737092 0.137045 0.952547 -0.360056
N4    N     N_R   0.498760 0.498720 0.857170 -0.104296
N5    N     N_3   0.882216 0.320878 0.323606 -0.347693
N6    N     N_3   0.456299 0.875043 0.264636 -0.401182
N7    N     N_3   0.704077 0.618123 0.139942 -0.452679
N8    N     N_3   0.313678 0.295739 0.246304 -0.309389
N9    N     N_3   0.713454 0.591432 0.866135 -0.349532
N10   N     N_3   0.066915 0.264195 0.545324 -0.413585
N11   N     N_3   0.083251 0.547886 0.237306 -0.393903
O1    O     O_R   0.500000 0.316780 0.614690 -0.558474
O2    O     O_R   0.499990 0.316750 0.385360 -0.568876
O3    O     O_R   0.313960 0.499980 0.614650 -0.584796
O4    O     O_R   0.313940 0.499960 0.385310 -0.617273
O5    O     O_R   0.500010 0.683250 0.614640 -0.578641
O6    O     O_R   0.500000 0.683220 0.385310 -0.616988
O7    O     O_R   0.686060 0.500040 0.614690 -0.582373
O8    O     O_R   0.686040 0.500020 0.385350 -0.651964
Zn1   Zn    Zn3+2 0.500010 0.500020 0.653130 1.037284
Zn2   Zn    Zn3+2 0.499990 0.499980 0.346870 0.991792

loop_
_geom_bond_atom_site_label_1
_geom_bond_atom_site_label_2
_ccdc_geom_bond_type
C6    N6    S    
C18   O7    A    
C5    Cl7   S    
H9    N2    S    
O2    Zn2   S    
C18   C21   S    
C11   C13   A    
O1    Zn1   S    
C19   C20   S    
C4    O4    A    
C4    C25   S    
C12   C23   S    
C17   N9    S    
C16   O6    A    
C28   C29   A    
O8    Zn2   S    
C27   N3    S    
C5    C6    A    
H17   N6    S    
O4    Zn2   S    
C9    Cl2   S    
C17   N4    A    
N4    Zn1   S    
C8    C9    A    
C8    C14   A    
C15   N7    S    
H19   N7    S    
C19   N10   S    
C12   Cl6   S    
C9    C10   A    
C8    N8    S    
C7    C30   A    
H3    N9    S    
C13   C14   A    
H2    N8    S    
H14   N5    S    
H11   N3    S    
C14   N1    A    
C24   Cl5   S    
C16   O5    A    
C19   C22   S    
C24   C25   S    
C12   C21   S    
C1    O1    A    
C1    C3    S    
C23   N11   S    
C29   C30   A    
C20   C23   S    
C28   H1    S    
H18   N7    S    
H8    N11   S    
C26   C27   A    
C2    C26   A    
O7    Zn1   S    
H4    N9    S    
C22   H12   S    
C7    C16   S    
H5    N10   S    
C15   N1    A    
C22   C24   S    
H7    N11   S    
O3    Zn1   S    
C26   N2    S    
C15   C17   A    
C18   O8    A    
C11   Cl4   S    
H20   N8    S    
C3    C5    A    
C6    C7    A    
C12   C24   S    
C1    O2    A    
C2    C30   A    
H13   N3    S    
C2    C3    A    
C29   Cl1   S    
H15   N5    S    
H16   N6    S    
C10   Cl3   S    
C23   C25   S    
C20   N5    S    
C19   C25   S    
C10   C11   A    
N1    Zn2   S    
H10   N2    S    
C13   N4    A    
C20   C21   S    
H6    N10   S    
O6    Zn2   S    
C27   C28   A    
O5    Zn1   S    
C21   C22   S    
C4    O3    A    
