data_mof_unit_14017.cif
_audit_creation_date              2012-12-11T15:31:51-0500
_audit_creation_method            fapswitch 2.2
_symmetry_space_group_name_H-M    P1
_symmetry_Int_Tables_number       1
_space_group_crystal_system       triclinic
_cell_length_a                    13.552167
_cell_length_b                    13.592316
_cell_length_c                    27.660258
_cell_angle_alpha                 90.689824
_cell_angle_beta                  89.909132
_cell_angle_gamma                 119.904221
_cell_volume                      4416.41925621

loop_
_atom_site_label
_atom_site_type_symbol
_atom_type_description
_atom_site_fract_x
_atom_site_fract_y
_atom_site_fract_z
_atom_type_partial_charge
C1    C     C_R   0.619749 0.898256 0.431362 0.546315
C2    C     C_R   0.671072 0.428613 0.221444 -0.014413
C3    C     C_R   0.663100 0.412652 0.272365 -0.012315
C4    C     C_R   0.668662 0.319490 0.291617 0.038193
C5    C     C_R   0.683606 0.350626 0.191092 0.038358
C6    C     C_1   0.692050 0.366233 0.139280 0.024483
C7    C     C_1   0.652517 0.295118 0.342716 0.015763
C8    C     C_1   0.700539 0.390113 0.097095 0.003592
C9    C     C_1   0.229932 0.860849 0.383163 0.005196
C10   C     C_R   0.145054 0.912072 0.267830 -0.086850
C11   C     C_R   0.129167 0.907619 0.217111 0.030294
C12   C     C_R   0.600017 0.218736 0.431426 0.551567
C13   C     C_R   0.175111 0.755339 0.212610 -0.121780
C14   C     C_R   0.189727 0.760538 0.262622 -0.113575
C15   C     C_R   0.174934 0.838761 0.290349 0.019122
C16   C     C_R   0.145663 0.828365 0.189581 0.040407
C17   C     C_1   0.123479 0.813586 0.138128 -0.057373
C18   C     C_1   0.200114 0.849587 0.341407 -0.041734
C19   C     C_1   0.096297 0.794490 0.096065 -0.008562
C20   C     C_1   0.635059 0.865980 0.383694 0.018792
C21   C     C_R   0.559928 0.822724 0.260030 0.246741
C22   C     C_R   0.567116 0.810240 0.209131 0.251731
C23   C     C_R   0.279347 0.878626 0.430594 0.552488
C24   C     C_R   0.752283 0.825646 0.220627 -0.194964
C25   C     C_R   0.742583 0.831796 0.270543 -0.187847
C26   C     C_R   0.646930 0.830083 0.290341 0.052786
C27   C     C_R   0.665342 0.814850 0.189928 0.045293
C28   C     C_1   0.676461 0.802002 0.138768 0.012339
C29   C     C_1   0.642493 0.846465 0.341668 0.021154
C30   C     C_1   0.692642 0.789065 0.096927 0.005084
C31   C     C_R   0.616747 0.243063 0.623357 0.016958
C32   C     C_R   0.700507 0.225572 0.645364 -0.130900
C33   C     C_R   0.709786 0.225058 0.695058 -0.075610
C34   C     C_R   0.621262 0.899999 0.568958 0.557649
C35   C     C_R   0.640927 0.249783 0.724122 0.037858
C36   C     C_R   0.559764 0.270951 0.703239 -0.105340
C37   C     C_R   0.542690 0.264665 0.653077 0.001180
C38   C     C_R   0.569158 0.230305 0.807735 -0.184452
C39   C     C_R   0.583044 0.278360 0.853622 -0.152729
C40   C     C_R   0.786031 0.392648 0.839135 -0.105815
C41   C     C_R   0.772628 0.348622 0.792406 0.245780
C42   C     C_R   0.662361 0.269942 0.776069 0.059362
C43   C     C_R   0.691043 0.362597 0.868614 -0.003651
C44   C     C_R   0.228564 0.865972 0.615485 0.020517
C45   C     C_R   0.595579 0.213627 0.571422 0.536976
C46   C     C_R   0.289358 0.952614 0.649635 -0.158267
C47   C     C_R   0.259504 0.936937 0.697883 -0.137598
C48   C     C_R   0.168720 0.833619 0.712816 -0.017271
C49   C     C_R   0.105454 0.747121 0.678841 -0.046003
C50   C     C_R   0.134078 0.762187 0.629992 0.240168
C51   C     C_R   0.027067 0.773308 0.777775 -0.111036
C52   C     C_R   0.997404 0.755521 0.826376 0.237175
C53   C     C_R   0.197697 0.825664 0.848253 -0.046377
C54   C     C_R   0.224973 0.842775 0.798889 -0.106860
C55   C     C_R   0.139938 0.816247 0.764035 -0.024109
C56   C     C_R   0.279220 0.881435 0.567869 0.521573
C57   C     C_R   0.082756 0.782273 0.861405 0.071565
C58   C     C_R   0.641649 0.860951 0.616020 0.028304
C59   C     C_R   0.553944 0.760796 0.637617 -0.041073
C60   C     C_R   0.551756 0.753227 0.687982 -0.163355
C61   C     C_R   0.644362 0.829758 0.716183 0.020723
C62   C     C_R   0.742630 0.914778 0.693794 0.230109
C63   C     C_R   0.739095 0.935300 0.643951 0.216771
C64   C     C_R   0.684053 0.904291 0.801220 -0.062758
C65   C     C_R   0.701691 0.890115 0.850111 0.233634
C66   C     C_R   0.621204 0.687728 0.834394 -0.177391
C67   C     C_1   0.632721 0.266591 0.384297 0.008257
C68   C     C_R   0.607013 0.703032 0.786009 -0.158199
C69   C     C_R   0.642729 0.811985 0.768678 0.034840
C70   C     C_R   0.674225 0.781451 0.866060 0.073456
C71   C     C_R   0.049103 0.761134 0.048300 0.535823
C72   C     C_R   0.713866 0.435076 0.049472 0.538486
C73   C     C_R   0.723404 0.771040 0.049441 0.541393
C74   C     C_R   0.044947 0.756026 0.911058 0.568011
C75   C     C_R   0.708244 0.427719 0.912902 0.562218
C76   C     C_R   0.716200 0.765547 0.912370 0.613507
C77   C     C_R   0.680092 0.242162 0.261162 0.232754
C78   C     C_R   0.691942 0.260367 0.210639 0.234346
Cr1   Cr    Cr6+3 0.417720 0.831920 0.499820 1.023686
Cr2   Cr    Cr6+3 0.668190 0.085770 0.500360 1.067723
Cr3   Cr    Cr6+3 0.414060 0.082260 0.499840 1.019850
Cr4   Cr    Cr6+3 0.908000 0.821090 0.979770 1.075772
Cr5   Cr    Cr6+3 0.912420 0.571130 0.979880 1.045472
Cr6   Cr    Cr6+3 0.657970 0.566940 0.980940 1.035705
H1    H     H_    0.826971 0.826869 0.205911 0.120464
H2    H     H_    0.810727 0.839852 0.293692 0.118867
H3    H     H_    0.756292 0.206384 0.624235 0.162284
H4    H     H_    0.484187 0.168923 0.795413 0.105782
H5    H     H_    0.509539 0.253127 0.876509 0.135118
H6    H     H_    0.772404 0.207413 0.710805 0.165324
H7    H     H_    0.870043 0.457803 0.850885 0.138675
H8    H     H_    0.511079 0.293747 0.727094 0.117646
H9    H     H_    0.364675 0.030252 0.639400 0.131282
H10   H     H_    0.962160 0.754026 0.750592 0.116762
H11   H     H_    0.308626 0.004684 0.723684 0.116257
H12   H     H_    0.311483 0.874957 0.786791 0.124541
H13   H     H_    0.034803 0.666904 0.690426 0.152093
H14   H     H_    0.707301 0.987864 0.788073 0.131054
H15   H     H_    0.478355 0.685409 0.705557 0.127204
H16   H     H_    0.574834 0.630494 0.761622 0.117715
H17   H     H_    0.599793 0.603536 0.846011 0.149228
H18   H     H_    0.135705 0.972633 0.290235 0.114777
H19   H     H_    0.186121 0.693471 0.191781 0.124052
H20   H     H_    0.213977 0.704277 0.279646 0.146412
O1    O     O_R   0.302900 0.805360 0.446400 -0.497743
O2    O     O_R   0.657980 0.180990 0.549630 -0.499861
O3    O     O_R   0.503420 0.197810 0.553190 -0.537107
O4    O     O_R   0.320350 0.978840 0.548910 -0.509725
O5    O     O_3   0.499990 0.999990 0.500010 -0.253834
O6    O     O_R   0.819150 0.845650 0.033320 -0.505609
O7    O     O_R   0.006060 0.815720 0.028680 -0.507738
O8    O     O_R   0.028100 0.664460 0.032550 -0.505282
O9    O     O_R   0.811290 0.477490 0.029660 -0.491040
O10   O     O_R   0.638120 0.455970 0.034270 -0.513445
O11   O     O_R   0.667540 0.672320 0.030160 -0.499338
O12   O     O_R   0.522090 0.841370 0.450730 -0.492053
O13   O     O_R   0.814460 0.840990 0.926980 -0.432224
O14   O     O_R   0.001710 0.811400 0.930110 -0.468027
O15   O     O_R   0.023410 0.659800 0.926210 -0.519505
O16   O     O_R   0.806940 0.473170 0.931090 -0.493863
O17   O     O_R   0.633420 0.451310 0.927930 -0.512864
O18   O     O_R   0.663190 0.668000 0.931580 -0.517556
O19   O     O_3   0.826130 0.653050 0.980200 -0.251044
O20   O     O_R   0.693280 0.995650 0.447220 -0.498854
O21   O     O_R   0.657260 0.178740 0.451050 -0.480852
O22   O     O_R   0.502640 0.195380 0.446850 -0.508801
O23   O     O_R   0.319630 0.976590 0.450330 -0.492613
O24   O     O_R   0.303680 0.807790 0.552740 -0.509922
O25   O     O_R   0.522820 0.843620 0.549310 -0.531205
O26   O     O_R   0.694060 0.998080 0.553560 -0.446946
O27   O     O_3   0.676064 0.148067 0.281825 -0.692953
H21   H     H_    0.644530 0.084787 0.257913 0.341115
O28   O     O_3   0.480227 0.791733 0.177705 -0.698554
H22   H     H_    0.407392 0.755647 0.195537 0.322782
O29   O     O_3   0.863743 0.389543 0.760980 -0.711634
H23   H     H_    0.934067 0.445735 0.778137 0.321761
O30   O     O_3   0.712819 0.192538 0.179517 -0.690238
H24   H     H_    0.753608 0.160765 0.197391 0.334010
C79   C     C_3   0.445593 0.278463 0.632216 -0.265369
C80   C     C_3   0.371298 0.297209 0.668801 -0.470878
H25   H     H_    0.329513 0.224125 0.693673 0.154399
H26   H     H_    0.422568 0.377001 0.689823 0.147597
H27   H     H_    0.303034 0.303332 0.649322 0.151908
H28   H     H_    0.481786 0.350219 0.606569 0.161306
H29   H     H_    0.385013 0.200029 0.612404 0.184974
O31   O     O_3   0.885237 0.709758 0.840625 -0.693395
H30   H     H_    0.836321 0.693707 0.811634 0.319979
C81   C     C_3   0.287033 0.852083 0.887300 -0.280551
C82   C     C_3   0.409662 0.901020 0.869669 -0.435891
H31   H     H_    0.417036 0.839659 0.845163 0.152988
H32   H     H_    0.438257 0.982578 0.850892 0.150017
H33   H     H_    0.466850 0.917710 0.901167 0.167772
H34   H     H_    0.285219 0.913899 0.913450 0.143259
H35   H     H_    0.263664 0.772844 0.907143 0.161695
O32   O     O_3   0.069065 0.673887 0.598320 -0.691239
H36   H     H_    0.087039 0.701252 0.564707 0.332039
C83   C     C_3   0.460316 0.663595 0.608240 -0.245154
C84   C     C_3   0.430754 0.546532 0.626367 -0.462723
H37   H     H_    0.509662 0.542667 0.632747 0.165360
H38   H     H_    0.380213 0.526224 0.660083 0.147625
H39   H     H_    0.378227 0.481221 0.598744 0.144625
H40   H     H_    0.382522 0.671447 0.608330 0.185859
H41   H     H_    0.488587 0.665243 0.570445 0.166756
C85   C     C_3   0.665891 0.527764 0.198895 -0.275273
C86   C     C_3   0.544536 0.492453 0.183310 -0.421954
H42   H     H_    0.513551 0.423219 0.155747 0.164902
H43   H     H_    0.486449 0.462762 0.214836 0.151352
H44   H     H_    0.542452 0.565823 0.167314 0.160828
H45   H     H_    0.698453 0.601647 0.223797 0.154437
H46   H     H_    0.723164 0.560794 0.167191 0.140217
O33   O     O_3   0.748248 0.980769 0.882267 -0.686238
H47   H     H_    0.761984 0.050204 0.865190 0.322918
O34   O     O_3   0.840579 0.975021 0.721177 -0.716404
H48   H     H_    0.907511 0.001322 0.699778 0.338428
O35   O     O_3   0.828102 0.028448 0.622297 -0.689412
H49   H     H_    0.866080 0.090133 0.646729 0.323045
C87   C     C_3   0.646685 0.492497 0.306375 -0.269749
C88   C     C_3   0.761091 0.588491 0.324623 -0.434416
H50   H     H_    0.806048 0.553557 0.345724 0.161092
H51   H     H_    0.815632 0.637723 0.293938 0.153492
H52   H     H_    0.747033 0.646716 0.348414 0.138036
H53   H     H_    0.597940 0.528233 0.289085 0.151024
H54   H     H_    0.593715 0.446178 0.337891 0.144827
C89   C     C_3   0.095687 0.985177 0.191323 -0.276516
C90   C     C_3   0.073788 0.064013 0.223863 -0.445365
H55   H     H_    0.004554 0.014068 0.249878 0.153737
H56   H     H_    0.152687 0.124705 0.243609 0.153475
H57   H     H_    0.046915 0.113595 0.201264 0.157335
H58   H     H_    0.164242 0.038350 0.165528 0.159618
H59   H     H_    0.016942 0.931896 0.169924 0.146015
O36   O     O_3   0.471832 0.831229 0.280978 -0.709630
H60   H     H_    0.442660 0.864753 0.257306 0.333356

loop_
_geom_bond_atom_site_label_1
_geom_bond_atom_site_label_2
_ccdc_geom_bond_type
Cr5   O16   S    
C48   C55   S    
C66   C68   A    
C21   C26   A    
Cr3   O3    S    
C83   C84   S    
Cr2   O2    S    
Cr3   O22   S    
C15   C18   S    
C59   C83   S    
C41   C42   A    
Cr5   O9    S    
C19   C71   S    
C35   C36   A    
C24   C27   A    
Cr1   O24   S    
C60   H15   S    
C13   C16   A    
C88   H50   S    
C82   H31   S    
O29   H23   S    
C66   C70   A    
C77   C78   A    
Cr6   O19   S    
C74   O15   A    
C86   H42   S    
C65   O33   S    
Cr4   O6    S    
C21   C22   A    
C85   C86   S    
C80   H26   S    
C38   C42   A    
C10   C15   A    
C82   H32   S    
C5    C6    S    
C90   H56   S    
C12   O22   A    
Cr2   O21   S    
Cr6   O18   S    
C65   C70   A    
C23   O1    A    
C72   O10   A    
C40   H7    S    
C89   C90   S    
Cr1   O1    S    
C77   O27   S    
Cr5   O15   S    
C35   C42   S    
C56   O4    A    
C44   C50   A    
C84   H39   S    
C17   C19   T    
C54   C55   A    
C85   H46   S    
C40   C43   A    
C47   C48   A    
C34   O25   A    
C16   C17   S    
C71   O7    A    
Cr2   O5    S    
Cr6   O10   S    
C80   H27   S    
C1    O12   A    
C13   H19   S    
C89   H58   S    
C24   H1    S    
C83   H41   S    
C54   H12   S    
C36   H8    S    
C64   H14   S    
Cr3   O4    S    
C59   C60   A    
C86   H43   S    
Cr1   O12   S    
Cr3   O23   S    
C84   H38   S    
C66   H17   S    
C85   H45   S    
C81   H35   S    
C4    C7    S    
C44   C46   A    
C20   C29   T    
C43   C75   S    
C74   O14   A    
C12   C67   S    
C8    C72   S    
Cr2   O26   S    
Cr1   O5    S    
C22   O28   S    
C51   C52   A    
C88   H52   S    
C37   C79   S    
C10   H18   S    
C80   H25   S    
C52   C57   A    
C82   H33   S    
C2    C85   S    
C30   C73   S    
C53   C57   A    
C68   C69   A    
C90   H57   S    
C6    C8    T    
C12   O21   A    
C25   C26   A    
O34   H48   S    
C62   O34   S    
C49   H13   S    
C72   O9    A    
C53   C81   S    
C31   C37   A    
C32   C33   A    
C38   H4    S    
C60   C61   A    
C57   C74   S    
C68   H16   S    
C62   C63   A    
C79   H28   S    
C44   C56   S    
C14   H20   S    
C31   C32   A    
C50   O32   S    
C53   C54   A    
C71   O8    A    
C64   C69   A    
C24   C25   A    
O33   H47   S    
C40   C41   A    
Cr3   O5    S    
C49   C50   A    
Cr6   O11   S    
C22   C27   A    
C84   H37   S    
C70   C76   S    
O28   H22   S    
C89   H59   S    
C58   C59   A    
C2    C5    A    
C81   H34   S    
Cr4   O14   S    
C3    C4    A    
C78   O30   S    
Cr4   O19   S    
C41   O29   S    
C45   O2    A    
C23   O23   A    
O31   H30   S    
Cr2   O20   S    
C61   C69   S    
C58   C63   A    
C46   C47   A    
C79   H29   S    
C1    C20   S    
C52   O31   S    
C75   O17   A    
C9    C23   S    
C11   C89   S    
O27   H21   S    
C88   H51   S    
C79   C80   S    
C63   O35   S    
C86   H44   S    
O30   H24   S    
C76   O13   A    
C73   O11   A    
C76   O18   A    
Cr4   O7    S    
C28   C30   T    
C2    C3    A    
Cr6   O17   S    
C1    O20   A    
C4    C77   A    
O35   H49   S    
C87   H54   S    
C33   H6    S    
C64   C65   A    
C73   O6    A    
C32   H3    S    
C90   H55   S    
C38   C39   A    
C46   H9    S    
C48   C49   A    
Cr5   O8    S    
C25   H2    S    
C33   C35   A    
C51   C55   A    
C81   C82   S    
C56   O24   A    
C75   O16   A    
C3    C87   S    
C61   C62   A    
O36   H60   S    
C11   C16   A    
C21   O36   S    
C10   C11   A    
C51   H10   S    
C7    C67   T    
C45   O3    A    
C9    C18   T    
C34   O26   A    
C26   C29   S    
C36   C37   A    
C87   C88   S    
C31   C45   S    
C39   C43   A    
O32   H36   S    
C34   C58   S    
C47   H11   S    
C14   C15   A    
Cr4   O13   S    
Cr5   O19   S    
C5    C78   A    
C13   C14   A    
C83   H40   S    
C39   H5    S    
C87   H53   S    
C27   C28   S    
Cr1   O25   S    
