data_mof_unit_58457.cif
_audit_creation_date              2012-12-11T14:45:31-0500
_audit_creation_method            fapswitch 2.2
_symmetry_space_group_name_H-M    P1
_symmetry_Int_Tables_number       1
_space_group_crystal_system       triclinic
_cell_length_a                    25.329844
_cell_length_b                    7.309308
_cell_length_c                    13.475997
_cell_angle_alpha                 89.999934
_cell_angle_beta                  104.824262
_cell_angle_gamma                 89.999982
_cell_volume                      2411.94944362

loop_
_atom_site_label
_atom_site_type_symbol
_atom_type_description
_atom_site_fract_x
_atom_site_fract_y
_atom_site_fract_z
_atom_type_partial_charge
O1    O     O_R   0.319150 0.364170 0.330530 -0.530722
O2    O     O_R   0.680850 0.635830 0.669470 -0.521395
O3    O     O_R   0.180850 0.864170 0.169470 -0.530722
O4    O     O_R   0.819150 0.135830 0.830530 -0.521395
O5    O     O_R   0.210330 0.696850 0.354180 -0.530999
O6    O     O_R   0.789670 0.303150 0.645820 -0.537571
O7    O     O_R   0.289670 0.196850 0.145820 -0.530999
O8    O     O_R   0.710330 0.803150 0.854180 -0.537571
C1    C     C_R   0.196439 0.525809 0.377677 0.670368
C2    C     C_R   0.803928 0.473707 0.622799 0.670855
C3    C     C_R   0.303561 0.025809 0.122323 0.670367
C4    C     C_R   0.696072 0.973707 0.877201 0.670855
O9    O     O_R   0.320550 0.694110 0.341970 -0.519984
O10   O     O_R   0.679450 0.305890 0.658030 -0.531190
O11   O     O_R   0.179450 0.194110 0.158030 -0.519984
O12   O     O_R   0.820550 0.805890 0.841970 -0.531191
O13   O     O_R   0.291860 0.861000 0.157170 -0.534741
O14   O     O_R   0.708140 0.139000 0.842830 -0.528824
O15   O     O_R   0.208140 0.361000 0.342830 -0.534741
O16   O     O_R   0.791860 0.639000 0.657170 -0.528824
C5    C     C_R   0.340875 0.525960 0.366619 0.684933
C6    C     C_R   0.659365 0.474533 0.632815 0.685955
C7    C     C_R   0.159125 0.025960 0.133381 0.684933
C8    C     C_R   0.840635 0.974533 0.867185 0.685955
O17   O     O_3   0.240460 0.529330 0.189380 -0.369839
O18   O     O_3   0.759540 0.470670 0.810620 -0.369088
O19   O     O_3   0.259540 0.029330 0.310620 -0.369839
O20   O     O_3   0.740460 0.970670 0.689380 -0.369088
V1    V     V_3+5 0.251770 0.805510 0.261240 1.484043
V2    V     V_3+5 0.748230 0.194490 0.738760 1.476785
V3    V     V_3+5 0.248230 0.305510 0.238760 1.484044
V4    V     V_3+5 0.751770 0.694490 0.761240 1.476784
C9    C     C_R   0.102945 0.020188 0.066626 -0.075104
C10   C     C_R   0.896572 0.983855 0.934405 -0.077008
C11   C     C_R   0.397055 0.520187 0.433374 -0.075105
C12   C     C_R   0.603428 0.483855 0.565595 -0.077009
C13   C     C_R   0.961289 0.999418 0.104257 0.179937
C14   C     C_R   0.037792 0.020364 0.896904 0.177741
C15   C     C_R   0.538711 0.499421 0.395743 0.179937
C16   C     C_R   0.462208 0.520360 0.603096 0.177740
C17   C     C_R   0.907218 0.983193 0.041998 -0.010199
C18   C     C_R   0.092129 0.022280 0.958992 -0.019122
C19   C     C_R   0.592782 0.483196 0.458002 -0.010198
C20   C     C_R   0.407871 0.522276 0.541008 -0.019120
C21   C     C_R   0.939394 0.000944 0.887975 -0.209530
C22   C     C_R   0.059905 0.016794 0.113317 -0.210267
C23   C     C_R   0.560605 0.500942 0.612025 -0.209530
C24   C     C_R   0.440095 0.516796 0.386684 -0.210268
C25   C     C_R   0.994102 0.010712 0.946085 0.085848
C26   C     C_R   0.005098 0.009361 0.055255 0.082242
C27   C     C_R   0.505898 0.510710 0.553915 0.085847
C28   C     C_R   0.494902 0.509362 0.444745 0.082242
H1    H     H_    0.070509 0.019129 0.196272 0.098851
H2    H     H_    0.928693 0.004930 0.805032 0.099222
H3    H     H_    0.429491 0.519133 0.303728 0.098851
H4    H     H_    0.571306 0.504925 0.694968 0.099222
H5    H     H_    0.126286 0.025275 0.924611 0.121487
H6    H     H_    0.873114 0.972631 0.076246 0.118501
H7    H     H_    0.373713 0.525269 0.575389 0.121490
H8    H     H_    0.626886 0.472636 0.423754 0.118501
C29   C     C_R   0.663128 0.978433 0.952751 -0.036581
C30   C     C_R   0.336071 0.017215 0.046355 -0.036243
C31   C     C_R   0.836872 0.478433 0.547249 -0.036581
C32   C     C_R   0.163929 0.517215 0.453645 -0.036243
C33   C     C_R   0.657796 0.951201 0.128285 -0.077808
C34   C     C_R   0.340334 0.990815 0.870290 -0.077369
C35   C     C_R   0.842204 0.451200 0.371715 -0.077807
C36   C     C_R   0.159665 0.490815 0.629710 -0.077368
C37   C     C_R   0.688386 0.950637 0.056089 -0.182716
C38   C     C_R   0.309976 0.997610 0.942816 -0.181475
C39   C     C_R   0.811614 0.450637 0.443911 -0.182717
C40   C     C_R   0.190024 0.497610 0.557184 -0.181477
C41   C     C_R   0.606209 0.998628 0.920863 -0.186726
C42   C     C_R   0.393203 0.021439 0.077989 -0.186789
C43   C     C_R   0.893791 0.498628 0.579136 -0.186726
C44   C     C_R   0.106797 0.521439 0.422011 -0.186789
C45   C     C_R   0.573327 0.994076 0.992327 0.061072
C46   C     C_R   0.425671 0.010317 0.006090 0.062548
C47   C     C_R   0.926672 0.494076 0.507673 0.061072
C48   C     C_R   0.074329 0.510317 0.493909 0.062548
C49   C     C_R   0.600758 0.978607 0.099050 -0.006220
C50   C     C_R   0.397839 0.004862 0.899357 -0.008109
C51   C     C_R   0.899242 0.478606 0.400949 -0.006220
C52   C     C_R   0.102161 0.504863 0.600643 -0.008109
C53   C     C_R   0.514556 0.003395 0.961029 -0.031107
C54   C     C_R   0.484407 0.004709 0.037135 -0.028601
C55   C     C_R   0.985443 0.503395 0.538970 -0.031107
C56   C     C_R   0.015593 0.504708 0.462865 -0.028600
C57   C     C_R   0.513780 0.998917 0.142127 -0.284455
C58   C     C_R   0.485027 0.009720 0.855991 -0.282930
C59   C     C_R   0.986220 0.498915 0.357873 -0.284455
C60   C     C_R   0.014972 0.509722 0.644008 -0.282930
C61   C     C_R   0.570848 0.989026 0.174142 0.405752
C62   C     C_R   0.427758 0.013055 0.824202 0.407458
C63   C     C_R   0.929152 0.489024 0.325858 0.405750
C64   C     C_R   0.072242 0.513057 0.675798 0.407458
H9    H     H_    0.410559 0.035306 0.159300 0.103162
H10   H     H_    0.589244 0.016488 0.839675 0.103719
H11   H     H_    0.089441 0.535306 0.340700 0.103163
H12   H     H_    0.910755 0.516489 0.660325 0.103719
H13   H     H_    0.265849 0.987980 0.917948 0.124750
H14   H     H_    0.732114 0.928755 0.081089 0.125513
H15   H     H_    0.234151 0.487979 0.582052 0.124751
H16   H     H_    0.767886 0.428755 0.418911 0.125513
H17   H     H_    0.679488 0.925410 0.207023 0.201086
H18   H     H_    0.317967 0.970737 0.791432 0.202589
H19   H     H_    0.820512 0.425409 0.292977 0.201087
H20   H     H_    0.182033 0.470737 0.708568 0.202589
H21   H     H_    0.493250 0.000449 0.202572 0.178981
H22   H     H_    0.505562 0.011336 0.795500 0.178223
H23   H     H_    0.006749 0.500446 0.297428 0.178981
H24   H     H_    0.994438 0.511338 0.704499 0.178223
C65   C     C_3   0.974218 0.007244 0.221975 -0.316468
C66   C     C_3   0.927300 0.984126 0.274254 -0.280650
C67   C     C_3   0.948145 0.991133 0.390515 -0.803484
H25   H     H_    0.978877 0.882057 0.417096 0.244756
H26   H     H_    0.966840 0.126268 0.414535 0.240332
H27   H     H_    0.913794 0.969657 0.426539 0.238241
H28   H     H_    0.895273 0.087833 0.251457 0.247548
H29   H     H_    0.908068 0.851682 0.254485 0.270310
H30   H     H_    0.003703 0.895533 0.252588 0.177971
H31   H     H_    0.994466 0.140381 0.247143 0.183392
C68   C     C_3   0.024335 0.024468 0.779029 -0.321411
C69   C     C_3   0.071511 0.022819 0.726609 -0.287620
C70   C     C_3   0.050508 0.007907 0.610613 -0.798892
H32   H     H_    0.026431 0.880741 0.590051 0.244696
H33   H     H_    0.024559 0.127734 0.580581 0.241636
H34   H     H_    0.085390 0.004599 0.574739 0.237540
H35   H     H_    0.096130 0.147217 0.742256 0.246445
H36   H     H_    0.098378 0.906873 0.753349 0.271649
H37   H     H_    0.999111 0.901656 0.750355 0.191371
H38   H     H_    0.999315 0.148407 0.752054 0.172269
C71   C     C_3   0.525781 0.507248 0.278025 -0.316467
C72   C     C_3   0.572700 0.484131 0.225746 -0.280651
C73   C     C_3   0.551855 0.491135 0.109485 -0.803484
H39   H     H_    0.521124 0.382057 0.082905 0.244757
H40   H     H_    0.533159 0.626269 0.085464 0.240332
H41   H     H_    0.586206 0.469661 0.073461 0.238241
H42   H     H_    0.604726 0.587841 0.248542 0.247548
H43   H     H_    0.591933 0.351689 0.245517 0.270311
H44   H     H_    0.496297 0.395537 0.247413 0.177972
H45   H     H_    0.505533 0.640385 0.252857 0.183391
C74   C     C_3   0.475665 0.524464 0.720971 -0.321411
C75   C     C_3   0.428489 0.522814 0.773391 -0.287620
C76   C     C_3   0.449492 0.507905 0.889387 -0.798894
H46   H     H_    0.473570 0.380740 0.909951 0.244696
H47   H     H_    0.475440 0.627734 0.919418 0.241637
H48   H     H_    0.414610 0.504596 0.925261 0.237541
H49   H     H_    0.403869 0.647211 0.757744 0.246446
H50   H     H_    0.401622 0.406867 0.746652 0.271651
H51   H     H_    0.500889 0.401652 0.749645 0.191370
H52   H     H_    0.500685 0.648403 0.747946 0.172269
S1    S     S_3+6 0.602985 0.008782 0.309583 -0.089006
O21   O     O_2   0.563246 0.088663 0.363588 -0.351261
O22   O     O_2   0.621502 0.827723 0.357637 -0.368348
O23   O     O_3   0.658601 0.144053 0.330578 -0.550515
H53   H     H_    0.671793 0.153375 0.406238 0.352862
S2    S     S_3+6 0.395596 0.043281 0.689347 -0.085432
O24   O     O_2   0.436052 0.122452 0.636852 -0.350697
O25   O     O_2   0.375354 0.866154 0.637744 -0.369157
O26   O     O_3   0.340996 0.182722 0.670401 -0.549218
H54   H     H_    0.328821 0.200021 0.595064 0.352231
S3    S     S_3+6 0.897015 0.508778 0.190416 -0.089006
O27   O     O_2   0.936754 0.588657 0.136411 -0.351260
O28   O     O_2   0.878497 0.327718 0.142364 -0.368348
O29   O     O_3   0.841399 0.644050 0.169421 -0.550514
H55   H     H_    0.828207 0.653373 0.093761 0.352862
S4    S     S_3+6 0.104404 0.543284 0.810652 -0.085431
O30   O     O_2   0.063947 0.622457 0.863147 -0.350699
O31   O     O_2   0.124646 0.366158 0.862256 -0.369155
O32   O     O_3   0.159004 0.682724 0.829597 -0.549217
H56   H     H_    0.171177 0.700032 0.904934 0.352230

loop_
_geom_bond_atom_site_label_1
_geom_bond_atom_site_label_2
_ccdc_geom_bond_type
O17   V3    S    
C24   H3    S    
C55   C56   A    
O1    C5    A    
C50   C62   A    
C68   H38   S    
O19   V1    S    
C1    C32   S    
O13   V1    S    
O3    C7    A    
S3    O27   D    
C60   C64   A    
C48   C52   A    
C3    C30   S    
O15   V3    S    
C47   C55   A    
O26   H54   S    
C38   H13   S    
C68   C69   S    
C14   C25   A    
C34   C38   A    
C53   C54   A    
C44   H11   S    
O7    C3    A    
C71   H45   S    
C9    C18   A    
O9    V1    S    
O23   H53   S    
S3    O28   D    
O10   V2    S    
C17   H6    S    
C14   C18   A    
C72   H43   S    
O4    C8    A    
S4    O31   D    
C13   C65   S    
C20   H7    S    
C74   C75   S    
C57   H21   S    
O1    V3    S    
C30   C38   A    
C12   C23   A    
O2    V4    S    
C52   C64   A    
C59   H23   S    
O3    V1    S    
C75   H50   S    
S2    O26   S    
C1    O15   A    
S4    O32   S    
C3    O13   A    
C65   H31   S    
C2    C31   S    
C2    O16   A    
C67   H26   S    
C39   H16   S    
O2    C6    A    
C70   H34   S    
C64   S4    S    
C58   C62   A    
O14   V2    S    
C45   C49   A    
S1    O22   D    
C16   C20   A    
C14   C68   S    
C13   C26   A    
C36   C40   A    
C46   C54   A    
O11   C7    A    
C15   C28   A    
C45   C53   A    
O12   C8    A    
C55   C60   A    
S2    O25   D    
C9    C22   A    
O29   H55   S    
C10   C17   A    
C34   H18   S    
C11   C24   A    
C18   H5    S    
C33   H17   S    
C76   H47   S    
C66   C67   S    
C42   H9    S    
O5    V1    S    
C41   H10   S    
O7    V3    S    
C69   H36   S    
C27   C28   A    
C36   C52   A    
C73   H39   S    
S3    O29   S    
C72   H42   S    
O18   V4    S    
C60   H24   S    
C15   C19   A    
C7    C9    S    
C37   H14   S    
C57   C61   A    
C8    C10   S    
O8    V4    S    
O5    C1    A    
C75   H49   S    
C63   S3    S    
C34   C50   A    
C71   C72   S    
C49   C61   A    
C46   C50   A    
C33   C49   A    
C56   C59   A    
C21   C25   A    
O8    C4    A    
C67   H27   S    
C51   C63   A    
C32   C44   A    
O9    C5    A    
C10   C21   A    
C35   C51   A    
S1    O23   S    
C11   C20   A    
C23   H4    S    
O32   H56   S    
C73   H41   S    
C19   H8    S    
C74   H52   S    
O6    V2    S    
C31   C39   A    
C21   H2    S    
C70   H32   S    
C58   H22   S    
C76   H46   S    
C76   H48   S    
C6    C12   S    
C65   C66   S    
O16   V4    S    
C29   C37   A    
C73   H40   S    
S4    O30   D    
C68   H37   S    
C44   C48   A    
C75   C76   S    
C54   C57   A    
O6    C2    A    
C23   C27   A    
C53   C58   A    
O11   V3    S    
C72   C73   S    
C5    C11   S    
C40   H15   S    
O12   V4    S    
C16   C27   A    
C15   C71   S    
C22   C26   A    
C71   H44   S    
C29   C41   A    
O10   C6    A    
C61   S1    S    
O20   V2    S    
C48   C56   A    
C47   C51   A    
C4    C29   S    
C35   H19   S    
S2    O24   D    
C66   H28   S    
C31   C43   A    
C33   C37   A    
C22   H1    S    
C74   H51   S    
C43   H12   S    
C69   H35   S    
C35   C39   A    
C32   C40   A    
C13   C17   A    
O4    V2    S    
C59   C63   A    
C24   C28   A    
C65   H30   S    
C62   S2    S    
C25   C26   A    
C42   C46   A    
C16   C74   S    
C4    O14   A    
C70   H33   S    
C41   C45   A    
C30   C42   A    
C12   C19   A    
C36   H20   S    
S1    O21   D    
C43   C47   A    
C66   H29   S    
C67   H25   S    
C69   C70   S    
