data_mof_unit_59664.cif
_audit_creation_date              2013-03-05T15:53:43-0500
_audit_creation_method            fapswitch 2.2
_symmetry_space_group_name_H-M    P1
_symmetry_Int_Tables_number       1
_space_group_crystal_system       triclinic
_cell_length_a                    12.951841
_cell_length_b                    13.282555
_cell_length_c                    27.708608
_cell_angle_alpha                 94.799328
_cell_angle_beta                  89.860255
_cell_angle_gamma                 119.460653
_cell_volume                      4131.76073382

loop_
_atom_site_label
_atom_site_type_symbol
_atom_site_description
_atom_site_fract_x
_atom_site_fract_y
_atom_site_fract_z
_atom_type_partial_charge
O1    O     O_R   0.296680 0.802170 0.437540 -0.527645
O2    O     O_R   0.525380 0.838530 0.443500 -0.504761
C1    C     C_R   0.601627 0.928605 0.422990 0.557948
O3    O     O_R   0.702130 0.995190 0.446810 -0.504001
O4    O     O_R   0.661770 0.181390 0.458760 -0.509878
C2    C     C_R   0.601428 0.222122 0.440534 0.543619
O5    O     O_R   0.499820 0.198480 0.455280 -0.506025
O6    O     O_R   0.311660 0.976250 0.449080 -0.504839
C3    C     C_R   0.267958 0.876078 0.426238 0.539920
O7    O     O_R   0.297580 0.804960 0.544440 -0.492668
O8    O     O_R   0.526220 0.841130 0.542590 -0.493658
C4    C     C_R   0.627296 0.898296 0.564828 0.555715
O9    O     O_R   0.703030 0.997990 0.553710 -0.472749
O10   O     O_R   0.662610 0.183990 0.557860 -0.434778
C5    C     C_R   0.601414 0.224789 0.579171 0.580323
O11   O     O_R   0.500730 0.201280 0.562180 -0.531441
O12   O     O_R   0.312500 0.978850 0.548170 -0.500389
C6    C     C_R   0.271520 0.879236 0.563397 0.551682
Cr1   Cr    Cr6+3 0.416430 0.829200 0.492370 1.031575
Cr2   Cr    Cr6+3 0.674630 0.087020 0.504170 1.096110
Cr3   Cr    Cr6+3 0.408920 0.083740 0.503490 1.021478
O13   O     O_3   0.499990 0.999990 0.500010 -0.284861
C7    C     C_1   0.633594 0.267951 0.394476 -0.019429
C8    C     C_R   0.741859 0.423230 0.288618 -0.115842
C9    C     C_R   0.752805 0.440291 0.239343 -0.112952
C10   C     C_R   0.615448 0.235405 0.218484 -0.106077
C11   C     C_R   0.604293 0.218410 0.267759 -0.106598
C12   C     C_R   0.667232 0.312286 0.302907 0.025506
C13   C     C_R   0.689359 0.346548 0.204195 0.027871
C14   C     C_1   0.695565 0.367388 0.153891 -0.066021
C15   C     C_1   0.652469 0.293254 0.353384 -0.068478
C16   C     C_1   0.702938 0.394102 0.113012 -0.019986
H1    H     H_    0.790664 0.496412 0.315441 0.118918
H2    H     H_    0.809429 0.526861 0.228648 0.124529
H3    H     H_    0.565404 0.162499 0.191687 0.118018
H4    H     H_    0.546064 0.132186 0.278483 0.123164
C17   C     C_R   0.150053 0.743063 0.355861 -0.134722
C18   C     C_R   0.122359 0.727124 0.306161 0.019941
C19   C     C_R   0.100076 0.709668 0.205109 -0.013040
C20   C     C_R   0.073543 0.611351 0.228751 -0.126494
C21   C     C_R   0.081272 0.617694 0.279257 0.016835
C22   C     C_R   0.091099 0.701168 0.155108 -0.127435
H5    H     H_    0.064660 0.617356 0.135500 0.139547
H6    H     H_    0.142033 0.672060 0.374970 0.138205
H7    H     H_    0.045521 0.528730 0.207739 0.107221
C23   C     C_R   0.104443 0.795243 0.130712 0.000831
C24   C     C_R   0.210109 0.947816 0.357741 -0.133247
C25   C     C_R   0.182838 0.934699 0.308342 0.009209
C26   C     C_R   0.144163 0.825590 0.282073 0.045826
C27   C     C_R   0.201529 0.030788 0.284299 -0.130647
C28   C     C_R   0.185084 0.020066 0.234043 -0.130356
C29   C     C_R   0.151839 0.913696 0.207275 0.017232
C30   C     C_R   0.131502 0.816223 0.231523 0.055181
C31   C     C_R   0.136051 0.901994 0.156772 -0.135397
C32   C     C_R   0.201838 0.854028 0.380544 -0.006578
H8    H     H_    0.145059 0.974155 0.138008 0.117340
H9    H     H_    0.200346 0.095295 0.216064 0.108941
H10   H     H_    0.230939 0.114706 0.304293 0.112809
H11   H     H_    0.248082 0.033448 0.377258 0.136300
C33   C     C_R   0.681040 0.004120 0.344468 -0.141518
C34   C     C_R   0.685899 0.987639 0.294251 0.007497
C35   C     C_R   0.708534 0.948286 0.194806 0.009014
C36   C     C_R   0.774416 0.060318 0.218659 -0.133032
C37   C     C_R   0.763537 0.079784 0.268194 -0.130370
C38   C     C_R   0.729876 0.924987 0.147014 -0.130220
H12   H     H_    0.797445 0.994820 0.128263 0.129946
H13   H     H_    0.736271 0.089340 0.363502 0.126849
H14   H     H_    0.837471 0.131910 0.199415 0.109517
H15   H     H_    0.817792 0.166179 0.286318 0.115529
C39   C     C_R   0.672585 0.810435 0.124899 -0.005807
C40   C     C_R   0.530651 0.801023 0.345553 -0.125336
C41   C     C_R   0.535763 0.782780 0.295639 0.010747
C42   C     C_R   0.614490 0.876006 0.269881 0.060415
C43   C     C_R   0.466643 0.671803 0.271402 -0.128791
C44   C     C_R   0.478534 0.651949 0.222055 -0.128123
C45   C     C_R   0.559993 0.742930 0.196461 0.012820
C46   C     C_R   0.625976 0.856224 0.220146 0.061560
C47   C     C_R   0.582995 0.720951 0.148654 -0.137138
C48   C     C_R   0.605870 0.910484 0.370356 -0.005182
H16   H     H_    0.537842 0.632764 0.131424 0.129317
H17   H     H_    0.427298 0.564685 0.204347 0.108492
H18   H     H_    0.406872 0.599478 0.291003 0.104888
H19   H     H_    0.470139 0.728703 0.365116 0.134601
C49   C     C_R   0.740784 0.309229 0.652920 0.196541
C50   C     C_R   0.752439 0.324532 0.703938 0.002762
C51   C     C_R   0.774456 0.355649 0.805643 0.012454
C52   C     C_R   0.873977 0.380882 0.778499 -0.145937
C53   C     C_R   0.863291 0.365789 0.728158 -0.102254
C54   C     C_R   0.787093 0.381521 0.855701 -0.132523
H20   H     H_    0.874968 0.421984 0.873183 0.135618
H21   H     H_    0.960857 0.415236 0.796192 0.115023
H22   H     H_    0.943076 0.389114 0.708551 0.175887
C55   C     C_R   0.689531 0.368574 0.882167 -0.001857
C56   C     C_R   0.531939 0.254010 0.658192 -0.178150
C57   C     C_R   0.539133 0.262091 0.708542 -0.006941
C58   C     C_R   0.650921 0.298557 0.731504 0.011455
C59   C     C_R   0.436732 0.232692 0.736225 0.019990
C60   C     C_R   0.450844 0.246240 0.786926 -0.108132
C61   C     C_R   0.562201 0.288370 0.809694 -0.006662
C62   C     C_R   0.662141 0.312452 0.782227 0.060714
C63   C     C_R   0.576269 0.314773 0.859711 -0.135440
C64   C     C_R   0.628953 0.271196 0.630275 -0.008382
H23   H     H_    0.500670 0.302800 0.880557 0.127968
H24   H     H_    0.376345 0.227762 0.809402 0.113722
H25   H     H_    0.447361 0.226380 0.640037 0.147539
C65   C     C_1   0.223291 0.863222 0.610445 -0.002164
C66   C     C_R   0.063142 0.787358 0.720016 -0.103865
C67   C     C_R   0.047253 0.778453 0.769695 -0.115881
C68   C     C_R   0.259812 0.897943 0.785920 -0.111650
C69   C     C_R   0.275736 0.906534 0.736235 -0.109205
C70   C     C_R   0.177559 0.850696 0.703203 0.030831
C71   C     C_R   0.145568 0.833079 0.802674 0.026942
C72   C     C_1   0.127613 0.818373 0.853343 -0.063418
C73   C     C_1   0.196748 0.855570 0.652174 -0.055193
C74   C     C_1   0.102816 0.799238 0.894720 -0.017705
H26   H     H_    0.986765 0.743678 0.694813 0.128994
H27   H     H_    0.958479 0.727763 0.782370 0.118893
H28   H     H_    0.336313 0.940579 0.811079 0.118314
H29   H     H_    0.364678 0.955854 0.723512 0.120869
C75   C     C_1   0.647929 0.859085 0.608679 0.000491
C76   C     C_R   0.790324 0.864619 0.719586 -0.103017
C77   C     C_R   0.802697 0.850176 0.768292 -0.113308
C78   C     C_R   0.590861 0.717695 0.769247 -0.101455
C79   C     C_R   0.578446 0.732272 0.720554 -0.104788
C80   C     C_R   0.677938 0.806646 0.695715 0.037894
C81   C     C_R   0.702776 0.777841 0.793427 0.035765
C82   C     C_1   0.715076 0.768087 0.844257 -0.060256
C83   C     C_1   0.662758 0.832331 0.647571 -0.045863
C84   C     C_1   0.728198 0.761529 0.886768 -0.012118
H30   H     H_    0.867773 0.923228 0.700967 0.118559
H31   H     H_    0.889725 0.897139 0.786590 0.112165
H32   H     H_    0.513015 0.661473 0.788265 0.115245
H33   H     H_    0.490936 0.687930 0.702657 0.118757
O14   O     O_R   0.820790 0.857990 0.068830 -0.514816
O15   O     O_R   0.016700 0.827330 0.062850 -0.497533
C85   C     C_R   0.061081 0.770040 0.080198 0.547857
O16   O     O_R   0.041970 0.673520 0.060040 -0.520108
O17   O     O_R   0.817980 0.483660 0.048840 -0.495579
C86   C     C_R   0.716583 0.440907 0.067199 0.546304
O18   O     O_R   0.637200 0.461990 0.052510 -0.509664
O19   O     O_R   0.664790 0.681920 0.057970 -0.496607
C87   C     C_R   0.719253 0.783066 0.080594 0.558333
O20   O     O_R   0.815840 0.852920 0.961840 -0.504734
O21   O     O_R   0.012100 0.822630 0.963670 -0.511946
C88   C     C_R   0.057143 0.766675 0.941375 0.539084
O22   O     O_R   0.037010 0.668460 0.953040 -0.507380
O23   O     O_R   0.813390 0.478970 0.949660 -0.507164
C89   C     C_R   0.710129 0.432371 0.929719 0.538099
O24   O     O_R   0.632250 0.456930 0.945520 -0.523343
O25   O     O_R   0.660200 0.677230 0.958780 -0.490083
C90   C     C_R   0.749467 0.754524 0.936910 0.564965
Cr4   Cr    Cr6+3 0.914010 0.832750 0.013970 1.018876
Cr5   Cr    Cr6+3 0.922310 0.578600 0.003000 1.013661
Cr6   Cr    Cr6+3 0.656280 0.574630 0.003870 1.022081
O26   O     O_3   0.830870 0.661990 0.006950 -0.265129
N1    N     N_R   0.840970 0.331012 0.624247 0.072236
O27   O     O_R   0.871049 0.402598 0.590857 -0.333415
O28   O     O_R   0.894021 0.270246 0.627892 -0.340608
C91   C     C_3   0.314689 0.188165 0.711283 -0.273715
C92   C     C_3   0.209750 0.153546 0.744295 -0.439526
H34   H     H_    0.200454 0.084146 0.766615 0.161898
H35   H     H_    0.220816 0.230182 0.768008 0.149115
H36   H     H_    0.126571 0.119263 0.721680 0.150551
H37   H     H_    0.318614 0.256493 0.689539 0.153602
H38   H     H_    0.294078 0.110263 0.686195 0.151081
C93   C     C_3   0.045326 0.506369 0.302503 -0.278958
C94   C     C_3   0.151421 0.488405 0.310318 -0.439716
H39   H     H_    0.221676 0.562063 0.333885 0.153231
H40   H     H_    0.122609 0.407203 0.327952 0.141589
H41   H     H_    0.188390 0.480471 0.274894 0.148296
H42   H     H_    0.002058 0.505390 0.337226 0.140546
H43   H     H_    0.977432 0.430588 0.278859 0.144910

loop_
_geom_bond_atom_site_label_1
_geom_bond_atom_site_label_2
_geom_bond_distance
_ccdc_geom_bond_type
C52   C53   1.389941 A    
C56   H25   1.078923 S    
C93   H43   1.112412 S    
C81   C82   1.441444 S    
C52   H21   1.083950 S    
C78   H32   1.083770 S    
C39   C47   1.401056 A    
C49   C64   1.406591 A    
C35   C46   1.409063 A    
C57   C58   1.413799 A    
C76   H30   1.083936 S    
O24   Cr6   2.062974 S    
C1    C48   1.463503 S    
C40   C48   1.406447 A    
C88   O22   1.268797 A    
C78   C79   1.399688 A    
C94   H40   1.110265 S    
O4    Cr2   1.911133 S    
O8    Cr1   1.932509 S    
C10   C11   1.398051 A    
C35   C36   1.403014 A    
C79   H33   1.083827 S    
C65   C73   1.203651 T    
C59   C91   1.530796 S    
N1    O27   1.301116 A    
C17   C18   1.396019 A    
C45   C47   1.395566 A    
C84   C90   1.436535 S    
C91   C92   1.531338 S    
O4    C2    1.273634 A    
C50   C58   1.422752 A    
C47   H16   1.084422 S    
O19   Cr6   1.943956 S    
O15   Cr4   1.930758 S    
C55   C89   1.455272 S    
C22   C23   1.405894 A    
C69   C70   1.403257 A    
O23   C89   1.268544 A    
C4    C75   1.436476 S    
C49   C50   1.409006 A    
C53   H22   1.081426 S    
C33   H13   1.084712 S    
O6    C3    1.269385 A    
C80   C83   1.441555 S    
C66   C67   1.397532 A    
C3    C32   1.455597 S    
Cr5   O26   1.977589 S    
C51   C62   1.409815 A    
C35   C38   1.392705 A    
C9    H2    1.083659 S    
O20   C90   1.292651 A    
C93   H42   1.110028 S    
C63   H23   1.084944 S    
Cr3   O13   1.977425 S    
C43   H18   1.082063 S    
C71   C72   1.436302 S    
C29   C31   1.399270 A    
C68   H28   1.083423 S    
C59   C60   1.402155 A    
C19   C22   1.381108 A    
C40   H19   1.084111 S    
C9    C13   1.403081 A    
C20   H7    1.085052 S    
C31   H8    1.084295 S    
O1    Cr1   2.053070 S    
C39   C87   1.463708 S    
C43   C44   1.393380 A    
C28   C29   1.399826 A    
C27   H10   1.083748 S    
C92   H36   1.110690 S    
O10   Cr2   1.942126 S    
O15   C85   1.278021 A    
Cr1   O13   1.966743 S    
O1    C3    1.269404 A    
C8    C9    1.398176 A    
C16   C86   1.432499 S    
C41   C43   1.401606 A    
C68   C71   1.398856 A    
C55   C63   1.395951 A    
C19   C20   1.397576 A    
C18   C26   1.420443 A    
C51   C52   1.397135 A    
C44   H17   1.083703 S    
C78   C81   1.401533 A    
C34   C42   1.412986 A    
O5    Cr3   2.015259 S    
C24   H11   1.084522 S    
C5    O11   1.263930 A    
O12   Cr3   1.898139 S    
C91   H38   1.110874 S    
C33   C34   1.396468 A    
C7    C15   1.204550 T    
C77   C81   1.402671 A    
C34   C37   1.401487 A    
C44   C45   1.400723 A    
C82   C84   1.206927 T    
C76   C80   1.402187 A    
C13   C14   1.438062 S    
O14   C87   1.261319 A    
C61   C62   1.409149 A    
C91   H37   1.111401 S    
Cr4   O26   1.966354 S    
O7    Cr1   2.033274 S    
O8    C4    1.271960 A    
O14   Cr4   2.045667 S    
C21   C93   1.516207 S    
C23   C31   1.399519 A    
C75   C83   1.206926 T    
O12   C6    1.269624 A    
Cr6   O26   1.967337 S    
O16   Cr5   2.060571 S    
C27   C28   1.393997 A    
C37   H15   1.083952 S    
C45   C46   1.413523 A    
C76   C77   1.399459 A    
C18   C21   1.418231 A    
C28   H9    1.083628 S    
C94   H41   1.110785 S    
O17   Cr5   1.900784 S    
C25   C26   1.411455 A    
C61   C63   1.390646 A    
Cr2   O13   1.967945 S    
C38   H12   1.084506 S    
C93   C94   1.524682 S    
C22   H5    1.084650 S    
C1    O3    1.298580 A    
C77   H31   1.083950 S    
C94   H39   1.109916 S    
C29   C30   1.416433 A    
C24   C32   1.400961 A    
C50   C53   1.407566 A    
C36   H14   1.083680 S    
C20   C21   1.395788 A    
O9    Cr2   2.029760 S    
O2    Cr1   1.920145 S    
O25   C90   1.300413 A    
C66   C70   1.398829 A    
C67   H27   1.083888 S    
C12   C15   1.437728 S    
C8    C12   1.399011 A    
C41   C42   1.408817 A    
C24   C25   1.389447 A    
C51   C54   1.390960 A    
O6    Cr3   1.943751 S    
C69   H29   1.083885 S    
C86   O18   1.267078 A    
C57   C59   1.426730 A    
O11   Cr3   2.062638 S    
C2    O5    1.268771 A    
O3    Cr2   2.059342 S    
C11   H4    1.083962 S    
C74   C88   1.430516 S    
C8    H1    1.083414 S    
O21   C88   1.273686 A    
C92   H34   1.110202 S    
C17   H6    1.080522 S    
N1    O28   1.301256 A    
O2    C1    1.295564 A    
C40   C41   1.391125 A    
O21   Cr4   1.924216 S    
O19   C87   1.274572 A    
C14   C16   1.204770 T    
C49   N1    1.436244 S    
C19   C30   1.402126 A    
O22   Cr5   2.017471 S    
C6    C65   1.430595 S    
O7    C6    1.266154 A    
C26   C30   1.398603 A    
C2    C7    1.432048 S    
C58   C62   1.400627 A    
C92   H35   1.110619 S    
C25   C27   1.403179 A    
C70   C73   1.436310 S    
C89   O24   1.270084 A    
C5    C64   1.467120 S    
C54   C55   1.402467 A    
C56   C57   1.390094 A    
O23   Cr5   1.942244 S    
C66   H26   1.083460 S    
O17   C86   1.271791 A    
C23   C85   1.458444 S    
C36   C37   1.395018 A    
C17   C32   1.396837 A    
C67   C71   1.403171 A    
C10   H3    1.083422 S    
C4    O9    1.264775 A    
C56   C64   1.404266 A    
C10   C13   1.399402 A    
C60   C61   1.393836 A    
O25   Cr6   1.907163 S    
C11   C12   1.403072 A    
C42   C46   1.402567 A    
O10   C5    1.279547 A    
C85   O16   1.259198 A    
C54   H20   1.084584 S    
C68   C69   1.397365 A    
C60   H24   1.081112 S    
O20   Cr4   2.045401 S    
C38   C39   1.405996 A    
C33   C48   1.401448 A    
O18   Cr6   2.021892 S    
C79   C80   1.402625 A    
C72   C74   1.203675 T    
