data_mof_unit_56369.cif
_audit_creation_date              2012-12-11T16:37:33-0500
_audit_creation_method            fapswitch 2.2
_symmetry_space_group_name_H-M    P1
_symmetry_Int_Tables_number       1
_space_group_crystal_system       triclinic
_cell_length_a                    18.878256
_cell_length_b                    18.9019
_cell_length_c                    20.611609
_cell_angle_alpha                 107.263909
_cell_angle_beta                  106.615747
_cell_angle_gamma                 110.888782
_cell_volume                      5895.4756592

loop_
_atom_site_label
_atom_site_type_symbol
_atom_type_description
_atom_site_fract_x
_atom_site_fract_y
_atom_site_fract_z
_atom_type_partial_charge
C1    C     C_R   0.079245 0.087523 0.352328 -0.141449
C2    C     C_R   0.240747 0.073155 0.501846 0.017752
C3    C     C_R   0.161839 0.203007 0.718235 -0.205794
C4    C     C_R   0.754007 0.931028 0.462925 0.510529
C5    C     C_R   0.039642 0.792090 0.467598 -0.131014
C6    C     C_R   0.244390 0.235035 0.727250 -0.133049
C7    C     C_R   0.013419 0.755402 0.511084 0.114449
C8    C     C_R   0.248648 0.004283 0.465437 0.070920
C9    C     C_R   0.001439 0.979891 0.727495 -0.041299
C10   C     C_R   0.109360 0.512776 0.656004 0.628819
C11   C     C_R   0.087361 0.428075 0.636116 -0.254472
C12   C     C_R   0.745258 0.003850 0.473286 -0.074405
C13   C     C_R   0.082198 0.377500 0.567636 0.048109
C14   C     C_R   0.109462 0.414596 0.523775 -0.183433
C15   C     C_R   0.131361 0.498551 0.542916 -0.219487
C16   C     C_R   0.847013 0.777867 0.290098 -0.122497
C17   C     C_R   0.124705 0.545874 0.605286 -0.051951
C18   C     C_R   0.160836 0.681356 0.594128 0.499626
C19   C     C_R   0.129869 0.726980 0.564010 -0.206331
C20   C     C_R   0.045121 0.707009 0.541981 -0.011130
C21   C     C_R   0.991360 0.643056 0.552468 -0.340451
C22   C     C_R   0.019534 0.593725 0.578657 0.582481
C23   C     C_R   0.771873 0.726971 0.288682 0.040673
C24   C     C_R   0.104556 0.612386 0.599500 -0.257144
C25   C     C_R   0.520257 0.946275 0.359500 -0.196303
C26   C     C_R   0.594050 0.940332 0.378886 -0.184514
C27   C     C_R   0.670644 0.011379 0.435224 0.079809
C28   C     C_R   0.000267 0.235857 0.565994 -0.139351
C29   C     C_R   0.675289 0.091413 0.455654 -0.210003
C30   C     C_R   0.602767 0.098818 0.431201 0.506195
C31   C     C_R   0.523523 0.024609 0.392178 -0.032296
C32   C     C_R   0.467414 0.076668 0.479736 -0.335352
C33   C     C_R   0.401459 0.070146 0.499729 0.532501
C34   C     C_R   0.047513 0.286077 0.540571 0.079448
C35   C     C_R   0.318323 0.009916 0.445798 0.021099
C36   C     C_R   0.302191 0.957628 0.372939 -0.249250
C37   C     C_R   0.368104 0.966536 0.352793 -0.119174
C38   C     C_R   0.451473 0.025639 0.406293 0.076220
C39   C     C_R   0.319903 0.276460 0.799706 0.158825
C40   C     C_R   0.771287 0.771158 0.355077 -0.051863
C41   C     C_R   0.317204 0.316557 0.867407 -0.184667
C42   C     C_R   0.386989 0.352818 0.936144 -0.177994
C43   C     C_R   0.461222 0.350249 0.938522 0.244523
C44   C     C_R   0.464068 0.309996 0.871324 -0.186271
C45   C     C_R   0.239008 0.207887 0.654407 0.559539
C46   C     C_R   0.393306 0.271647 0.802376 -0.180747
C47   C     C_R   0.679572 0.502791 0.140820 0.530809
C48   C     C_R   0.737632 0.586783 0.193089 -0.223378
C49   C     C_R   0.594774 0.469798 0.131038 0.037790
C50   C     C_R   0.713527 0.636729 0.237615 0.046552
C51   C     C_R   0.632602 0.599712 0.233791 -0.178744
C52   C     C_R   0.072650 0.238177 0.497620 -0.153551
C53   C     C_R   0.574204 0.516697 0.181433 -0.211295
C54   C     C_R   0.084577 0.027184 0.227760 -0.137323
C55   C     C_R   0.106851 0.967752 0.191833 0.442644
C56   C     C_R   0.956878 0.779678 0.526584 -0.152592
C57   C     C_R   0.113681 0.962169 0.125120 0.465985
C58   C     C_R   0.109341 0.023326 0.099847 -0.016144
C59   C     C_R   0.096397 0.087072 0.140738 -0.219489
C60   C     C_R   0.083487 0.088832 0.203934 -0.208426
C61   C     C_R   0.168157 0.042498 0.917439 0.553530
C62   C     C_R   0.127369 0.041185 0.848423 -0.375895
C63   C     C_R   0.128026 0.975024 0.932021 0.135950
C64   C     C_R   0.825099 0.071763 0.524328 -0.198779
C65   C     C_R   0.045303 0.975475 0.796288 0.118988
C66   C     C_R   0.008714 0.905666 0.809362 -0.135040
C67   C     C_R   0.172121 0.933208 0.438071 -0.181006
C68   C     C_R   0.050624 0.904931 0.876327 -0.279439
C69   C     C_R   0.008377 0.946728 0.287267 -0.139179
C70   C     C_R   0.054065 0.020853 0.284549 0.102093
C71   C     C_3   0.810689 0.807782 0.595137 0.130474
C72   C     C_3   0.773591 0.849314 0.641730 -0.309631
C73   C     C_3   0.678058 0.808930 0.598365 -0.949140
C74   C     C_3   0.912485 0.458006 0.506959 0.167424
C75   C     C_3   0.862748 0.376735 0.510823 -0.234934
C76   C     C_3   0.810878 0.301718 0.432342 -0.969393
C77   C     C_3   0.239457 0.183756 0.998990 0.180555
C78   C     C_R   0.021336 0.053204 0.718859 -0.233874
C79   C     C_3   0.319960 0.251174 0.070668 -0.221567
C80   C     C_3   0.314653 0.331568 0.104795 -1.049373
C81   C     C_3   0.343797 0.321763 0.658276 0.155956
C82   C     C_3   0.289816 0.346882 0.608615 -0.351979
C83   C     C_3   0.337052 0.440546 0.628871 -0.949661
C84   C     C_R   0.949031 0.913682 0.655647 0.536923
H1    H     H_    0.124984 0.152887 0.372969 0.097057
H2    H     H_    0.142999 0.523180 0.503591 0.162489
H3    H     H_    0.172405 0.778581 0.558278 0.160813
H4    H     H_    0.925986 0.627967 0.536358 0.148823
H5    H     H_    0.460668 0.888308 0.325549 0.142707
H6    H     H_    0.589053 0.879093 0.352789 0.160984
H7    H     H_    0.734172 0.148961 0.493118 0.136729
H8    H     H_    0.531624 0.119169 0.522990 0.161580
H9    H     H_    0.874244 0.759007 0.253041 0.102639
H10   H     H_    0.238715 0.909833 0.331500 0.169372
H11   H     H_    0.354134 0.925565 0.296200 0.143401
H12   H     H_    0.919646 0.755060 0.552943 0.168813
H13   H     H_    0.801254 0.612673 0.198214 0.147878
H14   H     H_    0.521432 0.309107 0.872409 0.140728
H15   H     H_    0.396481 0.238605 0.751457 0.179772
H16   H     H_    0.612423 0.636272 0.267988 0.141589
H17   H     H_    0.384502 0.386647 0.987285 0.131471
H18   H     H_    0.509865 0.491935 0.174673 0.147704
H19   H     H_    0.980907 0.256870 0.609318 0.095137
H20   H     H_    0.262017 0.321747 0.867570 0.117824
H21   H     H_    0.159137 0.092605 0.836618 0.153884
H22   H     H_    0.091513 0.132896 0.120802 0.153612
H23   H     H_    0.151591 0.870368 0.396766 0.113066
H24   H     H_    0.067801 0.135462 0.231614 0.154016
H25   H     H_    0.946133 0.853791 0.770454 0.181698
H26   H     H_    0.018697 0.853925 0.888572 0.155477
H27   H     H_    0.731305 0.743665 0.378959 0.141969
H28   H     H_    0.119959 0.260793 0.478410 0.093018
H29   H     H_    0.843799 0.138130 0.546410 0.129804
H30   H     H_    0.987236 0.882848 0.247587 0.137374
H31   H     H_    0.774033 0.738101 0.572917 0.145107
H32   H     H_    0.803438 0.820095 0.544690 0.116971
H33   H     H_    0.788602 0.842548 0.695056 0.212262
H34   H     H_    0.054453 0.116054 0.764133 0.129255
H35   H     H_    0.802381 0.917852 0.656509 0.189711
H36   H     H_    0.661241 0.814591 0.544740 0.275333
H37   H     H_    0.653722 0.841546 0.633135 0.269213
H38   H     H_    0.647536 0.741030 0.585592 0.263888
H39   H     H_    0.131055 0.618553 0.730978 0.319923
H40   H     H_    0.643834 0.850966 0.441777 0.302716
H41   H     H_    0.260818 0.673770 0.643153 0.324389
H42   H     H_    0.951887 0.447008 0.477939 0.104759
H43   H     H_    0.867085 0.472633 0.473091 0.100129
H44   H     H_    0.907035 0.363314 0.547336 0.203474
H45   H     H_    0.281554 0.137535 0.514983 0.160160
H46   H     H_    0.819809 0.384874 0.536113 0.220526
H47   H     H_    0.765508 0.313265 0.394826 0.271433
H48   H     H_    0.774915 0.243865 0.436706 0.284568
H49   H     H_    0.853007 0.291051 0.407038 0.260549
H50   H     H_    0.556405 0.174137 0.423758 0.320211
H51   H     H_    0.478482 0.158175 0.602766 0.317575
H52   H     H_    0.665617 0.395507 0.076873 0.318967
H53   H     H_    0.184722 0.171564 0.013078 0.093874
H54   H     H_    0.232281 0.208454 0.956118 0.099506
H55   H     H_    0.330024 0.226163 0.113027 0.210529
H56   H     H_    0.142173 0.219388 0.761977 0.120107
H57   H     H_    0.374812 0.266667 0.057035 0.208255
H58   H     H_    0.305573 0.358450 0.063870 0.266049
H59   H     H_    0.374033 0.379150 0.156581 0.272465
H60   H     H_    0.261302 0.317756 0.120416 0.274263
H61   H     H_    0.082012 0.871082 0.030870 0.311574
H62   H     H_    0.136050 0.936958 0.273162 0.298207
H63   H     H_    0.404190 0.339980 0.653430 0.152608
H64   H     H_    0.360820 0.358334 0.718738 0.105019
H65   H     H_    0.271682 0.308582 0.548231 0.203460
H66   H     H_    0.231866 0.334330 0.617031 0.201065
H67   H     H_    0.082061 0.784574 0.443850 0.105516
H68   H     H_    0.354665 0.479919 0.688821 0.267685
H69   H     H_    0.295865 0.456525 0.592236 0.274102
H70   H     H_    0.394954 0.455232 0.619989 0.264235
H71   H     H_    0.071029 0.401419 0.672836 0.143060
H72   H     H_    0.107620 0.377356 0.471418 0.130048
N1    N     N_R   0.051550 0.054780 0.395070 -0.043278
N2    N     N_2   0.525732 0.402184 0.063175 -0.098819
N3    N     N_2   0.104509 0.016183 0.028615 -0.087504
N4    N     N_R   0.835860 0.954800 0.499920 -0.083897
N5    N     N_2   0.149017 0.988916 0.007292 -0.045688
N6    N     N_R   0.889940 0.849160 0.355180 -0.045436
N7    N     N_R   0.997480 0.160420 0.539810 -0.033438
N8    N     N_R   0.842280 0.845520 0.395070 -0.047938
N9    N     N_R   0.045130 0.164060 0.499920 -0.041038
N10   N     N_R   0.878630 0.041580 0.539810 -0.063671
N11   N     N_R   0.008780 0.968000 0.355180 -0.043346
N12   N     N_R   0.954870 0.835940 0.500080 -0.055193
N13   N     N_R   0.157720 0.154480 0.604930 -0.090783
N14   N     N_R   0.121370 0.958420 0.460190 -0.043739
N15   N     N_R   0.991220 0.032000 0.644820 -0.057959
N16   N     N_R   0.948450 0.945220 0.604930 -0.109404
N17   N     N_R   0.164140 0.045200 0.500080 -0.060433
N18   N     N_R   0.110060 0.150840 0.644820 -0.056062
N19   N     N_R   0.002520 0.839580 0.460190 -0.040781
N20   N     N_2   0.536825 0.400477 0.006083 -0.079886
Ni1   Ni    Ni4+2 0.103690 0.103690 0.500000 0.214488
Ni2   Ni    Ni4+2 0.896310 0.896310 0.500000 0.217838
Ni3   Ni    Ni4+2 0.005600 0.904650 0.408510 0.208617
Ni4   Ni    Ni4+2 0.994400 0.095350 0.591490 0.200429
O1    O     O_3   0.895203 0.832729 0.641181 -0.707115
O2    O     O_3   0.120610 0.894320 0.084873 -0.693057
O3    O     O_3   0.118592 0.911718 0.218059 -0.726053
O4    O     O_3   0.303651 0.233118 0.633453 -0.688808
O5    O     O_3   0.107501 0.558397 0.721061 -0.734750
O6    O     O_3   0.691252 0.849029 0.431282 -0.817616
O7    O     O_3   0.244863 0.703723 0.614425 -0.742387
O8    O     O_3   0.962999 0.524718 0.581093 -0.632656
O9    O     O_3   0.611120 0.178938 0.452990 -0.769943
O10   O     O_3   0.417030 0.118962 0.572329 -0.759323
O11   O     O_3   0.706767 0.456324 0.099017 -0.750833
O12   O     O_3   0.246309 0.109603 0.971956 -0.650383

loop_
_geom_bond_atom_site_label_1
_geom_bond_atom_site_label_2
_ccdc_geom_bond_type
C25   C31   A    
N12   N19   A    
C66   C68   A    
C46   H15   S    
C6    C45   A    
C27   C29   A    
N9    Ni1   S    
C41   C42   A    
C71   O1    S    
N11   Ni3   S    
C35   C36   A    
N15   N16   A    
C3    C6    A    
N4    N10   A    
N1    N11   A    
C81   C82   S    
C39   C41   A    
C62   H21   S    
C54   C60   A    
C48   H13   S    
C16   H9    S    
C29   C30   A    
H62   O3    S    
C18   C24   A    
H50   O9    S    
C36   C37   A    
N7    N9    A    
C77   H53   S    
C40   N8    A    
C19   H3    S    
C58   N3    S    
C2    N17   A    
C30   C31   A    
C12   C64   A    
C76   H47   S    
C49   C53   A    
C52   H28   S    
C10   C17   A    
C23   C40   A    
C18   O7    S    
C11   C13   A    
C2    H45   S    
C37   H11   S    
C15   C17   A    
C75   H44   S    
C30   O9    S    
C4    O6    S    
C61   C63   A    
C64   N10   A    
C34   C52   A    
C63   C68   A    
C44   H14   S    
C47   C48   A    
C81   H63   S    
C72   H33   S    
C61   O12   S    
N13   N18   A    
N3    N5    D    
C32   C38   A    
C4    C12   A    
N6    N8    A    
C60   H24   S    
C75   H46   S    
C11   H71   S    
C14   H72   S    
C80   H59   S    
C48   C50   A    
C21   H4    S    
C28   C34   A    
C59   C60   A    
C73   H36   S    
C21   C22   A    
C47   O11   S    
C5    N19   A    
C61   C62   A    
C7    C56   A    
N13   Ni1   S    
C57   O2    S    
C44   C46   A    
C40   H27   S    
C74   O8    S    
C77   C79   S    
C67   N14   A    
C1    H1    S    
C69   H30   S    
C17   C24   S    
C74   C75   S    
H52   O11   S    
C59   H22   S    
C77   H54   S    
C47   C49   A    
C79   H55   S    
C83   H70   S    
C18   C19   A    
C23   C50   S    
N19   Ni3   S    
C12   C27   S    
C80   H60   S    
C25   C26   A    
H61   O2    S    
C33   O10   S    
C51   C53   A    
C8    C35   S    
H39   O5    S    
C75   C76   S    
C69   N11   A    
H51   O10   S    
C37   C38   A    
C74   H42   S    
C52   N9    A    
C43   N20   S    
N1    Ni1   S    
C3    N18   A    
C74   H43   S    
C54   C70   S    
N17   Ni1   S    
C53   H18   S    
C81   H64   S    
C56   N12   A    
C50   C51   A    
C26   C27   A    
C71   H31   S    
C68   H26   S    
N4    Ni2   S    
N6    Ni3   S    
C82   H66   S    
C39   C46   A    
N2    N20   D    
C82   C83   S    
C16   C23   A    
C73   H37   S    
C55   C57   A    
C43   C44   A    
C22   C24   A    
N15   Ni4   S    
N10   Ni4   S    
C42   C43   A    
C42   H17   S    
N18   Ni4   S    
C29   H7    S    
N8    Ni2   S    
C5    C7    A    
C83   H68   S    
N16   Ni2   S    
C51   H16   S    
C63   N5    S    
C54   C55   A    
C84   O1    S    
C64   H29   S    
C62   C65   A    
C78   H34   S    
C14   C15   A    
C77   O12   S    
C25   H5    S    
C73   H38   S    
C2    C8    A    
C1    C70   A    
C72   C73   S    
C84   N16   A    
C45   N13   A    
C4    N4    A    
C15   H2    S    
C76   H49   S    
C41   H20   S    
C83   H69   S    
C26   H6    S    
C80   H58   S    
C10   O5    S    
C5    H67   S    
C31   C38   S    
N14   Ni3   S    
H41   O7    S    
C16   N6    A    
C32   C33   A    
C19   C20   A    
C1    N1    A    
C58   C59   A    
C71   C72   S    
H40   O6    S    
C76   H48   S    
C28   H19   S    
C67   H23   S    
C57   C58   A    
C79   H57   S    
N12   Ni2   S    
C72   H35   S    
C78   N15   A    
C33   C35   A    
C71   H32   S    
C56   H12   S    
C9    C78   A    
C65   C66   A    
C66   H25   S    
C22   O8    S    
C69   C70   A    
C49   N2    S    
C9    C65   S    
C82   H65   S    
C10   C11   A    
C32   H8    S    
C9    C84   A    
C79   C80   S    
C36   H10   S    
C13   C34   S    
C20   C21   A    
C45   O4    S    
C8    C67   A    
C7    C20   S    
N7    Ni4   S    
C55   O3    S    
C6    C39   S    
C3    H56   S    
C81   O4    S    
C13   C14   A    
C28   N7    A    
N14   N17   A    
