data_mof_unit_33749.cif
_audit_creation_date              2013-03-05T15:50:35-0500
_audit_creation_method            fapswitch 2.2
_symmetry_space_group_name_H-M    P1
_symmetry_Int_Tables_number       1
_space_group_crystal_system       triclinic
_cell_length_a                    12.074761
_cell_length_b                    12.821204
_cell_length_c                    13.650515
_cell_angle_alpha                 91.024259
_cell_angle_beta                  80.570819
_cell_angle_gamma                 94.56868
_cell_volume                      2078.07493229

loop_
_atom_site_label
_atom_site_type_symbol
_atom_site_description
_atom_site_fract_x
_atom_site_fract_y
_atom_site_fract_z
_atom_type_partial_charge
O1    O     O_R   0.421240 0.658850 0.504760 -0.597237
O2    O     O_R   0.578760 0.341150 0.495240 -0.626873
O3    O     O_R   0.609960 0.646370 0.493320 -0.602273
O4    O     O_R   0.390040 0.353630 0.506680 -0.630992
C1    C     C_R   0.523226 0.700095 0.496247 0.925232
C2    C     C_R   0.476745 0.300020 0.505159 0.926112
O5    O     O_R   0.392060 0.507120 0.646890 -0.602913
O6    O     O_R   0.607940 0.492880 0.353110 -0.596215
O7    O     O_R   0.580780 0.494630 0.635450 -0.613655
O8    O     O_R   0.419220 0.505370 0.364550 -0.639524
C3    C     C_R   0.481182 0.500488 0.686257 0.897629
C4    C     C_R   0.518780 0.498697 0.313699 0.890025
Zn1   Zn    Zn3+2 0.373990 0.508340 0.507630 0.959931
Zn2   Zn    Zn3+2 0.626010 0.491660 0.492370 0.964124
C5    C     C_1   0.532486 0.506484 0.210268 -0.201995
C6    C     C_1   0.467851 0.490378 0.789403 -0.187187
C7    C     C_2   0.543752 0.523566 0.019022 0.166029
C8    C     C_2   0.460441 0.469907 0.979754 0.171590
C9    C     C_1   0.460617 0.480026 0.876341 -0.011680
C10   C     C_1   0.541357 0.515013 0.122972 -0.016569
C11   C     C_R   0.464447 0.188944 0.496845 -0.110073
C12   C     C_R   0.539424 0.811773 0.496061 -0.135521
C13   C     C_R   0.596642 0.964045 0.585236 0.351366
C14   C     C_R   0.446914 0.045700 0.383252 0.342085
C15   C     C_R   0.596815 0.857936 0.567559 -0.319672
C16   C     C_R   0.432556 0.148780 0.409746 -0.268045
C17   C     C_R   0.487223 0.871124 0.433897 0.182724
C18   C     C_R   0.512913 0.128245 0.560221 0.149032
C19   C     C_R   0.490496 0.980287 0.447801 -0.070778
C20   C     C_R   0.534479 0.024976 0.531700 -0.069880
H1    H     H_    0.404573 0.200274 0.358044 0.177536
H2    H     H_    0.637784 0.810264 0.613533 0.191595
N1    N     N_R   0.206090 0.519450 0.517820 -0.155731
N2    N     N_R   0.793910 0.480550 0.482180 -0.136868
C21   C     C_R   0.953540 0.380687 0.432267 0.239931
C22   C     C_R   0.039181 0.598473 0.595111 0.236942
C23   C     C_R   0.839207 0.395618 0.436465 -0.118098
C24   C     C_R   0.155507 0.587532 0.584509 -0.078478
C25   C     C_R   0.857363 0.552388 0.529597 0.325072
C26   C     C_R   0.143034 0.456126 0.461477 0.326845
C27   C     C_R   0.972248 0.536324 0.535733 -0.158624
C28   C     C_R   0.023325 0.456121 0.476761 -0.118925
H3    H     H_    0.206026 0.633207 0.630840 0.185173
H4    H     H_    0.785375 0.337971 0.404105 0.196427
N3    N     N_2   0.374877 0.403149 0.039225 -0.323650
H5    H     H_    0.402318 0.360055 0.092382 0.236881
C29   C     C_3   0.289718 0.346647 0.991148 -0.672168
H6    H     H_    0.226946 0.303559 0.047742 0.253455
H7    H     H_    0.328978 0.289436 0.936744 0.247708
H8    H     H_    0.244857 0.402016 0.953073 0.253877
N4    N     N_2   0.631201 0.588702 0.959624 -0.299266
H9    H     H_    0.608760 0.625502 0.900075 0.240155
C30   C     C_3   0.709864 0.652226 0.009535 -0.622212
H10   H     H_    0.774518 0.694036 0.953540 0.272356
H11   H     H_    0.753621 0.602124 0.054045 0.244785
H12   H     H_    0.664856 0.710913 0.058418 0.231364
N5    N     N_2   0.517055 0.164499 0.659413 -0.332897
H13   H     H_    0.488442 0.110524 0.714753 0.252309
C31   C     C_3   0.612112 0.234374 0.677405 -0.570325
H14   H     H_    0.653104 0.201941 0.736041 0.264640
H15   H     H_    0.581681 0.310173 0.704987 0.218779
H16   H     H_    0.676269 0.246826 0.609568 0.267688
N6    N     N_2   0.415943 0.819289 0.371154 -0.292440
H17   H     H_    0.340962 0.850131 0.365619 0.255311
C32   C     C_3   0.467246 0.761531 0.285793 -0.639308
H18   H     H_    0.463202 0.803578 0.216413 0.275926
H19   H     H_    0.418460 0.685158 0.282520 0.226497
H20   H     H_    0.556487 0.748694 0.289267 0.216118
N7    N     N_R   0.668394 0.009005 0.650979 0.197129
O9    O     O_R   0.658063 0.973206 0.740880 -0.376656
O10   O     O_R   0.761257 0.062501 0.613414 -0.350910
N8    N     N_R   0.434931 0.014812 0.283966 0.194936
O11   O     O_R   0.344115 0.033527 0.249681 -0.364818
O12   O     O_R   0.524230 0.994133 0.221730 -0.369136
N9    N     N_2   0.197558 0.397131 0.381160 -0.261706
H21   H     H_    0.271359 0.367822 0.390668 0.279050
C33   C     C_3   0.200021 0.441055 0.283750 -0.690693
H22   H     H_    0.240137 0.387484 0.226407 0.249118
H23   H     H_    0.248567 0.518598 0.277075 0.237973
H24   H     H_    0.113418 0.450365 0.269565 0.242919
N10   N     N_2   0.811323 0.648787 0.558869 -0.277139
H25   H     H_    0.794278 0.663497 0.633861 0.268422
C34   C     C_3   0.859846 0.737306 0.497457 -0.644111
H26   H     H_    0.951622 0.750808 0.498130 0.242839
H27   H     H_    0.820234 0.809271 0.525651 0.258772
H28   H     H_    0.845404 0.723409 0.419814 0.236488
N11   N     N_R   0.993798 0.284174 0.391167 0.231387
O13   O     O_R   0.048681 0.227411 0.441917 -0.325885
O14   O     O_R   0.958232 0.243838 0.312740 -0.361825
N12   N     N_R   0.990060 0.663553 0.674184 0.196251
O15   O     O_R   0.919724 0.620827 0.747650 -0.393209
O16   O     O_R   0.035356 0.757653 0.685232 -0.362373

loop_
_geom_bond_atom_site_label_1
_geom_bond_atom_site_label_2
_geom_bond_distance
_ccdc_geom_bond_type
N11   O13   1.301560 A    
N6    C32   1.447619 S    
C17   C19   1.407351 A    
N2    C23   1.353920 A    
C27   C28   1.412284 A    
C13   N7    1.430037 S    
O7    Zn2   1.940499 S    
C7    N4    1.439788 S    
N10   H25   1.027662 S    
N12   O15   1.301352 A    
C25   C27   1.434582 A    
C33   H22   1.108451 S    
O5    C3    1.288315 A    
O1    C1    1.288876 A    
C21   C23   1.400579 A    
C14   C16   1.380718 A    
N5    C31   1.449495 S    
C7    C10   1.420549 S    
C8    C9    1.419535 S    
N3    C29   1.448542 S    
O4    Zn1   2.007926 S    
N7    O10   1.300908 A    
C21   C28   1.425193 A    
C14   C19   1.416095 A    
C21   N11   1.436625 S    
C1    C12   1.429611 S    
C34   H26   1.109420 S    
C32   H19   1.105894 S    
C12   C15   1.385165 A    
C15   H2    1.084315 S    
C26   C28   1.426202 A    
C31   H14   1.110432 S    
C22   C27   1.426201 A    
O2    C2    1.287709 A    
N10   C34   1.449563 S    
C11   C16   1.386931 A    
C29   H8    1.110953 S    
C30   H11   1.110927 S    
C5    C10   1.185070 T    
C31   H15   1.104414 S    
N1    C26   1.378937 A    
N4    H9    1.031043 S    
C13   C20   1.414669 A    
C25   N10   1.419610 S    
N8    O12   1.300779 A    
C18   N5    1.431054 S    
C2    C11   1.424467 S    
N2    C25   1.372248 A    
N4    C30   1.448684 S    
N9    H21   1.022316 S    
Zn1   N1    2.025512 S    
C19   C20   1.431540 A    
O7    C3    1.293131 A    
C3    C6    1.397888 S    
N12   O16   1.301099 A    
C29   H6    1.110498 S    
C4    C5    1.398797 S    
O6    C4    1.287638 A    
C32   H20   1.111640 S    
C7    C8    1.351232 D    
C33   H23   1.110513 S    
N9    C33   1.448196 S    
O3    Zn2   2.007926 S    
O8    C4    1.294295 A    
O4    C2    1.294588 A    
C34   H27   1.107038 S    
C11   C18   1.399666 A    
C12   C17   1.403977 A    
N11   O14   1.301326 A    
O1    Zn1   1.967446 S    
C8    N3    1.438137 S    
C14   N8    1.431977 S    
C30   H12   1.111374 S    
C22   N12   1.431774 S    
C31   H16   1.110691 S    
O6    Zn2   1.949116 S    
C16   H1    1.085580 S    
N8    O11   1.301228 A    
O3    C1    1.293488 A    
O8    Zn1   1.940499 S    
Zn2   N2    2.025512 S    
C30   H10   1.110643 S    
C29   H7    1.111240 S    
N1    C24   1.355749 A    
C26   N9    1.421537 S    
C23   H4    1.081569 S    
C18   C20   1.405606 A    
C24   H3    1.082262 S    
C33   H24   1.110102 S    
N5    H13   1.031502 S    
C6    C9    1.184665 T    
C22   C24   1.406268 A    
C13   C15   1.377537 A    
N7    O9    1.301185 A    
O2    Zn2   1.967446 S    
N6    H17   1.030672 S    
N3    H5    1.031431 S    
O5    Zn1   1.949114 S    
C34   H28   1.111017 S    
C32   H18   1.107947 S    
C17   N6    1.430418 S    
