data_mof_unit_57372.cif
_audit_creation_date              2012-12-10T19:44:59-0500
_audit_creation_method            fapswitch 2.2
_symmetry_space_group_name_H-M    P1
_symmetry_Int_Tables_number       1
_space_group_crystal_system       triclinic
_cell_length_a                    15.009383
_cell_length_b                    10.971836
_cell_length_c                    13.880781
_cell_angle_alpha                 90.767509
_cell_angle_beta                  90.740194
_cell_angle_gamma                 89.179217
_cell_volume                      2285.26902317

loop_
_atom_site_label
_atom_site_type_symbol
_atom_type_description
_atom_site_fract_x
_atom_site_fract_y
_atom_site_fract_z
_atom_type_partial_charge
C1    C     C_R   0.495881 0.262584 0.499319 0.801772
C2    C     C_R   0.500614 0.882229 0.685276 0.101673
C3    C     C_R   0.554426 0.114171 0.249061 -0.156845
C4    C     C_R   0.426144 0.877298 0.745278 -0.068042
C5    C     C_R   0.541692 0.149182 0.152959 0.506475
C6    C     C_R   0.434862 0.840356 0.841460 0.558213
C7    C     C_R   0.455430 0.189294 0.123385 -0.267714
C8    C     C_R   0.520577 0.804842 0.876073 -0.271906
C9    C     C_R   0.499924 0.933844 0.412424 0.466459
C10   C     C_R   0.486546 0.066901 0.587090 0.465389
C11   C     C_R   0.500205 0.872067 0.501392 -0.242225
C12   C     C_R   0.501226 0.737705 0.500633 0.811781
C13   C     C_R   0.490530 0.128564 0.498374 -0.237096
C14   C     C_R   0.493684 0.939526 0.589068 -0.139858
C15   C     C_R   0.494061 0.061065 0.410671 -0.135344
C16   C     C_R   0.329576 0.499935 0.499410 0.779150
C17   C     C_R   0.670416 0.499944 0.500545 0.777467
C18   C     C_R   0.578798 0.498135 0.796691 0.554208
C19   C     C_R   0.420933 0.492020 0.203035 0.547123
C20   C     C_R   0.420139 0.512392 0.791551 0.586893
C21   C     C_R   0.578662 0.509022 0.204923 0.570945
C22   C     C_R   0.418562 0.489954 0.893892 -0.084270
C23   C     C_R   0.047922 0.276882 0.518154 0.437817
C24   C     C_R   0.578823 0.520756 0.102624 -0.110821
C25   C     C_R   0.498547 0.502605 0.947360 -0.076262
C26   C     C_R   0.499241 0.504141 0.050154 -0.089953
C27   C     C_R   0.578381 0.512530 0.897996 -0.111535
C28   C     C_R   0.420718 0.486081 0.100195 -0.116184
C29   C     C_R   0.342578 0.452625 0.944865 0.396734
C30   C     C_R   0.657914 0.544018 0.051384 0.443976
C31   C     C_R   0.343612 0.455600 0.046672 -0.258385
C32   C     C_R   0.657027 0.536758 0.950233 -0.289992
C33   C     C_R   0.810940 0.612561 0.493968 0.390904
C34   C     C_R   0.952023 0.722675 0.480954 0.440502
C35   C     C_R   0.189062 0.387174 0.506427 0.355318
C36   C     C_R   0.766512 0.500528 0.502017 -0.251890
C37   C     C_R   0.233467 0.499143 0.497636 -0.284613
C38   C     C_R   0.813850 0.389089 0.509711 0.305026
C39   C     C_R   0.186074 0.610393 0.488616 0.307545
C40   C     C_R   0.907020 0.390022 0.509737 0.060187
C41   C     C_R   0.092919 0.609471 0.488913 0.056208
C42   C     C_R   0.952891 0.500663 0.500006 -0.125087
C43   C     C_R   0.047071 0.498886 0.499051 -0.126285
C44   C     C_R   0.904845 0.612770 0.491280 0.034667
C45   C     C_R   0.385479 0.193943 0.188803 -0.180908
C46   C     C_R   0.095126 0.386847 0.508205 0.036866
C47   C     C_R   0.954865 0.280225 0.518683 -0.268495
C48   C     C_R   0.045064 0.719250 0.479847 -0.266430
C49   C     C_3   0.431624 0.850245 0.277958 -0.261252
C50   C     C_3   0.541829 0.144927 0.731032 -0.273357
C51   C     C_3   0.701196 0.384693 0.755314 -0.313086
C52   C     C_3   0.288699 0.583637 0.243885 -0.305370
C53   C     C_3   0.271477 0.562349 0.751267 -0.145821
C54   C     C_3   0.691681 0.381694 0.248801 -0.157514
C55   C     C_3   0.595926 0.151076 0.994880 -0.344044
C56   C     C_R   0.594285 0.807635 0.815812 -0.194195
C57   C     C_3   0.372519 0.837843 0.995637 -0.336955
C58   C     C_R   0.399561 0.159362 0.284066 -0.116596
C59   C     C_R   0.584587 0.846083 0.720948 -0.136297
C60   C     C_R   0.483898 0.117870 0.314573 0.107908
Cu1   Cu    Cu3+1 0.500010 0.499980 0.597420 1.018560
Cu2   Cu    Cu3+1 0.499990 0.500020 0.402580 1.012185
H1    H     H_    0.284349 0.428411 0.083947 0.168876
H2    H     H_    0.642786 0.850844 0.675878 0.156659
H3    H     H_    0.619363 0.080673 0.272340 0.174447
H4    H     H_    0.361330 0.905867 0.717900 0.169339
H5    H     H_    0.702044 0.714229 0.507631 0.310592
H6    H     H_    0.298465 0.285700 0.496369 0.311785
H7    H     H_    0.419578 0.920402 0.222487 0.160509
H8    H     H_    0.373385 0.846720 0.326902 0.138508
H9    H     H_    0.436576 0.761886 0.238649 0.169397
H10   H     H_    0.539751 0.237752 0.763361 0.170799
H11   H     H_    0.606311 0.132520 0.692822 0.133992
H12   H     H_    0.718472 0.551750 0.912415 0.176467
H13   H     H_    0.539428 0.081022 0.791950 0.157761
H14   H     H_    0.673040 0.324697 0.698169 0.188930
H15   H     H_    0.696178 0.340422 0.826782 0.124483
H16   H     H_    0.773081 0.394685 0.740131 0.200531
H17   H     H_    0.312706 0.651207 0.297784 0.185058
H18   H     H_    0.286782 0.626079 0.171528 0.126172
H19   H     H_    0.219172 0.561645 0.262589 0.197002
H20   H     H_    0.239682 0.588781 0.820293 0.193510
H21   H     H_    0.263353 0.464527 0.731326 0.204160
H22   H     H_    0.235571 0.615411 0.695131 0.165535
H23   H     H_    0.919912 0.195252 0.526241 0.201880
H24   H     H_    0.758530 0.378141 0.283769 0.183641
H25   H     H_    0.699136 0.346325 0.173814 0.170261
H26   H     H_    0.647580 0.321676 0.290129 0.144561
H27   H     H_    0.226707 0.373953 0.942095 0.324561
H28   H     H_    0.783592 0.588386 0.054087 0.316410
H29   H     H_    0.706536 0.286404 0.510564 0.310605
H30   H     H_    0.293388 0.712999 0.485556 0.316061
H31   H     H_    0.049988 0.099604 0.533205 0.309589
H32   H     H_    0.949923 0.899896 0.465566 0.309561
H33   H     H_    0.574243 0.245127 0.975990 0.164820
H34   H     H_    0.079995 0.804177 0.471925 0.201730
H35   H     H_    0.545545 0.082556 0.972343 0.163680
H36   H     H_    0.657324 0.130428 0.953778 0.194328
H37   H     H_    0.418642 0.911739 0.018418 0.158083
H38   H     H_    0.397166 0.747178 0.019800 0.169061
H39   H     H_    0.308265 0.855796 0.032139 0.193988
H40   H     H_    0.440980 0.217799 0.050566 0.161644
H41   H     H_    0.531573 0.773767 0.948859 0.161202
H42   H     H_    0.319792 0.223812 0.165345 0.175602
H43   H     H_    0.659398 0.780586 0.843045 0.178689
H44   H     H_    0.344070 0.160428 0.333207 0.159366
N1    N     N_R   0.499960 0.499900 0.743810 -0.263788
N2    N     N_R   0.500040 0.500100 0.256190 -0.279679
O1    O     O_R   0.500000 0.319630 0.582270 -0.548256
O2    O     O_3   0.235420 0.277357 0.514337 -0.645061
O3    O     O_3   0.513743 0.870372 0.326414 -0.535822
O4    O     O_3   0.465510 0.130755 0.671224 -0.542328
O5    O     O_3   0.660032 0.501215 0.751703 -0.552580
O6    O     O_3   0.340853 0.475174 0.248338 -0.552094
O7    O     O_3   0.361098 0.597560 0.751758 -0.569361
O8    O     O_3   0.660055 0.503677 0.251407 -0.493347
O9    O     O_3   0.273288 0.396983 0.895982 -0.769213
O10   O     O_3   0.735203 0.575066 0.100593 -0.675337
O11   O     O_3   0.771910 0.277563 0.516902 -0.749766
O12   O     O_R   0.500000 0.680370 0.417730 -0.534549
O13   O     O_3   0.227949 0.721827 0.480311 -0.746191
O14   O     O_3   0.093082 0.166687 0.527225 -0.649412
O15   O     O_3   0.906843 0.832848 0.471840 -0.647799
O16   O     O_3   0.616395 0.143349 0.094060 -0.583295
O17   O     O_3   0.356955 0.837122 0.895142 -0.563821
O18   O     O_R   0.499990 0.319660 0.417730 -0.594559
O19   O     O_R   0.500010 0.680340 0.582270 -0.562128
O20   O     O_R   0.370260 0.499960 0.582280 -0.550253
O21   O     O_R   0.629740 0.500040 0.417720 -0.524718
O22   O     O_R   0.370250 0.499990 0.417740 -0.534706
O23   O     O_R   0.629750 0.500010 0.582260 -0.536593
O24   O     O_3   0.764571 0.722544 0.487647 -0.636496

loop_
_geom_bond_atom_site_label_1
_geom_bond_atom_site_label_2
_ccdc_geom_bond_type
C9    O3    S    
C40   C47   A    
C54   H26   S    
C34   O15   S    
C22   C29   A    
C17   O23   A    
C15   C60   S    
Cu2   O22   S    
H5    O24   S    
Cu1   O1    S    
C8    C56   A    
C39   C41   A    
C12   O19   A    
C5    O16   S    
C59   H2    S    
C51   O5    S    
C53   H22   S    
H28   O10   S    
C35   C37   A    
C24   C26   A    
C57   O17   S    
C54   H25   S    
C11   C14   A    
Cu2   N2    S    
C58   C60   A    
C57   H37   S    
C33   C36   A    
Cu2   O18   S    
C50   H10   S    
C18   N1    A    
C1    O1    A    
C12   O12   A    
C7    H40   S    
C54   O8    S    
C10   O4    S    
C17   C36   S    
C52   H17   S    
C16   O22   A    
Cu2   O12   S    
Cu1   Cu2   S    
C16   C37   S    
C49   O3    S    
C20   N1    A    
C3    C60   A    
C40   C42   A    
C23   C46   A    
C49   H7    S    
C41   C43   A    
Cu2   O21   S    
C3    H3    S    
C42   C44   A    
C21   O8    S    
C2    C14   S    
C18   O5    S    
C43   C46   A    
C23   O14   S    
C45   C58   A    
C23   C47   A    
C17   O21   A    
C31   H1    S    
H32   O15   S    
C34   C44   A    
H31   O14   S    
C55   H33   S    
C10   C14   A    
C50   H11   S    
C5    C7    A    
C2    C59   A    
C6    C8    A    
C30   O10   S    
C19   O6    S    
C25   C26   A    
C57   H38   S    
C29   O9    S    
C22   C25   A    
C53   H20   S    
C58   H44   S    
C2    C4    A    
C51   H15   S    
C45   H42   S    
C9    C11   A    
C47   H23   S    
C55   H35   S    
C50   O4    S    
Cu1   O19   S    
H6    O2    S    
C1    O18   A    
C19   C28   A    
C16   O20   A    
C35   O2    S    
C38   O11   S    
C33   O24   S    
C4    C6    A    
H27   O9    S    
C49   H8    S    
C13   C15   A    
H29   O11   S    
C1    C13   S    
C42   C43   A    
C7    C45   A    
C54   H24   S    
C55   O16   S    
C32   H12   S    
C48   H34   S    
C27   C32   A    
C33   C44   A    
C28   C31   A    
C18   C27   A    
C6    O17   S    
C20   C22   A    
C3    C5    A    
C10   C13   A    
C20   O7    S    
C11   C12   S    
C52   O6    S    
C25   C27   A    
C57   H39   S    
C26   C28   A    
C39   O13   S    
C56   C59   A    
C53   H21   S    
C36   C38   A    
C9    C15   A    
C51   H16   S    
C37   C39   A    
C52   H18   S    
H30   O13   S    
C19   N2    A    
C30   C32   A    
C38   C40   A    
C55   H36   S    
C41   C48   A    
Cu1   O20   S    
C52   H19   S    
Cu1   N1    S    
C8    H41   S    
C24   C30   A    
C56   H43   S    
C21   N2    A    
Cu1   O23   S    
C34   C48   A    
C4    H4    S    
C29   C31   A    
C49   H9    S    
C21   C24   A    
C51   H14   S    
C50   H13   S    
C35   C46   A    
C53   O7    S    
