data_mof_unit_61437.cif
_audit_creation_date              2012-10-26T18:35:13-0400
_audit_creation_method            fapswitch 2.2
_symmetry_space_group_name_H-M    P1
_symmetry_Int_Tables_number       1
_space_group_crystal_system       triclinic
_cell_length_a                    10.76333
_cell_length_b                    14.428375
_cell_length_c                    13.131146
_cell_angle_alpha                 89.999989
_cell_angle_beta                  89.915078
_cell_angle_gamma                 90.0
_cell_volume                      2039.23008721

loop_
_atom_site_label
_atom_site_type_symbol
_atom_type_description
_atom_site_fract_x
_atom_site_fract_y
_atom_site_fract_z
_atom_type_partial_charge
C1    C     C_R   0.500000 0.328694 0.500000 0.514417
C2    C     C_R   0.741042 0.485928 0.499896 0.543968
C3    C     C_R   0.500000 0.671307 0.500000 0.562269
C4    C     C_3   0.071512 0.430664 0.601731 -0.069929
C5    C     C_3   0.074690 0.421984 0.403668 -0.074797
C6    C     C_3   0.925310 0.421984 0.596332 -0.074795
C7    C     C_3   0.928488 0.430665 0.398269 -0.069931
C8    C     C_3   0.070739 0.577021 0.494736 -0.281523
C9    C     C_3   0.929261 0.577021 0.505265 -0.281524
C10   C     C_3   0.121897 0.476499 0.500293 0.018231
C11   C     C_3   0.878103 0.476499 0.499707 0.018232
C12   C     C_1   0.500000 0.957646 0.500000 -0.007621
C13   C     C_1   0.500000 0.227173 0.500000 -0.071907
C14   C     C_1   0.500000 0.142373 0.500000 -0.055707
C15   C     C_1   0.500000 0.042470 0.500000 -0.009879
C16   C     C_3   0.145420 0.343474 0.639766 -0.267367
C17   C     C_3   0.176325 0.349139 0.753456 -0.444269
C18   C     C_3   0.133003 0.322765 0.396184 -0.266239
C19   C     C_3   0.146012 0.286259 0.287130 -0.442931
C20   C     C_3   0.866996 0.322765 0.603816 -0.266236
C21   C     C_3   0.853996 0.286253 0.712868 -0.442923
C22   C     C_3   0.854579 0.343476 0.360232 -0.267370
C23   C     C_1   0.500000 0.857726 0.500000 -0.048915
C24   C     C_3   0.823658 0.349147 0.246546 -0.444267
C25   C     C_1   0.500000 0.772897 0.500000 -0.054800
C26   C     C_1   0.499989 0.499946 0.173599 0.100802
C27   C     C_1   0.500011 0.499945 0.826401 0.100805
C28   C     C_1   0.499999 0.499878 0.050686 -0.060017
C29   C     C_1   0.500001 0.499878 0.949314 -0.060017
C30   C     C_R   0.258958 0.485928 0.500104 0.543967
Cu1   Cu    Cu3+1 0.500000 0.499990 0.592680 0.939781
Cu2   Cu    Cu3+1 0.500000 0.499990 0.407320 0.939778
H1    H     H_    0.088907 0.484671 0.660888 0.138123
H2    H     H_    0.092347 0.365236 0.799237 0.140585
H3    H     H_    0.215845 0.282170 0.779629 0.138882
H4    H     H_    0.098032 0.277317 0.624294 0.140946
H5    H     H_    0.235467 0.335977 0.599982 0.153147
H6    H     H_    0.055929 0.263902 0.255454 0.151490
H7    H     H_    0.188377 0.339379 0.236683 0.151528
H8    H     H_    0.207765 0.224569 0.287205 0.141394
H9    H     H_    0.229293 0.324049 0.425722 0.147585
H10   H     H_    0.083598 0.271753 0.444192 0.131531
H11   H     H_    0.944078 0.263871 0.744529 0.151486
H12   H     H_    0.110977 0.460402 0.336220 0.136385
H13   H     H_    0.811665 0.339379 0.763328 0.151522
H14   H     H_    0.792217 0.224577 0.712797 0.141394
H15   H     H_    0.770704 0.324051 0.574284 0.147585
H16   H     H_    0.916397 0.271754 0.555802 0.131531
H17   H     H_    0.753807 0.404465 0.233169 0.169591
H18   H     H_    0.907630 0.365246 0.200758 0.140577
H19   H     H_    0.784133 0.282180 0.220372 0.138882
H20   H     H_    0.901971 0.277318 0.375692 0.140949
H21   H     H_    0.764538 0.335973 0.400024 0.153143
H22   H     H_    0.889024 0.460402 0.663780 0.136381
H23   H     H_    0.911094 0.484673 0.339112 0.138124
H24   H     H_    0.111232 0.620844 0.556164 0.126400
H25   H     H_    0.097240 0.609638 0.420950 0.125593
H26   H     H_    0.902760 0.609638 0.579050 0.125593
H27   H     H_    0.888768 0.620844 0.443837 0.126399
H28   H     H_    0.246175 0.404456 0.766843 0.169580
N1    N     N_1   0.500000 0.500020 0.268070 -0.172681
N2    N     N_1   0.500000 0.500020 0.731930 -0.172678
O1    O     O_R   0.500000 0.376050 0.578280 -0.481582
O2    O     O_R   0.500000 0.376050 0.421720 -0.481580
O3    O     O_R   0.317680 0.499980 0.578260 -0.492738
O4    O     O_R   0.317680 0.499980 0.421740 -0.492449
O5    O     O_R   0.682320 0.499980 0.578260 -0.492450
O6    O     O_R   0.682320 0.499980 0.421740 -0.492737
O7    O     O_R   0.500000 0.623940 0.578240 -0.463358
O8    O     O_R   0.500000 0.623940 0.421760 -0.463358

loop_
_geom_bond_atom_site_label_1
_geom_bond_atom_site_label_2
_ccdc_geom_bond_type
C4    C16   S    
C7    C11   S    
C3    O7    A    
C19   H6    S    
C8    H25   S    
C27   C29   S    
C7    C22   S    
C6    C20   S    
C10   C30   S    
Cu1   O7    S    
C21   H13   S    
Cu1   Cu2   S    
C12   C23   S    
C12   C15   T    
C7    H23   S    
C16   H5    S    
Cu2   O6    S    
C8    H24   S    
C24   H19   S    
C23   C25   T    
C5    C10   S    
C20   H16   S    
C13   C14   T    
C16   H4    S    
Cu1   O5    S    
C9    C11   S    
Cu1   N2    S    
C30   O4    A    
C19   H7    S    
C6    H22   S    
C2    C11   S    
C1    O1    A    
C4    C6    S    
C28   C29   T    
C27   N2    T    
C26   N1    T    
Cu2   N1    S    
C21   H14   S    
C22   H21   S    
C2    O6    A    
C18   H10   S    
C24   H18   S    
C22   C24   S    
C30   O3    A    
C1    C13   S    
C19   H8    S    
C17   H28   S    
C4    C10   S    
C20   H15   S    
C1    O2    A    
Cu1   O1    S    
C3    C25   S    
C3    O8    A    
C20   C21   S    
Cu2   O2    S    
C24   H17   S    
Cu2   O4    S    
C9    H26   S    
C17   H2    S    
C18   H9    S    
C6    C11   S    
C5    C7    S    
Cu1   O3    S    
C4    H1    S    
C18   C19   S    
Cu2   O8    S    
C5    C18   S    
C17   H3    S    
C22   H20   S    
C9    H27   S    
C14   C15   S    
C26   C28   S    
C5    H12   S    
C8    C10   S    
C21   H11   S    
C16   C17   S    
C8    C9    S    
C2    O5    A    
