data_mof_unit_32768.cif
_audit_creation_date              2012-12-11T14:40:28-0500
_audit_creation_method            fapswitch 2.2
_symmetry_space_group_name_H-M    P1
_symmetry_Int_Tables_number       1
_space_group_crystal_system       triclinic
_cell_length_a                    19.742121
_cell_length_b                    10.908637
_cell_length_c                    19.45439
_cell_angle_alpha                 89.767229
_cell_angle_beta                  97.459069
_cell_angle_gamma                 89.885411
_cell_volume                      4154.188714

loop_
_atom_site_label
_atom_site_type_symbol
_atom_type_description
_atom_site_fract_x
_atom_site_fract_y
_atom_site_fract_z
_atom_type_partial_charge
C1    C     C_R   0.726002 0.950087 0.360104 0.542472
C2    C     C_3   0.268614 0.342113 0.560187 0.051131
C3    C     C_3   0.232627 0.844329 0.440841 0.052620
C4    C     C_3   0.753044 0.900163 0.566818 0.057002
C5    C     C_3   0.768758 0.514582 0.467041 -0.151882
C6    C     C_3   0.241613 0.468016 0.535474 -0.114551
C7    C     C_3   0.211340 0.967338 0.468848 -0.117660
C8    C     C_3   0.783177 0.006841 0.530069 -0.131596
C9    C     C_3   0.817792 0.442346 0.520775 -0.111630
C10   C     C_3   0.191158 0.404306 0.480341 -0.107241
C11   C     C_3   0.281963 0.974040 0.513116 -0.117253
C12   C     C_R   0.273180 0.947769 0.641100 0.551254
C13   C     C_3   0.714179 0.016012 0.482326 -0.111810
C14   C     C_3   0.794359 0.320157 0.487156 -0.105381
C15   C     C_3   0.218161 0.277615 0.505723 -0.119519
C16   C     C_3   0.303118 0.850805 0.484613 -0.099220
C17   C     C_3   0.684583 0.908507 0.520217 -0.113896
C18   C     C_3   0.736736 0.308968 0.533328 -0.150191
C19   C     C_3   0.272580 0.281144 0.455225 -0.144035
C20   C     C_3   0.273877 0.781348 0.543117 -0.129410
C21   C     C_3   0.711429 0.816466 0.470234 -0.123002
C22   C     C_3   0.760157 0.429772 0.566248 0.062805
C23   C     C_R   0.225689 0.450627 0.360424 0.543376
C24   C     C_3   0.245690 0.407495 0.430769 0.055898
C25   C     C_3   0.252704 0.904264 0.571160 0.055706
C26   C     C_3   0.741075 0.923060 0.433066 0.057513
C27   C     C_3   0.524048 0.263132 0.963480 -0.146633
C28   C     C_3   0.490843 0.280273 0.029969 -0.145003
C29   C     C_3   0.010873 0.780365 0.969977 -0.149553
C30   C     C_3   0.974797 0.764266 0.035105 -0.154118
C31   C     C_3   0.567495 0.155024 0.996112 0.052281
C32   C     C_3   0.433197 0.190236 0.003758 0.052572
C33   C     C_3   0.067327 0.689006 0.998850 0.059979
C34   C     C_R   0.775165 0.453984 0.638870 0.546142
C35   C     C_3   0.932480 0.656418 0.001329 0.059457
C36   C     C_3   0.534291 0.172714 0.063130 0.000715
C37   C     C_3   0.466295 0.173399 0.936777 -0.002899
C38   C     C_3   0.031588 0.673484 0.064015 0.004476
C39   C     C_3   0.968284 0.672781 0.936205 0.007111
C40   C     C_R   0.535433 0.179884 0.338128 0.560204
C41   C     C_R   0.465148 0.179966 0.662323 0.550513
C42   C     C_R   0.035209 0.679900 0.337942 0.550428
C43   C     C_R   0.964754 0.680078 0.662044 0.560217
C44   C     C_3   0.477397 0.084027 0.036212 0.261196
C45   C     C_3   0.687604 0.381134 0.479288 -0.121815
C46   C     C_3   0.509224 0.067376 0.969813 0.258401
C47   C     C_3   0.989504 0.567424 0.030330 0.253104
C48   C     C_3   0.024185 0.583097 0.965356 0.252789
C49   C     C_1   0.758246 0.410182 0.899717 0.048023
C50   C     C_1   0.229727 0.442736 0.090760 0.046802
C51   C     C_1   0.282288 0.974802 0.914856 0.030538
C52   C     C_1   0.740518 0.916643 0.098807 0.042090
C53   C     C_1   0.735858 0.366989 0.026759 0.035860
C54   C     C_1   0.243587 0.428888 0.959365 0.056191
C55   C     C_1   0.259868 0.940785 0.043070 0.060261
C56   C     C_3   0.323525 0.345033 0.511342 -0.135260
C57   C     C_1   0.758665 0.891791 0.969305 0.036748
C58   C     C_1   0.746052 0.387538 0.957324 0.038222
C59   C     C_1   0.235506 0.438297 0.030052 0.043188
C60   C     C_1   0.271895 0.959731 0.973884 0.044773
C61   C     C_1   0.751325 0.901301 0.040121 0.031966
C62   C     C_1   0.729092 0.346056 0.086151 0.039963
C63   C     C_1   0.252246 0.408380 0.900518 0.054898
C64   C     C_1   0.249075 0.914215 0.100728 0.056723
C65   C     C_1   0.761612 0.882178 0.908250 0.057303
C66   C     C_R   0.738967 0.361908 0.362075 0.560124
C67   C     C_3   0.202954 0.774095 0.498429 -0.146576
C68   C     C_R   0.275642 0.308807 0.632928 0.557880
C69   C     C_R   0.225058 0.810562 0.367805 0.557941
C70   C     C_R   0.760100 0.865626 0.638976 0.543933
C71   C     C_R   0.722424 0.951171 0.164634 0.536953
C72   C     C_R   0.295099 0.997117 0.845233 0.536731
C73   C     C_R   0.219626 0.458219 0.161459 0.553347
C74   C     C_R   0.777564 0.450497 0.835244 0.547741
C75   C     C_R   0.561881 0.182166 0.135995 0.551669
C76   C     C_R   0.438271 0.182187 0.864044 0.549234
C77   C     C_R   0.060849 0.682261 0.135923 0.571458
C78   C     C_3   0.780393 0.807674 0.517641 -0.113494
C79   C     C_R   0.939293 0.681922 0.864122 0.575533
C80   C     C_R   0.723009 0.313515 0.156175 0.542498
C81   C     C_R   0.263200 0.362999 0.834201 0.552147
C82   C     C_R   0.236822 0.863594 0.165814 0.561543
C83   C     C_R   0.765412 0.856034 0.837155 0.557324
C84   C     C_1   0.487294 0.171805 0.595568 -0.018444
C85   C     C_1   0.515095 0.171556 0.405700 -0.013930
C86   C     C_1   0.985881 0.672379 0.594851 -0.013497
C87   C     C_1   0.014093 0.671753 0.405151 -0.013889
C88   C     C_1   0.505720 0.167920 0.465448 -0.059815
C89   C     C_3   0.745556 0.393467 0.434141 0.060408
C90   C     C_1   0.497716 0.167982 0.536147 -0.063405
C91   C     C_1   0.004111 0.668495 0.464707 -0.060434
C92   C     C_1   0.995854 0.668827 0.535311 -0.060613
C93   C     C_3   0.711190 0.503559 0.513846 -0.117900
C94   C     C_3   0.296158 0.472364 0.485344 -0.116079
C95   C     C_3   0.182004 0.898417 0.528059 -0.119704
C96   C     C_3   0.809845 0.915226 0.479271 -0.123609
Cr1   Cr    Cr6+3 0.765830 0.160660 0.268180 1.033601
Cr2   Cr    Cr6+3 0.384070 0.324050 0.751550 1.032680
Cr3   Cr    Cr6+3 0.115930 0.824050 0.248450 1.036247
Cr4   Cr    Cr6+3 0.884070 0.824050 0.751550 1.038411
Cr5   Cr    Cr6+3 0.234170 0.160660 0.731820 1.033079
Cr6   Cr    Cr6+3 0.265830 0.660660 0.268180 1.036821
Cr7   Cr    Cr6+3 0.734170 0.660660 0.731820 1.039859
Cr8   Cr    Cr6+3 0.612110 0.009150 0.248770 1.050508
Cr9   Cr    Cr6+3 0.387890 0.009150 0.751230 1.049868
Cr10  Cr    Cr6+3 0.112110 0.509150 0.248770 1.051009
Cr11  Cr    Cr6+3 0.887890 0.509150 0.751230 1.050472
Cr12  Cr    Cr6+3 0.615930 0.324050 0.248450 1.038067
H1    H     H_    0.634037 0.356146 0.459988 0.130734
H2    H     H_    0.227827 0.539802 0.571370 0.124434
H3    H     H_    0.185508 0.041055 0.435730 0.127205
H4    H     H_    0.813095 0.081765 0.557694 0.115965
H5    H     H_    0.315513 0.055612 0.521250 0.107560
H6    H     H_    0.685545 0.100284 0.464278 0.115824
H7    H     H_    0.871508 0.467519 0.539431 0.132253
H8    H     H_    0.136511 0.429484 0.466685 0.129199
H9    H     H_    0.829308 0.245766 0.474979 0.136361
H10   H     H_    0.185365 0.199901 0.517382 0.126046
H11   H     H_    0.353228 0.831774 0.466673 0.137918
H12   H     H_    0.377993 0.320931 0.526157 0.125150
H13   H     H_    0.633589 0.907745 0.538493 0.128756
H14   H     H_    0.722738 0.229861 0.564484 0.108619
H15   H     H_    0.284987 0.206392 0.420361 0.121959
H16   H     H_    0.300947 0.708317 0.575765 0.124534
H17   H     H_    0.682181 0.740166 0.443154 0.121168
H18   H     H_    0.544351 0.340655 0.935137 0.175765
H19   H     H_    0.483098 0.371835 0.052544 0.176086
H20   H     H_    0.020063 0.870927 0.946621 0.174305
H21   H     H_    0.953563 0.841244 0.062883 0.171564
H22   H     H_    0.489621 0.924657 0.078694 0.345034
H23   H     H_    0.169509 0.692537 0.489653 0.104853
H24   H     H_    0.472447 0.914040 0.934089 0.338148
H25   H     H_    0.023714 0.412883 0.067786 0.340016
H26   H     H_    0.013349 0.424731 0.922534 0.343569
H27   H     H_    0.809390 0.724162 0.536288 0.116673
H28   H     H_    0.676728 0.577205 0.527922 0.133113
H29   H     H_    0.327950 0.552689 0.475329 0.125897
H30   H     H_    0.132843 0.918096 0.547795 0.126166
H31   H     H_    0.860613 0.916148 0.460536 0.122228
H32   H     H_    0.782155 0.594482 0.436104 0.110101
I1    I     I_    0.658840 0.126280 0.954519 -0.398650
I2    I     I_    0.340558 0.212618 0.043731 -0.401158
I3    I     I_    0.167755 0.710211 0.975549 -0.376989
I4    I     I_    0.832299 0.627610 0.023712 -0.369920
O1    O     O_R   0.783230 0.287800 0.346510 -0.514436
O2    O     O_R   0.454570 0.285140 0.836900 -0.499852
O3    O     O_R   0.045430 0.785140 0.163100 -0.506630
O4    O     O_R   0.954570 0.785140 0.836900 -0.504549
O5    O     O_R   0.677850 0.374730 0.185500 -0.501556
O6    O     O_R   0.322150 0.374730 0.814500 -0.506949
O7    O     O_R   0.177850 0.874730 0.185500 -0.505750
O8    O     O_R   0.822150 0.874730 0.814500 -0.517285
O9    O     O_3   0.664630 0.164620 0.255130 -0.308749
O10   O     O_3   0.335370 0.164620 0.744870 -0.330311
O11   O     O_3   0.164630 0.664620 0.255130 -0.310267
O12   O     O_R   0.216770 0.287800 0.653490 -0.507946
O13   O     O_3   0.835370 0.664620 0.744870 -0.289530
O14   O     O_R   0.760130 0.037060 0.338610 -0.503859
O15   O     O_R   0.239870 0.037060 0.661390 -0.518985
O16   O     O_R   0.260130 0.537060 0.338610 -0.519672
O17   O     O_R   0.739870 0.537060 0.661390 -0.506716
O18   O     O_R   0.666620 0.921370 0.332440 -0.513420
O19   O     O_R   0.333380 0.921370 0.667560 -0.508571
O20   O     O_R   0.166620 0.421370 0.332440 -0.514724
O21   O     O_R   0.833380 0.421370 0.667560 -0.520713
O22   O     O_R   0.557170 0.082420 0.312350 -0.483369
O23   O     O_R   0.283230 0.787800 0.346510 -0.517005
O24   O     O_R   0.442830 0.082420 0.687650 -0.486816
O25   O     O_R   0.057170 0.582420 0.312350 -0.490805
O26   O     O_R   0.942830 0.582420 0.687650 -0.492017
O27   O     O_R   0.548310 0.285980 0.316250 -0.505713
O28   O     O_R   0.451690 0.285980 0.683750 -0.510361
O29   O     O_R   0.048310 0.785980 0.316250 -0.509611
O30   O     O_R   0.951690 0.785980 0.683750 -0.500015
O31   O     O_R   0.680520 0.375500 0.327470 -0.500978
O32   O     O_R   0.319480 0.375500 0.672530 -0.496004
O33   O     O_R   0.180520 0.875500 0.327470 -0.499060
O34   O     O_R   0.716770 0.787800 0.653490 -0.516860
O35   O     O_R   0.819480 0.875500 0.672530 -0.500646
O36   O     O_R   0.780350 0.286970 0.193350 -0.475527
O37   O     O_R   0.219650 0.286970 0.806650 -0.497000
O38   O     O_R   0.280350 0.786970 0.193350 -0.487571
O39   O     O_R   0.719650 0.786970 0.806650 -0.487284
O40   O     O_R   0.757460 0.036290 0.196640 -0.513840
O41   O     O_R   0.242540 0.036290 0.803360 -0.479538
O42   O     O_R   0.257460 0.536290 0.196640 -0.488850
O43   O     O_R   0.742540 0.536290 0.803360 -0.494588
O44   O     O_R   0.663740 0.920540 0.179290 -0.508193
O45   O     O_R   0.554500 0.081650 0.170370 -0.458988
O46   O     O_R   0.336260 0.920540 0.820710 -0.502049
O47   O     O_R   0.163740 0.420540 0.179290 -0.515735
O48   O     O_R   0.836260 0.420540 0.820710 -0.510247
O49   O     O_3   0.452809 0.987237 0.073437 -0.647956
O50   O     O_3   0.518093 0.953214 0.939538 -0.638880
O51   O     O_3   0.978602 0.454390 0.061300 -0.640686
O52   O     O_3   0.050207 0.486770 0.929240 -0.651647
O53   O     O_R   0.445500 0.081650 0.829630 -0.467362
O54   O     O_R   0.054500 0.581650 0.170370 -0.461113
O55   O     O_R   0.945500 0.581650 0.829630 -0.465637
O56   O     O_R   0.545430 0.285140 0.163100 -0.503118

loop_
_geom_bond_atom_site_label_1
_geom_bond_atom_site_label_2
_ccdc_geom_bond_type
C19   C56   S    
H24   O50   S    
C21   C26   S    
Cr11  O21   S    
C31   I1    S    
C8    C13   S    
C87   C91   T    
C56   H12   S    
C14   C18   S    
C20   C67   S    
C8    C96   S    
C81   O37   A    
C71   O44   A    
C4    C8    S    
H22   O49   S    
C35   C47   S    
C96   H31   S    
Cr2   O10   S    
C73   O42   A    
C68   O32   A    
C10   H8    S    
C75   O56   A    
Cr4   O8    S    
C56   C94   S    
C19   H15   S    
C44   O49   S    
Cr6   O23   S    
C30   C35   S    
C63   C81   S    
Cr7   O39   S    
C50   C59   T    
C80   O36   A    
C62   C80   S    
C1    O14   A    
C75   O45   A    
C27   C37   S    
Cr3   O33   S    
C3    C7    S    
C76   O53   A    
C8    H4    S    
Cr8   O18   S    
C27   H18   S    
C45   H1    S    
C70   O35   A    
C65   C83   S    
C20   C25   S    
C11   C25   S    
C81   O6    A    
Cr12  O31   S    
C29   C33   S    
C30   C38   S    
C4    C78   S    
C11   C16   S    
C66   O1    A    
C69   O33   A    
C15   C19   S    
Cr4   O13   S    
Cr12  O9    S    
C78   C96   S    
C6    C94   S    
C31   C46   S    
Cr3   O11   S    
Cr11  O48   S    
C23   C24   S    
Cr9   O19   S    
Cr1   O9    S    
Cr8   O9    S    
C34   O21   A    
C45   C89   S    
C78   H27   S    
C77   O3    A    
C31   C36   S    
C32   I2    S    
C13   H6    S    
C28   H19   S    
H25   O51   S    
C35   I4    S    
Cr10  O54   S    
Cr2   O28   S    
C34   O17   A    
H26   O52   S    
Cr9   O10   S    
C76   O2    A    
C55   C60   S    
C48   O52   S    
Cr8   O44   S    
C67   C95   S    
C6    H2    S    
C2    C6    S    
C84   C90   T    
Cr10  O47   S    
Cr5   O41   S    
C71   O40   A    
C72   O46   A    
Cr11  O13   S    
C43   O26   A    
C44   C46   S    
C46   O50   S    
C66   C89   S    
C54   C59   S    
C55   C64   T    
C26   C96   S    
C80   O5    A    
C22   C34   S    
C41   O28   A    
C67   H23   S    
C4    C70   S    
Cr7   O17   S    
C79   O55   A    
C27   C31   S    
Cr6   O38   S    
C28   C32   S    
Cr7   O43   S    
C16   H11   S    
Cr6   O16   S    
C91   C92   S    
C70   O34   A    
Cr1   O36   S    
Cr2   O2    S    
Cr5   O12   S    
C10   C24   S    
C41   C84   S    
Cr3   O7    S    
C33   I3    S    
C49   C58   T    
C39   C79   S    
C40   C85   S    
Cr12  O56   S    
C35   C39   S    
C9    C14   S    
C69   O23   A    
C14   C89   S    
C5    C9    S    
C29   C30   S    
C42   O25   A    
C24   C94   S    
Cr2   O32   S    
C53   C62   T    
C7    C11   S    
C47   C48   S    
Cr3   O29   S    
C16   C20   S    
C14   H9    S    
C23   O16   A    
C29   C39   S    
C32   C44   S    
C83   O39   A    
Cr6   O42   S    
C32   C37   S    
C21   C78   S    
C2    C15   S    
C64   C82   S    
C38   C47   S    
C73   O47   A    
C18   H14   S    
C74   O48   A    
C4    C17   S    
C17   H13   S    
C37   C76   S    
C88   C90   S    
C45   C93   S    
C25   C95   S    
Cr10  O20   S    
C5    H32   S    
Cr4   O30   S    
C1    C26   S    
Cr10  O25   S    
Cr1   O1    S    
C13   C26   S    
C36   C44   S    
C51   C72   S    
C83   O8    A    
C21   H17   S    
C18   C45   S    
Cr5   O37   S    
Cr12  O27   S    
Cr1   O40   S    
C23   O20   A    
Cr2   O6    S    
C85   C88   T    
C47   O51   S    
C94   H29   S    
C66   O31   A    
Cr3   O3    S    
C9    H7    S    
C3    C69   S    
C18   C22   S    
C43   C86   S    
C40   O22   A    
Cr9   O46   S    
C3    C67   S    
C82   O7    A    
C77   O54   A    
C57   C65   T    
C41   O24   A    
C68   O12   A    
C42   O29   A    
C52   C61   T    
C6    C10   S    
C5    C93   S    
C53   C58   S    
C15   H10   S    
C57   C61   S    
C79   O4    A    
C51   C60   T    
C38   C77   S    
C30   H21   S    
C7    C95   S    
C82   O38   A    
C2    C68   S    
C33   C38   S    
Cr9   O24   S    
C13   C17   S    
C12   C25   S    
C10   C15   S    
Cr7   O34   S    
Cr1   O14   S    
C19   C24   S    
C43   O30   A    
C52   C71   S    
C86   C92   T    
C12   O19   A    
Cr11  O55   S    
C36   C75   S    
Cr5   O10   S    
Cr4   O4    S    
Cr8   O45   S    
C50   C73   S    
Cr9   O53   S    
C22   C93   S    
Cr10  O11   S    
C7    H3    S    
C95   H30   S    
C12   O15   A    
C11   H5    S    
C17   C21   S    
C72   O41   A    
C20   H16   S    
C1    O18   A    
C74   O43   A    
Cr8   O22   S    
Cr12  O5    S    
Cr5   O15   S    
Cr7   O13   S    
C28   C36   S    
C9    C22   S    
C54   C63   T    
C29   H20   S    
C27   C28   S    
C33   C48   S    
C49   C74   S    
C2    C56   S    
C42   C87   S    
C93   H28   S    
C37   C46   S    
Cr4   O35   S    
Cr6   O11   S    
C40   O27   A    
C5    C89   S    
C3    C16   S    
C39   C48   S    
Cr11  O26   S    
