data_mof_unit_20620.cif
_audit_creation_date              2012-12-10T18:42:30-0500
_audit_creation_method            fapswitch 2.2
_symmetry_space_group_name_H-M    P1
_symmetry_Int_Tables_number       1
_space_group_crystal_system       triclinic
_cell_length_a                    8.685924
_cell_length_b                    10.724779
_cell_length_c                    9.827326
_cell_angle_alpha                 90.019965
_cell_angle_beta                  98.567513
_cell_angle_gamma                 90.07702
_cell_volume                      905.244197641

loop_
_atom_site_label
_atom_site_type_symbol
_atom_type_description
_atom_site_fract_x
_atom_site_fract_y
_atom_site_fract_z
_atom_type_partial_charge
C1    C     C_R   0.499841 0.259828 0.499926 0.852048
C2    C     C_R   0.500035 0.740188 0.500067 0.860430
C3    C     C_R   0.201990 0.495679 0.464080 0.913404
C4    C     C_R   0.798462 0.495975 0.535063 0.907358
C5    C     C_2   0.037948 0.495318 0.442126 -0.040933
C6    C     C_2   0.961132 0.474108 0.550676 -0.037495
C7    C     C_R   0.487755 0.063809 0.374706 -0.202429
C8    C     C_R   0.511674 0.936268 0.625282 -0.198608
C9    C     C_R   0.487909 0.936117 0.374760 -0.202259
C10   C     C_R   0.511482 0.063962 0.625224 -0.204816
C11   C     C_R   0.499902 0.872641 0.500050 -0.008109
C12   C     C_R   0.499651 0.127419 0.499939 -0.009431
C13   C     C_R   0.575163 0.591691 0.081886 -0.069927
C14   C     C_R   0.425069 0.408243 0.918174 -0.063590
C15   C     C_R   0.575259 0.591588 0.937933 -0.096635
C16   C     C_R   0.424775 0.408404 0.062083 -0.090099
H1    H     H_    0.478009 0.112218 0.277033 0.150763
H2    H     H_    0.521438 0.887867 0.722957 0.151847
H3    H     H_    0.478291 0.887596 0.277113 0.153043
H4    H     H_    0.521054 0.112493 0.722865 0.153537
H5    H     H_    0.635787 0.664672 0.144457 0.132933
H6    H     H_    0.365852 0.334686 0.855789 0.134131
H7    H     H_    0.635771 0.664598 0.891330 0.125103
H8    H     H_    0.364491 0.335262 0.108712 0.119309
N1    N     N_R   0.499960 0.499970 0.857200 -0.074960
N2    N     N_R   0.500040 0.500030 0.142800 -0.073779
O1    O     O_R   0.499990 0.316750 0.614620 -0.631491
O2    O     O_R   0.500010 0.683250 0.385380 -0.632834
O3    O     O_R   0.499990 0.316780 0.385290 -0.636166
O4    O     O_R   0.500010 0.683220 0.614710 -0.631837
O5    O     O_R   0.271750 0.499990 0.587840 -0.585882
O6    O     O_R   0.728250 0.500010 0.412160 -0.583206
O7    O     O_R   0.271750 0.500010 0.358510 -0.629016
O8    O     O_R   0.728250 0.499990 0.641490 -0.634242
Zn1   Zn    Zn3+2 0.500000 0.499980 0.653120 0.946169
Zn2   Zn    Zn3+2 0.500000 0.500020 0.346880 0.941283
N3    N     N_2   0.962861 0.529350 0.307351 -0.288089
H9    H     H_    0.012314 0.605337 0.266001 0.221320
C17   C     C_3   0.937665 0.426051 0.211495 -0.709297
H10   H     H_    0.870924 0.458677 0.112855 0.225514
H11   H     H_    0.869975 0.350901 0.253296 0.248857
H12   H     H_    0.050568 0.387720 0.190546 0.224238
N4    N     N_2   0.034716 0.421075 0.677590 -0.285812
H13   H     H_    0.992432 0.452984 0.763880 0.238213
C18   C     C_3   0.045883 0.286506 0.674803 -0.771935
H14   H     H_    0.105678 0.252393 0.775568 0.221195
H15   H     H_    0.114208 0.256371 0.593584 0.241724
H16   H     H_    0.927695 0.244210 0.655113 0.230458

loop_
_geom_bond_atom_site_label_1
_geom_bond_atom_site_label_2
_ccdc_geom_bond_type
N4    H13   S    
N3    H9    S    
C5    N3    S    
C4    O8    A    
N4    C18   S    
C13   C15   A    
C2    O4    A    
C14   H6    S    
C1    O3    A    
C13   H5    S    
C16   H8    S    
C18   H14   S    
C3    O5    A    
C9    C11   A    
O3    Zn2   S    
C4    O6    A    
C1    C12   S    
C10   C12   A    
O4    Zn1   S    
N1    Zn1   S    
C8    C11   A    
C5    C6    D    
C2    C11   S    
O6    Zn2   S    
C15   H7    S    
C17   H12   S    
C14   C16   A    
C6    N4    S    
C18   H15   S    
C14   N1    A    
C16   N2    A    
C7    C12   A    
N3    C17   S    
O5    Zn1   S    
C13   N2    A    
C15   N1    A    
C4    C6    S    
C3    O7    A    
C7    C9    A    
O7    Zn2   S    
O2    Zn2   S    
C17   H11   S    
O8    Zn1   S    
C18   H16   S    
N2    Zn2   S    
C17   H10   S    
C1    O1    A    
C2    O2    A    
O1    Zn1   S    
C9    H3    S    
C8    C10   A    
C8    H2    S    
C10   H4    S    
C3    C5    S    
C7    H1    S    
