data_mof_unit_25622.cif
_audit_creation_date              2012-12-10T17:43:35-0500
_audit_creation_method            fapswitch 2.2
_symmetry_space_group_name_H-M    P1
_symmetry_Int_Tables_number       1
_space_group_crystal_system       triclinic
_cell_length_a                    14.973576
_cell_length_b                    10.721372
_cell_length_c                    9.909758
_cell_angle_alpha                 90.508711
_cell_angle_beta                  90.430055
_cell_angle_gamma                 92.188481
_cell_volume                      1589.61355901

loop_
_atom_site_label
_atom_site_type_symbol
_atom_type_description
_atom_site_fract_x
_atom_site_fract_y
_atom_site_fract_z
_atom_type_partial_charge
C1    C     C_R   0.507636 0.260705 0.500529 0.879576
C2    C     C_R   0.906842 0.563876 0.400695 0.128766
C3    C     C_R   0.954378 0.360009 0.694628 -0.200896
C4    C     C_R   0.047056 0.364393 0.693761 -0.186461
C5    C     C_R   0.093073 0.433411 0.595738 0.125518
C6    C     C_R   0.046504 0.499524 0.497177 0.002998
C7    C     C_R   0.093205 0.572175 0.399952 0.067877
C8    C     C_R   0.045689 0.638591 0.303427 -0.156569
C9    C     C_R   0.953054 0.634371 0.303909 -0.222761
C10   C     C_R   0.185282 0.437538 0.595325 -0.312924
C11   C     C_R   0.231568 0.508253 0.499308 -0.175366
C12   C     C_R   0.327092 0.502918 0.499625 0.865869
C13   C     C_R   0.186390 0.579692 0.403278 0.378956
C14   C     C_R   0.549457 0.118859 0.751524 -0.275813
C15   C     C_R   0.530554 0.061938 0.875810 0.503749
C16   C     C_R   0.482401 0.948416 0.876442 -0.115336
C17   C     C_R   0.460825 0.887180 0.755220 -0.243284
C18   C     C_R   0.487035 0.939297 0.629888 0.096486
C19   C     C_R   0.518442 0.063422 0.628400 0.050732
C20   C     C_R   0.515214 0.127486 0.503702 -0.098931
C21   C     C_R   0.502434 0.062545 0.382004 -0.201368
C22   C     C_R   0.490502 0.935481 0.382687 -0.203496
C23   C     C_R   0.492462 0.739388 0.501228 0.866664
C24   C     C_R   0.484609 0.872703 0.505427 -0.112288
C25   C     C_R   0.384066 0.333663 0.137415 -0.087788
C26   C     C_R   0.327487 0.250629 0.065907 -0.167978
C27   C     C_R   0.327321 0.250558 0.926187 -0.192202
C28   C     C_R   0.383779 0.333442 0.857158 -0.118336
C29   C     C_R   0.442851 0.417780 0.926210 0.083991
C30   C     C_R   0.442938 0.417852 0.070836 0.147230
C31   C     C_R   0.554214 0.578654 0.074341 -0.107534
C32   C     C_R   0.554914 0.579420 0.931987 0.455794
C33   C     C_R   0.672951 0.498428 0.500415 0.954949
C34   C     C_R   0.814794 0.563821 0.403824 -0.335138
C35   C     C_R   0.768482 0.494810 0.500866 -0.116429
C36   C     C_R   0.812348 0.420204 0.593962 0.388134
C37   C     C_R   0.906244 0.423055 0.595557 0.006696
C38   C     C_R   0.953141 0.494845 0.497419 0.033253
H1    H     H_    0.421476 0.800855 0.761451 0.185838
H2    H     H_    0.486128 0.886607 0.286517 0.183679
H3    H     H_    0.379530 0.329662 0.244457 0.194882
H4    H     H_    0.282856 0.186314 0.870738 0.141546
H5    H     H_    0.921627 0.309043 0.775149 0.163082
H6    H     H_    0.082847 0.314790 0.770799 0.145439
H7    H     H_    0.079750 0.694712 0.227865 0.201691
H8    H     H_    0.501233 0.109698 0.285762 0.211129
N1    N     N_R   0.499150 0.498800 0.142780 -0.161089
N2    N     N_R   0.499120 0.498720 0.857170 -0.188588
O1    O     O_R   0.500000 0.316780 0.614690 -0.647117
O2    O     O_R   0.499990 0.316750 0.385360 -0.640058
O3    O     O_R   0.367850 0.499980 0.614680 -0.641952
O4    O     O_R   0.367840 0.499960 0.385350 -0.620438
O5    O     O_R   0.500010 0.683250 0.614640 -0.648718
O6    O     O_R   0.500000 0.683220 0.385310 -0.625087
O7    O     O_R   0.632160 0.500040 0.614650 -0.587255
O8    O     O_R   0.632150 0.500020 0.385320 -0.628926
Zn1   Zn    Zn3+2 0.500010 0.500020 0.653130 0.942296
Zn2   Zn    Zn3+2 0.499990 0.499980 0.346870 0.945886
H9    H     H_    0.778805 0.619148 0.331714 0.177551
H10   H     H_    0.589376 0.205038 0.752420 0.196720
O9    O     O_3   0.555762 0.116540 0.997483 -0.780369
H11   H     H_    0.586995 0.197954 0.979945 0.334257
H12   H     H_    0.463386 0.905901 0.971250 0.154697
H13   H     H_    0.598412 0.642673 0.130494 0.172668
H14   H     H_    0.283122 0.186468 0.119390 0.146274
H15   H     H_    0.378952 0.328792 0.750079 0.199542
O10   O     O_3   0.761629 0.345572 0.679527 -0.769246
H16   H     H_    0.791311 0.265323 0.690355 0.322798
O11   O     O_3   0.613532 0.664056 0.873259 -0.766297
H17   H     H_    0.609678 0.653467 0.775218 0.392120
H18   H     H_    0.221332 0.383912 0.668833 0.165116
O12   O     O_3   0.230875 0.658668 0.314430 -0.774438
H19   H     H_    0.287352 0.690417 0.357175 0.336123
H20   H     H_    0.917508 0.687263 0.229361 0.159905

loop_
_geom_bond_atom_site_label_1
_geom_bond_atom_site_label_2
_ccdc_geom_bond_type
C33   O7    A    
C19   C20   A    
C36   O10   S    
N2    Zn1   S    
C3    H5    S    
C26   C27   A    
C29   C30   A    
C18   C24   A    
C36   C37   A    
C18   C19   A    
C5    C6    A    
C15   C16   A    
O1    Zn1   S    
C8    C9    A    
C34   C35   A    
C17   H1    S    
C8    H7    S    
C35   C36   A    
C16   C17   A    
C23   C24   S    
C6    C38   A    
O3    Zn1   S    
C16   H12   S    
C1    O2    A    
C10   H18   S    
C2    C34   A    
C33   O8    A    
C31   N1    A    
C21   C22   A    
C32   N2    A    
O11   H17   S    
C14   C19   A    
C12   O4    A    
C23   O5    A    
C29   N2    A    
O10   H16   S    
O2    Zn2   S    
C30   N1    A    
C7    C8    A    
C25   H3    S    
O5    Zn1   S    
C4    C5    A    
C4    H6    S    
C25   C26   A    
C28   H15   S    
C37   C38   A    
C2    C38   A    
C31   C32   A    
C22   H2    S    
C17   C18   A    
C15   O9    S    
C32   O11   S    
O4    Zn2   S    
O7    Zn1   S    
C34   H9    S    
C22   C24   A    
C9    H20   S    
C3    C4    A    
C12   O3    A    
C23   O6    A    
C21   H8    S    
O6    Zn2   S    
C25   C30   A    
C28   C29   A    
C1    C20   S    
C26   H14   S    
C31   H13   S    
O12   H19   S    
C11   C12   S    
C6    C7    A    
C13   O12   S    
C14   H10   S    
C5    C10   A    
N1    Zn2   S    
C11   C13   A    
C27   H4    S    
C33   C35   S    
O8    Zn2   S    
O9    H11   S    
C10   C11   A    
C7    C13   A    
C20   C21   A    
C3    C37   A    
C27   C28   A    
C14   C15   A    
C2    C9    A    
C1    O1    A    
