data_mof_unit_64311.cif
_audit_creation_date              2012-12-10T20:27:08-0500
_audit_creation_method            fapswitch 2.2
_symmetry_space_group_name_H-M    P1
_symmetry_Int_Tables_number       1
_space_group_crystal_system       tetragonal
_cell_length_a                    25.651238
_cell_length_b                    25.651238
_cell_length_c                    40.024744
_cell_angle_alpha                 90.0
_cell_angle_beta                  90.0
_cell_angle_gamma                 90.0
_cell_volume                      26335.7216432

loop_
_atom_site_label
_atom_site_type_symbol
_atom_type_description
_atom_site_fract_x
_atom_site_fract_y
_atom_site_fract_z
_atom_type_partial_charge
Br1   Br    Br    0.000076 0.616370 0.377516 -0.320437
Br2   Br    Br    0.499924 0.883630 0.122484 -0.320436
Br3   Br    Br    0.883630 0.499974 0.877516 -0.320379
Br4   Br    Br    0.116370 0.500076 0.122484 -0.320436
Br5   Br    Br    0.499974 0.883630 0.877516 -0.320379
Br6   Br    Br    0.500076 0.116370 0.122484 -0.320436
Br7   Br    Br    0.116370 0.500026 0.877516 -0.320379
Br8   Br    Br    0.883630 0.499924 0.122484 -0.320436
Br9   Br    Br    0.999974 0.383630 0.622484 -0.320379
Br10  Br    Br    0.383630 0.999924 0.377516 -0.320436
Br11  Br    Br    0.616370 0.000026 0.622484 -0.320379
Br12  Br    Br    0.999924 0.383630 0.377516 -0.320436
Br13  Br    Br    0.000026 0.616370 0.622484 -0.320379
Br14  Br    Br    0.616370 0.000076 0.377516 -0.320437
Br15  Br    Br    0.383630 0.999974 0.622484 -0.320379
Br16  Br    Br    0.500026 0.116370 0.877516 -0.320379
C1    C     C_1   0.171588 0.328412 0.250000 0.097184
C2    C     C_1   0.828412 0.328412 0.250000 0.097175
C3    C     C_1   0.500000 1.000000 0.515006 0.024685
C4    C     C_1   0.500000 0.000000 0.984994 0.024685
C5    C     C_1   0.500000 0.000000 0.015006 0.024683
C6    C     C_1   0.000000 0.500000 0.984994 0.024685
C7    C     C_1   0.000000 0.500000 0.015006 0.024683
C8    C     C_R   0.500000 0.000000 0.341260 0.539219
C9    C     C_R   0.500000 0.000000 0.658740 0.539220
C10   C     C_R   0.000000 0.500000 0.341260 0.539219
C11   C     C_R   0.000000 0.500000 0.658740 0.539220
C12   C     C_R   0.000000 0.500000 0.841260 0.539220
C13   C     C_1   0.671588 0.828412 0.750000 0.097128
C14   C     C_R   1.000000 0.500000 0.158740 0.539219
C15   C     C_R   0.500000 0.000000 0.841260 0.539220
C16   C     C_R   0.500000 0.000000 0.158740 0.539219
C17   C     C_R   0.598986 0.098986 0.250000 0.517889
C18   C     C_R   0.401014 0.901014 0.750000 0.517901
C19   C     C_R   0.901014 0.598986 0.250000 0.517886
C20   C     C_R   0.098986 0.401014 0.750000 0.517859
C21   C     C_R   0.401014 0.901014 0.250000 0.517890
C22   C     C_R   0.598986 0.098986 0.750000 0.517901
C23   C     C_R   0.098986 0.401014 0.250000 0.517886
C24   C     C_1   0.328412 0.171588 0.250000 0.097184
C25   C     C_R   0.901014 0.598986 0.750000 0.517859
C26   C     C_R   0.598986 0.901014 0.750000 0.517859
C27   C     C_R   0.401014 0.098986 0.250000 0.517886
C28   C     C_R   0.901014 0.401014 0.750000 0.517901
C29   C     C_R   0.098986 0.598986 0.250000 0.517889
C30   C     C_R   0.401014 0.098986 0.750000 0.517859
C31   C     C_R   0.598986 0.901014 0.250000 0.517886
C32   C     C_R   0.098986 0.598986 0.750000 0.517901
C33   C     C_R   0.901014 0.401014 0.250000 0.517890
C34   C     C_R   0.203678 0.242398 0.268207 0.236033
C35   C     C_1   0.828412 0.328412 0.750000 0.097217
C36   C     C_R   0.796769 0.758050 0.732350 0.236026
C37   C     C_R   0.757777 0.203503 0.267992 0.236034
C38   C     C_R   0.242758 0.795962 0.731361 0.236043
C39   C     C_R   0.796322 0.757602 0.268207 0.236033
C40   C     C_R   0.203231 0.241950 0.732350 0.236026
C41   C     C_R   0.242223 0.796497 0.267992 0.236034
C42   C     C_R   0.757242 0.204038 0.731361 0.236043
C43   C     C_R   0.204038 0.757242 0.731361 0.236043
C44   C     C_R   0.796497 0.242223 0.267992 0.236034
C45   C     C_R   0.758050 0.796769 0.732350 0.236026
C46   C     C_1   0.171588 0.671588 0.250000 0.097175
C47   C     C_R   0.242398 0.203678 0.268207 0.236033
C48   C     C_R   0.795962 0.242758 0.731361 0.236043
C49   C     C_R   0.203503 0.757777 0.267992 0.236034
C50   C     C_R   0.241950 0.203231 0.732350 0.236026
C51   C     C_R   0.757602 0.796322 0.268207 0.236033
C52   C     C_R   0.703231 0.741950 0.767650 0.236026
C53   C     C_R   0.296322 0.257602 0.231793 0.236033
C54   C     C_R   0.257242 0.704038 0.768639 0.236043
C55   C     C_R   0.742223 0.296497 0.232008 0.236034
C56   C     C_R   0.296769 0.258050 0.767650 0.236026
C57   C     C_1   0.328412 0.171588 0.750000 0.097128
C58   C     C_R   0.703678 0.742398 0.231793 0.236033
C59   C     C_R   0.742758 0.295962 0.768639 0.236043
C60   C     C_R   0.257777 0.703503 0.232008 0.236034
C61   C     C_R   0.703503 0.257777 0.232008 0.236034
C62   C     C_R   0.295962 0.742758 0.768639 0.236043
C63   C     C_R   0.257602 0.296322 0.231793 0.236033
C64   C     C_R   0.741950 0.703231 0.767650 0.236026
C65   C     C_R   0.296497 0.742223 0.232008 0.236034
C66   C     C_R   0.704038 0.257242 0.768639 0.236043
C67   C     C_R   0.742398 0.703678 0.231793 0.236033
C68   C     C_1   0.671588 0.828412 0.250000 0.097184
C69   C     C_R   0.258050 0.296769 0.767650 0.236026
C70   C     C_R   0.211322 0.288678 0.250000 -0.041389
C71   C     C_R   0.788678 0.711322 0.750000 -0.041386
C72   C     C_R   0.711322 0.211322 0.250000 -0.041388
C73   C     C_1   0.828412 0.671588 0.750000 0.097128
C74   C     C_R   0.288678 0.788678 0.750000 -0.041392
C75   C     C_R   0.788678 0.711322 0.250000 -0.041389
C76   C     C_R   0.211322 0.288678 0.750000 -0.041387
C77   C     C_R   0.288678 0.788678 0.250000 -0.041388
C78   C     C_R   0.711322 0.211322 0.750000 -0.041392
C79   C     C_R   0.211322 0.711322 0.750000 -0.041392
C80   C     C_R   0.788678 0.288678 0.250000 -0.041388
C81   C     C_R   0.711322 0.788678 0.750000 -0.041386
C82   C     C_R   0.288678 0.211322 0.250000 -0.041389
C83   C     C_R   0.788678 0.288678 0.750000 -0.041392
C84   C     C_1   0.671588 0.171588 0.250000 0.097175
C85   C     C_R   0.211322 0.711322 0.250000 -0.041388
C86   C     C_R   0.288678 0.211322 0.750000 -0.041387
C87   C     C_R   0.711322 0.788678 0.250000 -0.041389
C88   C     C_R   0.000027 0.546962 0.431883 -0.072835
C89   C     C_R   0.999992 0.453038 0.568117 -0.072833
C90   C     C_R   0.453038 0.999973 0.431883 -0.072835
C91   C     C_R   0.546962 0.000008 0.568117 -0.072833
C92   C     C_R   0.999973 0.453038 0.431883 -0.072835
C93   C     C_R   0.000008 0.546962 0.568117 -0.072833
C94   C     C_R   0.546962 0.000027 0.431883 -0.072835
C95   C     C_1   0.328412 0.828412 0.750000 0.097217
C96   C     C_R   0.453038 0.999992 0.568117 -0.072833
C97   C     C_R   0.500008 0.046962 0.931883 -0.072833
C98   C     C_R   0.499973 0.953038 0.068117 -0.072835
C99   C     C_R   0.953038 0.499992 0.931883 -0.072833
C100  C     C_R   0.046962 0.500027 0.068117 -0.072835
C101  C     C_R   0.499992 0.953038 0.931883 -0.072833
C102  C     C_R   0.500027 0.046962 0.068117 -0.072835
C103  C     C_R   0.046962 0.500008 0.931883 -0.072833
C104  C     C_R   0.953038 0.499973 0.068117 -0.072835
C105  C     C_1   0.361585 0.138415 0.250000 0.110594
C106  C     C_1   0.828412 0.671588 0.250000 0.097184
C107  C     C_1   0.638415 0.861585 0.750000 0.110509
C108  C     C_1   0.861585 0.361585 0.250000 0.110583
C109  C     C_1   0.138415 0.638415 0.750000 0.110647
C110  C     C_1   0.638415 0.861585 0.250000 0.110594
C111  C     C_1   0.361585 0.138415 0.750000 0.110509
C112  C     C_1   0.138415 0.638415 0.250000 0.110582
C113  C     C_1   0.861585 0.361585 0.750000 0.110647
C114  C     C_1   0.361585 0.861585 0.750000 0.110647
C115  C     C_1   0.638415 0.138415 0.250000 0.110582
C116  C     C_1   0.861585 0.638415 0.750000 0.110509
C117  C     C_1   0.171588 0.328412 0.750000 0.097128
C118  C     C_1   0.138415 0.361585 0.250000 0.110594
C119  C     C_1   0.638415 0.138415 0.750000 0.110647
C120  C     C_1   0.361585 0.861585 0.250000 0.110583
C121  C     C_1   0.138415 0.361585 0.750000 0.110509
C122  C     C_1   0.861585 0.638415 0.250000 0.110594
C123  C     C_R   0.000000 0.500000 0.378602 0.032109
C124  C     C_R   0.000000 0.500000 0.621398 0.032104
C125  C     C_R   0.500000 0.000000 0.378602 0.032109
C126  C     C_R   0.500000 0.000000 0.621398 0.032104
C127  C     C_R   0.500000 1.000000 0.878602 0.032104
C128  C     C_1   0.328412 0.828412 0.250000 0.097175
C129  C     C_R   0.500000 1.000000 0.121398 0.032109
C130  C     C_R   1.000000 0.500000 0.878602 0.032104
C131  C     C_R   1.000000 0.500000 0.121398 0.032109
C132  C     C_R   0.000029 0.547700 0.396998 0.141112
C133  C     C_R   0.999991 0.452300 0.603002 0.141116
C134  C     C_R   0.452300 0.999971 0.396998 0.141112
C135  C     C_R   0.547700 0.000009 0.603002 0.141116
C136  C     C_R   0.999971 0.452300 0.396998 0.141112
C137  C     C_R   0.000009 0.547700 0.603002 0.141116
C138  C     C_R   0.547700 0.000029 0.396998 0.141112
C139  C     C_1   0.671588 0.171588 0.750000 0.097217
C140  C     C_R   0.452300 0.999991 0.603002 0.141116
C141  C     C_R   0.500009 0.047700 0.896998 0.141116
C142  C     C_R   0.499971 0.952300 0.103002 0.141112
C143  C     C_R   0.952300 0.499991 0.896998 0.141116
C144  C     C_R   0.047700 0.500029 0.103002 0.141112
C145  C     C_R   0.499991 0.952300 0.896998 0.141116
C146  C     C_R   0.500029 0.047700 0.103002 0.141112
C147  C     C_R   0.047700 0.500009 0.896998 0.141116
C148  C     C_R   0.952300 0.499971 0.103002 0.141112
C149  C     C_R   1.000000 0.500000 0.449208 -0.027253
C150  C     C_1   0.171588 0.671588 0.750000 0.097217
C151  C     C_R   0.000000 0.500000 0.550791 -0.027254
C152  C     C_R   0.500000 0.000000 0.449208 -0.027253
C153  C     C_R   0.500000 0.000000 0.550791 -0.027254
C154  C     C_R   0.500000 0.000000 0.949209 -0.027254
C155  C     C_R   0.500000 1.000000 0.050791 -0.027253
C156  C     C_R   0.000000 0.500000 0.949209 -0.027254
C157  C     C_R   0.000000 0.500000 0.050791 -0.027253
C158  C     C_1   1.000000 0.500000 0.484994 0.024683
C159  C     C_1   1.000000 0.500000 0.515006 0.024685
C160  C     C_1   0.500000 1.000000 0.484994 0.024683
Cl1   Cl    Cl    0.232830 0.145489 0.291087 -0.381395
Cl2   Cl    Cl    0.767565 0.145094 0.290601 -0.381445
Cl3   Cl    Cl    0.855521 0.768181 0.710170 -0.381682
Cl4   Cl    Cl    0.145489 0.232830 0.291087 -0.381395
Cl5   Cl    Cl    0.766357 0.146302 0.707939 -0.381252
Cl6   Cl    Cl    0.232435 0.854906 0.290601 -0.381445
Cl7   Cl    Cl    0.144479 0.231819 0.710170 -0.381682
Cl8   Cl    Cl    0.854511 0.767170 0.291087 -0.381395
Cl9   Cl    Cl    0.731819 0.644479 0.789830 -0.381682
Cl10  Cl    Cl    0.267170 0.354511 0.208913 -0.381395
Cl11  Cl    Cl    0.353698 0.733642 0.792061 -0.381252
Cl12  Cl    Cl    0.768181 0.855521 0.710170 -0.381682
Cl13  Cl    Cl    0.645094 0.267565 0.209399 -0.381445
Cl14  Cl    Cl    0.268181 0.355521 0.789830 -0.381682
Cl15  Cl    Cl    0.732830 0.645489 0.208913 -0.381395
Cl16  Cl    Cl    0.646302 0.266358 0.792061 -0.381252
Cl17  Cl    Cl    0.354906 0.732435 0.209399 -0.381445
Cl18  Cl    Cl    0.732435 0.354906 0.209399 -0.381445
Cl19  Cl    Cl    0.266358 0.646302 0.792061 -0.381252
Cl20  Cl    Cl    0.354511 0.267170 0.208913 -0.381395
Cl21  Cl    Cl    0.644479 0.731819 0.789830 -0.381682
Cl22  Cl    Cl    0.267565 0.645094 0.209399 -0.381445
Cl23  Cl    Cl    0.854906 0.232435 0.290601 -0.381445
Cl24  Cl    Cl    0.733642 0.353698 0.792061 -0.381252
Cl25  Cl    Cl    0.645489 0.732830 0.208913 -0.381395
Cl26  Cl    Cl    0.355521 0.268181 0.789830 -0.381682
Cl27  Cl    Cl    0.146302 0.766357 0.707939 -0.381252
Cl28  Cl    Cl    0.767170 0.854511 0.291087 -0.381395
Cl29  Cl    Cl    0.231819 0.144479 0.710170 -0.381682
Cl30  Cl    Cl    0.145094 0.767565 0.290601 -0.381445
Cl31  Cl    Cl    0.853698 0.233642 0.707939 -0.381252
Cl32  Cl    Cl    0.233642 0.853698 0.707939 -0.381252
H1    H     H_    0.000048 0.583399 0.445611 0.175354
H2    H     H_    0.499952 0.916601 0.054389 0.175354
H3    H     H_    0.916601 0.499986 0.945611 0.175355
H4    H     H_    0.083399 0.500048 0.054389 0.175354
H5    H     H_    0.499986 0.916601 0.945611 0.175355
H6    H     H_    0.500048 0.083399 0.054389 0.175354
H7    H     H_    0.083399 0.500014 0.945611 0.175355
H8    H     H_    0.916601 0.499952 0.054389 0.175354
H9    H     H_    0.999986 0.416601 0.554389 0.175355
H10   H     H_    0.416601 0.999952 0.445611 0.175354
H11   H     H_    0.583399 0.000014 0.554389 0.175355
H12   H     H_    0.999952 0.416601 0.445611 0.175354
H13   H     H_    0.000014 0.583399 0.554389 0.175355
H14   H     H_    0.583399 0.000048 0.445611 0.175354
H15   H     H_    0.416601 0.999986 0.554389 0.175355
H16   H     H_    0.500014 0.083399 0.945611 0.175355
O1    O     O_3   0.500000 0.000000 0.250000 -0.494320
O2    O     O_R   0.457230 0.000000 0.675160 -0.494403
O3    O     O_R   1.000000 0.542770 0.324840 -0.494407
O4    O     O_R   1.000000 0.457230 0.675160 -0.494403
O5    O     O_R   0.957230 0.500000 0.824840 -0.494403
O6    O     O_R   0.042770 0.500000 0.175160 -0.494407
O7    O     O_R   0.500000 0.957230 0.824840 -0.494403
O8    O     O_R   0.500000 0.042770 0.175160 -0.494407
O9    O     O_R   0.042770 0.500000 0.824840 -0.494403
O10   O     O_R   0.957230 0.500000 0.175160 -0.494407
O11   O     O_R   0.500000 0.042770 0.824840 -0.494403
O12   O     O_3   0.500000 0.000000 0.750000 -0.494317
O13   O     O_R   0.500000 0.957230 0.175160 -0.494407
O14   O     O_R   0.602770 0.060140 0.269640 -0.509447
O15   O     O_R   0.397230 0.939860 0.730360 -0.509385
O16   O     O_R   0.939860 0.602770 0.269640 -0.509436
O17   O     O_R   0.060140 0.397230 0.730360 -0.509506
O18   O     O_R   0.397230 0.939860 0.269640 -0.509447
O19   O     O_R   0.602770 0.060140 0.730360 -0.509385
O20   O     O_R   0.060140 0.397230 0.269640 -0.509436
O21   O     O_R   0.939860 0.602770 0.730360 -0.509506
O22   O     O_R   0.602770 0.939860 0.730360 -0.509506
O23   O     O_3   0.000000 0.500000 0.250000 -0.494320
O24   O     O_R   0.397230 0.060140 0.269640 -0.509436
O25   O     O_R   0.939860 0.397230 0.730360 -0.509385
O26   O     O_R   0.060140 0.602770 0.269640 -0.509447
O27   O     O_R   0.397230 0.060140 0.730360 -0.509506
O28   O     O_R   0.602770 0.939860 0.269640 -0.509436
O29   O     O_R   0.060140 0.602770 0.730360 -0.509385
O30   O     O_R   0.939860 0.397230 0.269640 -0.509447
O31   O     O_R   0.102770 0.560140 0.769640 -0.509385
O32   O     O_R   0.897230 0.439860 0.230360 -0.509447
O33   O     O_R   0.439860 0.102770 0.769640 -0.509506
O34   O     O_3   0.000000 0.500000 0.750000 -0.494317
O35   O     O_R   0.560140 0.897230 0.230360 -0.509436
O36   O     O_R   0.897230 0.439860 0.769640 -0.509385
O37   O     O_R   0.102770 0.560140 0.230360 -0.509447
O38   O     O_R   0.560140 0.897230 0.769640 -0.509506
O39   O     O_R   0.439860 0.102770 0.230360 -0.509436
O40   O     O_R   0.102770 0.439860 0.230360 -0.509436
O41   O     O_R   0.897230 0.560140 0.769640 -0.509506
O42   O     O_R   0.439860 0.897230 0.230360 -0.509447
O43   O     O_R   0.560140 0.102770 0.769640 -0.509385
O44   O     O_R   0.897230 0.560140 0.230360 -0.509436
O45   O     O_R   0.457230 0.000000 0.324840 -0.494406
O46   O     O_R   0.102770 0.439860 0.769640 -0.509506
O47   O     O_R   0.560140 0.102770 0.230360 -0.509447
O48   O     O_R   0.439860 0.897230 0.769640 -0.509385
O49   O     O_R   0.542770 0.000000 0.675160 -0.494403
O50   O     O_R   1.000000 0.457230 0.324840 -0.494406
O51   O     O_R   0.000000 0.542770 0.675160 -0.494403
O52   O     O_R   0.542770 0.000000 0.324840 -0.494407
Zn1   Zn    Zn3+2 0.500000 0.061050 0.221990 1.035835
Zn2   Zn    Zn3+2 1.000000 0.438950 0.278010 1.035835
Zn3   Zn    Zn3+2 0.438950 0.000000 0.721990 1.035829
Zn4   Zn    Zn3+2 0.561050 1.000000 0.278010 1.035835
Zn5   Zn    Zn3+2 0.000000 0.438950 0.721990 1.035829
Zn6   Zn    Zn3+2 0.000000 0.561050 0.278010 1.035835
Zn7   Zn    Zn3+2 0.561050 0.000000 0.721990 1.035829
Zn8   Zn    Zn3+2 0.438950 1.000000 0.278010 1.035835
Zn9   Zn    Zn3+2 0.500000 0.938950 0.778010 1.035829
Zn10  Zn    Zn3+2 0.938950 0.500000 0.221990 1.035835
Zn11  Zn    Zn3+2 0.061050 0.500000 0.778010 1.035829
Zn12  Zn    Zn3+2 0.500000 0.938950 0.221990 1.035835
Zn13  Zn    Zn3+2 0.500000 0.061050 0.778010 1.035829
Zn14  Zn    Zn3+2 0.061050 0.500000 0.221990 1.035835
Zn15  Zn    Zn3+2 0.938950 0.500000 0.778010 1.035829
Zn16  Zn    Zn3+2 0.000000 0.561050 0.721990 1.035829

loop_
_geom_bond_atom_site_label_1
_geom_bond_atom_site_label_2
_ccdc_geom_bond_type
O34   Zn15  S    
O8    Zn1   S    
C4    C154  S    
C92   C149  A    
C16   O8    A    
C27   O39   A    
C117  C121  T    
C66   C78   A    
C63   Cl10  S    
C33   O30   A    
C54   C62   A    
O12   Zn3   S    
C2    C80   S    
C50   C86   A    
C25   O41   A    
C9    C126  S    
C49   C85   A    
O46   Zn11  S    
C26   O38   A    
C37   Cl2   S    
C42   C78   A    
C126  C140  A    
C56   C69   A    
C35   C113  T    
C84   C115  T    
O33   Zn13  S    
C14   C131  S    
C103  H7    S    
O9    Zn11  S    
C59   Cl24  S    
C62   C74   A    
C57   C111  T    
C24   C105  T    
Br9   C133  S    
C73   C116  T    
O25   Zn5   S    
C100  C157  A    
C16   C129  S    
C42   Cl5   S    
C90   C134  A    
C20   O17   A    
C74   C95   S    
C11   O51   A    
C38   C74   A    
C47   C82   A    
O14   Zn4   S    
O51   Zn16  S    
C19   C122  S    
C24   C82   S    
C125  C138  A    
C12   O5    A    
C16   O13   A    
C29   C112  S    
O34   Zn16  S    
C104  C157  A    
O31   Zn11  S    
C123  C136  A    
C60   C85   A    
C119  C139  T    
C152  C160  S    
O1    Zn8   S    
C88   C132  A    
C158  C159  T    
C98   C142  A    
C9    O49   A    
C17   O14   A    
C93   C151  A    
C44   Cl23  S    
O19   Zn7   S    
C32   C109  S    
C3    C160  T    
C94   C152  A    
C101  C154  A    
C69   C76   A    
C48   C83   A    
C102  C146  A    
Br6   C146  S    
C61   C72   A    
C31   O35   A    
C54   Cl19  S    
C75   C106  S    
C15   O7    A    
C125  C134  A    
O13   Zn12  S    
C39   C75   A    
C39   Cl8   S    
O45   Zn8   S    
C9    O2    A    
C51   Cl28  S    
C19   O44   A    
C37   C72   A    
C93   C137  A    
C20   C121  S    
C27   O24   A    
O23   Zn6   S    
O6    Zn14  S    
C12   O9    A    
O2    Zn3   S    
C46   C85   S    
C91   C135  A    
C53   C82   A    
C17   C115  S    
C76   C117  S    
C88   C149  A    
O36   Zn15  S    
C58   C67   A    
C41   C77   A    
C17   O47   A    
C22   O19   A    
Br3   C143  S    
C34   C47   A    
O26   Zn6   S    
C25   C116  S    
C18   O48   A    
O23   Zn2   S    
O12   Zn7   S    
C43   C79   A    
C88   H1    S    
O23   Zn10  S    
C131  C144  A    
O18   Zn8   S    
C41   Cl6   S    
C37   C44   A    
C26   C107  S    
C127  C141  A    
O44   Zn10  S    
C38   C43   A    
C6    C7    T    
O21   Zn16  S    
C68   C110  T    
C98   C155  A    
C48   Cl31  S    
C123  C132  A    
C51   C87   A    
C1    C70   S    
O49   Zn7   S    
O1    Zn12  S    
O52   Zn4   S    
C30   C111  S    
O5    Zn15  S    
C106  C122  T    
C10   C123  S    
Br8   C148  S    
C103  C147  A    
C10   O50   A    
C50   Cl29  S    
C92   C136  A    
C78   C139  S    
C55   Cl18  S    
C89   C133  A    
C49   Cl30  S    
C42   C48   A    
C101  C145  A    
C149  C158  S    
C5    C155  S    
C33   C108  S    
Br7   C147  S    
C53   Cl20  S    
C89   C151  A    
O15   Zn3   S    
O34   Zn11  S    
C66   Cl16  S    
O24   Zn8   S    
C90   C152  A    
C126  C135  A    
C34   Cl4   S    
C22   O43   A    
C97   H16   S    
C94   C138  A    
O42   Zn12  S    
C29   O26   A    
C28   O36   A    
C35   C83   S    
C65   C77   A    
C67   Cl15  S    
C95   C114  T    
C29   O37   A    
C96   C153  A    
O43   Zn13  S    
C8    C125  S    
Br2   C142  S    
O37   Zn14  S    
C59   C83   A    
Br15  C140  S    
C21   C120  S    
O32   Zn10  S    
O22   Zn7   S    
C102  H6    S    
O40   Zn14  S    
C22   C119  S    
C14   O10   A    
C32   O31   A    
C101  H5    S    
C18   O15   A    
Br13  C137  S    
C31   O28   A    
C72   C84   S    
C77   C128  S    
C91   H11   S    
C44   C80   A    
O12   Zn13  S    
Br11  C135  S    
C57   C86   S    
C90   H10   S    
C7    C157  S    
C38   Cl32  S    
C71   C73   S    
C96   C140  A    
C96   H15   S    
C53   C63   A    
O29   Zn16  S    
C104  H8    S    
O28   Zn4   S    
C52   C64   A    
C94   H14   S    
O3    Zn6   S    
C55   C61   A    
C93   H13   S    
C31   C110  S    
C151  C159  S    
C23   O20   A    
C91   C153  A    
C104  C148  A    
C55   C80   A    
C79   C150  S    
C33   O32   A    
C27   C105  S    
C26   O22   A    
C20   O46   A    
C21   O18   A    
C60   Cl22  S    
C25   O21   A    
Br16  C141  S    
O50   Zn2   S    
C64   Cl9   S    
C36   C71   A    
C45   C81   A    
C19   O16   A    
O11   Zn13  S    
C41   C49   A    
C99   C156  A    
O48   Zn9   S    
C58   Cl25  S    
C60   C65   A    
C56   Cl26  S    
C39   C51   A    
C59   C66   A    
C100  C144  A    
C97   C154  A    
C130  C143  A    
C40   Cl7   S    
C13   C81   S    
C23   O40   A    
C64   C71   A    
C67   C75   A    
C130  C147  A    
C103  C156  A    
C12   C130  S    
C11   C124  S    
C47   Cl1   S    
O4    Zn5   S    
C99   H3    S    
C8    O45   A    
C36   C45   A    
C61   Cl13  S    
Br5   C145  S    
C98   H2    S    
C10   O3    A    
C54   C79   A    
C28   C113  S    
C36   Cl3   S    
C120  C128  T    
O39   Zn1   S    
Br10  C134  S    
C89   H9    S    
C46   C112  T    
C129  C142  A    
O30   Zn2   S    
C6    C156  S    
C14   O6    A    
Br4   C144  S    
C15   O11   A    
C102  C155  A    
C30   O33   A    
C40   C50   A    
C13   C107  T    
O23   Zn14  S    
O10   Zn10  S    
O12   Zn9   S    
O1    Zn4   S    
C131  C148  A    
C109  C150  T    
O34   Zn5   S    
O7    Zn9   S    
C21   O42   A    
C45   Cl12  S    
C52   C81   A    
C15   C127  S    
O35   Zn12  S    
C11   O4    A    
C56   C86   A    
O27   Zn3   S    
C30   O27   A    
C69   Cl14  S    
C34   C70   A    
C65   Cl17  S    
Br12  C136  S    
C92   H12   S    
C43   Cl27  S    
C28   O25   A    
O47   Zn1   S    
O38   Zn9   S    
C4    C5    T    
C18   C114  S    
O17   Zn5   S    
C100  H4    S    
C129  C146  A    
O20   Zn2   S    
C3    C153  S    
C1    C118  T    
O41   Zn15  S    
C68   C87   S    
O1    Zn1   S    
C99   C143  A    
C52   Cl21  S    
Br1   C132  S    
O16   Zn6   S    
C62   Cl11  S    
C124  C137  A    
C97   C141  A    
C32   O29   A    
C40   C76   A    
C124  C133  A    
C127  C145  A    
C63   C70   A    
Br14  C138  S    
C2    C108  T    
C58   C87   A    
C23   C118  S    
C8    O52   A    
