data_mof_unit_35980.cif
_audit_creation_date              2012-12-10T19:24:07-0500
_audit_creation_method            fapswitch 2.2
_symmetry_space_group_name_H-M    P1
_symmetry_Int_Tables_number       1
_space_group_crystal_system       triclinic
_cell_length_a                    10.507595
_cell_length_b                    10.507538
_cell_length_c                    9.775567
_cell_angle_alpha                 90.486339
_cell_angle_beta                  89.51027
_cell_angle_gamma                 89.768322
_cell_volume                      1079.22267487

loop_
_atom_site_label
_atom_site_type_symbol
_atom_type_description
_atom_site_fract_x
_atom_site_fract_y
_atom_site_fract_z
_atom_type_partial_charge
C1    C     C_R   0.500155 0.257727 0.499339 0.932737
C2    C     C_R   0.499845 0.742272 0.500661 0.932737
C3    C     C_3   0.496645 0.960925 0.632000 -0.271483
C4    C     C_3   0.503355 0.039075 0.368000 -0.271483
C5    C     C_3   0.470317 0.389186 0.047828 -0.080904
C6    C     C_3   0.529683 0.610814 0.952171 -0.080904
C7    C     C_3   0.581174 0.418481 0.949802 -0.052716
C8    C     C_3   0.418826 0.581519 0.050198 -0.052716
C9    C     C_3   0.389044 0.470741 0.952254 -0.080918
C10   C     C_3   0.610956 0.529259 0.047746 -0.080918
C11   C     C_R   0.257728 0.500060 0.500615 0.932669
C12   C     C_R   0.742272 0.499940 0.499385 0.932669
C13   C     C_3   0.039100 0.503283 0.631987 -0.271404
C14   C     C_3   0.960900 0.496717 0.368013 -0.271404
C15   C     C_3   0.958251 0.399365 0.564704 0.509553
C16   C     C_3   0.041749 0.600635 0.435296 0.509553
C17   C     C_3   0.877070 0.500828 0.497887 -0.068757
C18   C     C_3   0.122930 0.499172 0.502113 -0.068757
C19   C     C_3   0.956472 0.607268 0.563383 -0.319382
C20   C     C_3   0.043528 0.392732 0.436617 -0.319382
C21   C     C_3   0.600627 0.041715 0.564734 0.509551
C22   C     C_3   0.399373 0.958285 0.435266 0.509551
C23   C     C_3   0.607271 0.956412 0.436673 -0.319317
C24   C     C_3   0.392729 0.043588 0.563326 -0.319317
C25   C     C_3   0.500766 0.877070 0.502152 -0.068752
C26   C     C_3   0.499233 0.122930 0.497848 -0.068752
H1    H     H_    0.073924 0.503205 0.738906 0.162166
H2    H     H_    0.926076 0.496795 0.261094 0.162166
H3    H     H_    0.917293 0.695176 0.611801 0.154290
H4    H     H_    0.082707 0.304824 0.388199 0.154290
H5    H     H_    0.695180 0.917182 0.388304 0.154282
H6    H     H_    0.304819 0.082818 0.611696 0.154282
H7    H     H_    0.649540 0.349818 0.902716 0.160508
H8    H     H_    0.350459 0.650182 0.097284 0.160508
H9    H     H_    0.445239 0.295769 0.092686 0.122337
H10   H     H_    0.554761 0.704231 0.907314 0.122337
H11   H     H_    0.295507 0.446017 0.907467 0.122344
H12   H     H_    0.704493 0.553983 0.092533 0.122344
N1    N     N_3   0.499910 0.500030 0.863290 -0.079042
N2    N     N_3   0.500090 0.499970 0.136710 -0.079042
O1    O     O_R   0.500010 0.313960 0.616610 -0.594887
O2    O     O_R   0.499990 0.686040 0.383390 -0.594887
O3    O     O_R   0.500060 0.313950 0.383350 -0.645914
O4    O     O_R   0.499940 0.686050 0.616650 -0.645914
O5    O     O_R   0.313930 0.499970 0.616610 -0.645906
O6    O     O_R   0.686070 0.500030 0.383390 -0.645906
O7    O     O_R   0.313980 0.499960 0.383350 -0.594861
O8    O     O_R   0.686020 0.500040 0.616650 -0.594861
Zn1   Zn    Zn3+2 0.499970 0.500010 0.655740 0.964189
Zn2   Zn    Zn3+2 0.500030 0.499990 0.344260 0.964189
O9    O     O_3   0.907811 0.294131 0.632400 -0.717253
H13   H     H_    0.982539 0.244772 0.663646 0.321009
O10   O     O_3   0.092189 0.705869 0.367600 -0.717253
H14   H     H_    0.017461 0.755228 0.336354 0.321009
O11   O     O_3   0.705859 0.092118 0.632455 -0.717299
H15   H     H_    0.755166 0.017374 0.663748 0.320979
O12   O     O_3   0.294141 0.907882 0.367545 -0.717299
H16   H     H_    0.244834 0.982626 0.336252 0.320979
H17   H     H_    0.496660 0.926117 0.738928 0.162182
H18   H     H_    0.503339 0.073883 0.261072 0.162182

loop_
_geom_bond_atom_site_label_1
_geom_bond_atom_site_label_2
_ccdc_geom_bond_type
C12   C17   S    
O4    Zn1   S    
C7    C10   S    
C4    C26   S    
C21   C26   S    
C6    H10   S    
O3    Zn2   S    
C5    C9    S    
C6    N1    S    
C14   C16   S    
C15   O9    S    
O7    Zn2   S    
C4    C22   S    
O6    Zn2   S    
C11   O7    A    
C12   O8    A    
O5    Zn1   S    
C10   H12   S    
C14   H2    S    
C4    H18   S    
C22   O12   S    
C9    H11   S    
O12   H16   S    
C21   O11   S    
C11   C18   S    
C8    H8    S    
O10   H14   S    
C7    H7    S    
C14   C17   S    
C3    C24   S    
C15   C20   S    
C13   C18   S    
C2    O2    A    
C16   C19   S    
N2    Zn2   S    
C5    H9    S    
C16   C18   S    
O8    Zn1   S    
C17   C19   S    
O2    Zn2   S    
C2    C25   S    
C18   C20   S    
C13   C15   S    
C21   C23   S    
C1    C26   S    
C22   C24   S    
O11   H15   S    
C3    C21   S    
C11   O5    A    
C6    C10   S    
C13   C19   S    
O9    H13   S    
C19   H3    S    
C14   C20   S    
C3    C25   S    
C23   C25   S    
C6    C8    S    
C3    H17   S    
C12   O6    A    
C5    N2    S    
O1    Zn1   S    
C24   H6    S    
C5    C7    S    
C4    C23   S    
C7    N1    S    
C16   O10   S    
C13   H1    S    
C10   N2    S    
C20   H4    S    
C8    N2    S    
N1    Zn1   S    
C15   C17   S    
C1    O3    A    
C9    N1    S    
C2    O4    A    
C1    O1    A    
C24   C26   S    
C8    C9    S    
C22   C25   S    
C23   H5    S    
