data_mof_unit_62680.cif
_audit_creation_date              2012-12-10T19:42:44-0500
_audit_creation_method            fapswitch 2.2
_symmetry_space_group_name_H-M    P1
_symmetry_Int_Tables_number       1
_space_group_crystal_system       triclinic
_cell_length_a                    30.653972
_cell_length_b                    30.56594
_cell_length_c                    22.038987
_cell_angle_alpha                 90.00101
_cell_angle_beta                  46.701268
_cell_angle_gamma                 89.999892
_cell_volume                      15028.6853907

loop_
_atom_site_label
_atom_site_type_symbol
_atom_type_description
_atom_site_fract_x
_atom_site_fract_y
_atom_site_fract_z
_atom_type_partial_charge
C1    C     C_R   0.190463 0.189866 0.499166 0.876702
C2    C     C_R   0.809536 0.189866 0.500835 0.876492
C3    C     C_R   0.690463 0.689866 0.499166 0.876702
C4    C     C_R   0.309536 0.689866 0.500835 0.876491
C5    C     C_R   0.095388 0.155875 0.562714 0.108234
C6    C     C_R   0.904606 0.155852 0.437253 0.108222
C7    C     C_R   0.595390 0.655868 0.562726 0.108292
C8    C     C_R   0.404607 0.655859 0.437264 0.108150
C9    C     C_R   0.157663 0.156184 0.500555 -0.083494
C10   C     C_R   0.842333 0.156185 0.499451 -0.083337
C11   C     C_R   0.657664 0.656184 0.500553 -0.083486
C12   C     C_R   0.342334 0.656184 0.499449 -0.083333
C13   C     C_R   0.188318 0.120585 0.445805 -0.212395
C14   C     C_R   0.811673 0.120606 0.554248 -0.212719
C15   C     C_R   0.688320 0.620591 0.445788 -0.212438
C16   C     C_R   0.311676 0.620599 0.554230 -0.212668
C17   C     C_R   0.156189 0.088371 0.445901 -0.223480
C18   C     C_R   0.843802 0.088390 0.554150 -0.223648
C19   C     C_R   0.656192 0.588377 0.445885 -0.223493
C20   C     C_R   0.343805 0.588385 0.554134 -0.223629
C21   C     C_R   0.093574 0.091372 0.502586 -0.095586
C22   C     C_R   0.906421 0.091371 0.497419 -0.095551
C23   C     C_R   0.593575 0.591372 0.502586 -0.095607
C24   C     C_R   0.406422 0.591371 0.497418 -0.095522
C25   C     C_R   0.063591 0.123432 0.564323 0.147001
C26   C     C_R   0.936401 0.123409 0.435645 0.147068
C27   C     C_R   0.563593 0.623425 0.564334 0.147031
C28   C     C_R   0.436403 0.623416 0.435657 0.147031
C29   C     C_3   0.015889 0.154488 0.589664 -0.502418
C30   C     C_3   0.984136 0.154455 0.410221 -0.502329
C31   C     C_3   0.515880 0.654478 0.589703 -0.502378
C32   C     C_3   0.484126 0.654465 0.410262 -0.502356
C33   C     C_3   0.051185 0.190349 0.587568 -0.472093
C34   C     C_3   0.948841 0.190318 0.412316 -0.472242
C35   C     C_3   0.551176 0.690339 0.587606 -0.472124
C36   C     C_3   0.448831 0.690327 0.412356 -0.472193
C37   C     C_R   0.017213 0.248167 0.044658 -0.184325
C38   C     C_R   0.982771 0.249521 0.955341 -0.184357
C39   C     C_R   0.517150 0.746752 0.044657 -0.184278
C40   C     C_R   0.482805 0.750939 0.955343 -0.184394
C41   C     C_R   0.956493 0.248879 0.086737 0.169678
C42   C     C_R   0.043492 0.248881 0.913262 0.169594
C43   C     C_R   0.456480 0.748879 0.086737 0.169760
C44   C     C_R   0.543479 0.748882 0.913262 0.169504
C45   C     C_R   0.330433 0.250135 0.338898 0.902741
C46   C     C_R   0.669567 0.250137 0.661102 0.902316
C47   C     C_R   0.830433 0.750135 0.338898 0.902693
C48   C     C_R   0.169568 0.750137 0.661102 0.902361
C49   C     C_R   0.939195 0.249523 0.042230 -0.183163
C50   C     C_R   0.060788 0.248170 0.957770 -0.183078
C51   C     C_R   0.439230 0.750940 0.042231 -0.183244
C52   C     C_R   0.560726 0.746755 0.957768 -0.182985
C53   C     C_1   0.911926 0.249138 0.175648 -0.073288
C54   C     C_1   0.088066 0.249139 0.824352 -0.073296
C55   C     C_1   0.411920 0.749139 0.175648 -0.073265
C56   C     C_1   0.588060 0.749139 0.824352 -0.073308
C57   C     C_1   0.125408 0.249438 0.749690 -0.183570
C58   C     C_1   0.874589 0.249437 0.250310 -0.183567
C59   C     C_1   0.625406 0.749437 0.749690 -0.183572
C60   C     C_1   0.374586 0.749438 0.250310 -0.183555
C61   C     C_R   0.320970 0.382589 0.533643 0.132982
C62   C     C_R   0.679033 0.382586 0.466346 0.132981
C63   C     C_R   0.820970 0.882589 0.533642 0.132997
C64   C     C_R   0.179033 0.882586 0.466345 0.132958
C65   C     C_R   0.345102 0.342353 0.496240 -0.151912
C66   C     C_R   0.654899 0.342353 0.503759 -0.151934
C67   C     C_R   0.845102 0.842353 0.496240 -0.151915
C68   C     C_R   0.154899 0.842353 0.503759 -0.151936
C69   C     C_R   0.404521 0.333351 0.457252 -0.222997
C70   C     C_R   0.595477 0.333353 0.542756 -0.223379
C71   C     C_R   0.904521 0.833350 0.457252 -0.223032
C72   C     C_R   0.095477 0.833353 0.542756 -0.223325
C73   C     C_R   0.437962 0.364736 0.457377 0.168014
C74   C     C_R   0.562036 0.364738 0.542629 0.168029
C75   C     C_R   0.937962 0.864736 0.457377 0.168021
C76   C     C_R   0.062036 0.864738 0.542629 0.168009
C77   C     C_R   0.410270 0.405233 0.498313 -0.100555
C78   C     C_R   0.589731 0.405232 0.501683 -0.100566
C79   C     C_R   0.910270 0.905233 0.498313 -0.100551
C80   C     C_R   0.089731 0.905232 0.501683 -0.100570
C81   C     C_R   0.351860 0.412328 0.535840 0.082787
C82   C     C_R   0.648144 0.412324 0.464148 0.082727
C83   C     C_R   0.851860 0.912328 0.535838 0.082787
C84   C     C_R   0.148144 0.912324 0.464147 0.082721
C85   C     C_3   0.301932 0.444646 0.584043 -0.499201
C86   C     C_3   0.698074 0.444638 0.415935 -0.499151
C87   C     C_3   0.801932 0.944646 0.584041 -0.499193
C88   C     C_3   0.198074 0.944638 0.415934 -0.499149
C89   C     C_R   0.310394 0.309985 0.499247 0.897349
C90   C     C_R   0.689606 0.309985 0.500754 0.897138
C91   C     C_R   0.810394 0.809985 0.499246 0.897349
C92   C     C_R   0.189606 0.809985 0.500753 0.897137
C93   C     C_3   0.266046 0.410176 0.582454 -0.455719
C94   C     C_3   0.733960 0.410169 0.417526 -0.455738
C95   C     C_3   0.766047 0.910177 0.582452 -0.455710
C96   C     C_3   0.233960 0.910169 0.417525 -0.455740
C97   C     C_R   0.559126 0.439240 0.500359 0.888092
C98   C     C_R   0.440874 0.439241 0.499640 0.888116
C99   C     C_R   0.059126 0.939241 0.500359 0.888092
C100  C     C_R   0.940874 0.939241 0.499640 0.888115
C101  C     C_R   0.059985 0.060179 0.500482 0.881607
C102  C     C_R   0.940013 0.060179 0.499519 0.881590
C103  C     C_R   0.559985 0.560179 0.500482 0.881606
C104  C     C_R   0.440014 0.560179 0.499519 0.881591
C105  C     C_R   0.169564 0.249858 0.661115 0.906990
C106  C     C_R   0.830436 0.249857 0.338885 0.906919
C107  C     C_R   0.669564 0.749858 0.661115 0.907031
C108  C     C_R   0.330436 0.749857 0.338885 0.906877
C109  C     C_R   0.527741 0.211440 0.956752 -0.184025
C110  C     C_R   0.484090 0.211433 0.043627 -0.183962
C111  C     C_R   0.026359 0.711249 0.956707 -0.184014
C112  C     C_R   0.982707 0.711243 0.043582 -0.183967
C113  C     C_R   0.543638 0.250721 0.913265 0.169450
C114  C     C_R   0.456468 0.250706 0.086737 0.168822
C115  C     C_R   0.043628 0.750716 0.913265 0.169375
C116  C     C_R   0.956456 0.750704 0.086737 0.168892
C117  C     C_R   0.516028 0.290002 0.956364 -0.182687
C118  C     C_R   0.472369 0.289995 0.043260 -0.182353
C119  C     C_R   0.017387 0.790185 0.956408 -0.182648
C120  C     C_R   0.973727 0.790179 0.043305 -0.182390
C121  C     C_1   0.588169 0.250661 0.824349 -0.072444
C122  C     C_1   0.411879 0.250658 0.175651 -0.072559
C123  C     C_1   0.088165 0.750659 0.824349 -0.072455
C124  C     C_1   0.911873 0.750657 0.175651 -0.072544
C125  C     C_1   0.374548 0.250484 0.250317 -0.180637
C126  C     C_1   0.625468 0.250482 0.749683 -0.180585
C127  C     C_1   0.874546 0.750483 0.250317 -0.180630
C128  C     C_1   0.125467 0.750482 0.749683 -0.180588
H1    H     H_    0.471894 0.180947 0.077109 0.139727
H2    H     H_    0.549017 0.180956 0.923564 0.139101
H3    H     H_    0.969449 0.680612 0.077029 0.139647
H4    H     H_    0.046573 0.680619 0.923485 0.139166
H5    H     H_    0.030762 0.247683 0.078946 0.139294
H6    H     H_    0.969223 0.250086 0.921054 0.139363
H7    H     H_    0.530662 0.745168 0.078944 0.139238
H8    H     H_    0.469297 0.752603 0.921057 0.139433
H9    H     H_    0.424835 0.302101 0.426922 0.174042
H10   H     H_    0.575162 0.302106 0.573093 0.174050
H11   H     H_    0.924834 0.802100 0.426923 0.174048
H12   H     H_    0.075162 0.802106 0.573093 0.174056
H13   H     H_    0.284413 0.450558 0.647250 0.211273
H14   H     H_    0.715591 0.450545 0.352729 0.211345
H15   H     H_    0.784413 0.950559 0.647248 0.211290
H16   H     H_    0.215591 0.950545 0.352729 0.211332
H17   H     H_    0.312679 0.474488 0.547080 0.200898
H18   H     H_    0.687332 0.474483 0.452891 0.200854
H19   H     H_    0.812680 0.974488 0.547078 0.200895
H20   H     H_    0.187332 0.974483 0.452890 0.200855
H21   H     H_    0.228049 0.395940 0.644678 0.199107
H22   H     H_    0.771954 0.395928 0.355304 0.199110
H23   H     H_    0.728049 0.895941 0.644675 0.199136
H24   H     H_    0.271954 0.895928 0.355303 0.199082
H25   H     H_    0.255580 0.420237 0.545144 0.209198
H26   H     H_    0.744430 0.420234 0.454829 0.209188
H27   H     H_    0.755581 0.920238 0.545142 0.209185
H28   H     H_    0.244430 0.920234 0.454828 0.209196
H29   H     H_    0.528217 0.320481 0.922868 0.141304
H30   H     H_    0.451078 0.320473 0.076461 0.141719
H31   H     H_    0.030640 0.820809 0.922948 0.141362
H32   H     H_    0.953500 0.820803 0.076540 0.141680
H33   H     H_    0.236829 0.118972 0.400550 0.155034
H34   H     H_    0.763159 0.119010 0.599535 0.154836
H35   H     H_    0.736833 0.618984 0.400523 0.154998
H36   H     H_    0.263164 0.618998 0.599506 0.154855
H37   H     H_    0.179997 0.062021 0.400804 0.157805
H38   H     H_    0.819991 0.062056 0.599280 0.157728
H39   H     H_    0.680001 0.562031 0.400778 0.157803
H40   H     H_    0.319995 0.562046 0.599252 0.157724
H41   H     H_    0.014212 0.158296 0.541134 0.191557
H42   H     H_    0.985847 0.158281 0.458714 0.191541
H43   H     H_    0.514192 0.658291 0.541185 0.191547
H44   H     H_    0.485826 0.658286 0.458768 0.191552
H45   H     H_    0.972062 0.147540 0.653438 0.210167
H46   H     H_    0.027944 0.147484 0.346440 0.210226
H47   H     H_    0.472060 0.647523 0.653479 0.210206
H48   H     H_    0.527940 0.647501 0.346484 0.210197
H49   H     H_    0.070104 0.214954 0.537659 0.217131
H50   H     H_    0.929958 0.214941 0.462187 0.217152
H51   H     H_    0.570083 0.714950 0.537710 0.217123
H52   H     H_    0.429936 0.714945 0.462240 0.217166
H53   H     H_    0.027691 0.204147 0.650128 0.201260
H54   H     H_    0.972318 0.204093 0.349747 0.201245
H55   H     H_    0.527687 0.704130 0.650169 0.201308
H56   H     H_    0.472313 0.704109 0.349791 0.201210
H57   H     H_    0.107779 0.247690 0.925371 0.140714
H58   H     H_    0.892207 0.250091 0.074628 0.140635
H59   H     H_    0.607680 0.745175 0.925369 0.140802
H60   H     H_    0.392280 0.752608 0.074630 0.140553
O1    O     O_R   0.178350 0.230070 0.500010 -0.624192
O2    O     O_R   0.821650 0.230070 0.499990 -0.624200
O3    O     O_R   0.678350 0.730070 0.500010 -0.624191
O4    O     O_R   0.321650 0.730070 0.499990 -0.624191
O5    O     O_R   0.511410 0.454120 0.568820 -0.617110
O6    O     O_R   0.488590 0.454120 0.431180 -0.616970
O7    O     O_R   0.011410 0.954120 0.568820 -0.617093
O8    O     O_R   0.988590 0.954120 0.431180 -0.616987
O9    O     O_R   0.080260 0.045800 0.431140 -0.624812
O10   O     O_R   0.919740 0.045800 0.568860 -0.624935
O11   O     O_R   0.580260 0.545800 0.431140 -0.624826
O12   O     O_R   0.419740 0.545800 0.568860 -0.624918
O13   O     O_R   0.011410 0.045760 0.568860 -0.618884
O14   O     O_R   0.988590 0.045760 0.431140 -0.618806
O15   O     O_R   0.511410 0.545760 0.568860 -0.618872
O16   O     O_R   0.488590 0.545760 0.431140 -0.618815
O17   O     O_R   0.230030 0.178320 0.500020 -0.621874
O18   O     O_R   0.769970 0.178320 0.499980 -0.621821
O19   O     O_R   0.730030 0.678320 0.500020 -0.621869
O20   O     O_R   0.269970 0.678320 0.499980 -0.621835
O21   O     O_R   0.285150 0.275890 0.378020 -0.615602
O22   O     O_R   0.714850 0.275890 0.621980 -0.615312
O23   O     O_R   0.785150 0.775890 0.378020 -0.615568
O24   O     O_R   0.214850 0.775890 0.621980 -0.615347
O25   O     O_R   0.336840 0.224130 0.378040 -0.620215
O26   O     O_R   0.663160 0.224130 0.621960 -0.619923
O27   O     O_R   0.836840 0.724130 0.378040 -0.620179
O28   O     O_R   0.163160 0.724130 0.621960 -0.619955
O29   O     O_R   0.269970 0.321680 0.499990 -0.621463
O30   O     O_R   0.730030 0.321680 0.500010 -0.621478
O31   O     O_R   0.769970 0.821680 0.499990 -0.621474
O32   O     O_R   0.230030 0.821680 0.500010 -0.621478
O33   O     O_R   0.321650 0.269930 0.500010 -0.627051
O34   O     O_R   0.678350 0.269930 0.499990 -0.627014
O35   O     O_R   0.821650 0.769930 0.500010 -0.627040
O36   O     O_R   0.178350 0.769930 0.499990 -0.627014
O37   O     O_R   0.163160 0.275870 0.621980 -0.619220
O38   O     O_R   0.836840 0.275870 0.378020 -0.619200
O39   O     O_R   0.663160 0.775870 0.621980 -0.619254
O40   O     O_R   0.336840 0.775870 0.378020 -0.619164
O41   O     O_R   0.214850 0.224110 0.621990 -0.612971
O42   O     O_R   0.785150 0.224110 0.378010 -0.612952
O43   O     O_R   0.714850 0.724110 0.621990 -0.613004
O44   O     O_R   0.285150 0.724110 0.378010 -0.612915
O45   O     O_R   0.580260 0.454160 0.431100 -0.629512
O46   O     O_R   0.419740 0.454160 0.568900 -0.629591
O47   O     O_R   0.080260 0.954160 0.431100 -0.629524
O48   O     O_R   0.919740 0.954160 0.568900 -0.629574
Zn1   Zn    Zn3+2 0.215490 0.284560 0.500000 0.951528
Zn2   Zn    Zn3+2 0.784510 0.284560 0.500000 0.951783
Zn3   Zn    Zn3+2 0.715490 0.784560 0.500000 0.951529
Zn4   Zn    Zn3+2 0.284510 0.784560 0.500000 0.951789
Zn5   Zn    Zn3+2 0.284510 0.215440 0.500020 0.957395
Zn6   Zn    Zn3+2 0.715490 0.215440 0.499980 0.957689
Zn7   Zn    Zn3+2 0.784510 0.715440 0.500020 0.957407
Zn8   Zn    Zn3+2 0.215490 0.715440 0.499980 0.957691
Zn9   Zn    Zn3+2 0.045990 0.000000 0.408050 0.952625
Zn10  Zn    Zn3+2 0.954010 1.000000 0.591950 0.952242
Zn11  Zn    Zn3+2 0.545990 0.500000 0.408050 0.952630
Zn12  Zn    Zn3+2 0.454010 0.500000 0.591950 0.952240
C129  C     C_3   0.501079 0.353077 0.415582 -0.895276
H61   H     H_    0.522132 0.377832 0.425340 0.248616
H62   H     H_    0.500801 0.321599 0.440985 0.235740
H63   H     H_    0.529214 0.349275 0.347537 0.246996
C130  C     C_3   0.498917 0.353081 0.584433 -0.895516
H64   H     H_    0.477865 0.377834 0.574670 0.248656
H65   H     H_    0.499190 0.321601 0.559041 0.235819
H66   H     H_    0.470785 0.349288 0.652479 0.246798
C131  C     C_3   0.001079 0.853076 0.415583 -0.895309
H67   H     H_    0.022131 0.877832 0.425341 0.248615
H68   H     H_    0.000801 0.821599 0.440988 0.235753
H69   H     H_    0.029214 0.849275 0.347538 0.246974
C132  C     C_3   0.998917 0.853082 0.584434 -0.895449
H70   H     H_    0.977865 0.877834 0.574670 0.248651
H71   H     H_    0.999189 0.821600 0.559042 0.235807
H72   H     H_    0.970785 0.849289 0.652480 0.246832

loop_
_geom_bond_atom_site_label_1
_geom_bond_atom_site_label_2
_ccdc_geom_bond_type
O28   Zn8   S    
C83   C87   S    
C76   C132  S    
C88   C96   S    
O38   Zn2   S    
C107  O43   A    
O8    Zn9   S    
C2    O2    A    
O37   Zn1   S    
C14   C18   A    
C57   C105  S    
C111  C112  A    
C36   H52   S    
C3    C11   S    
C72   C76   A    
O1    Zn1   S    
C54   C57   T    
O12   Zn12  S    
C48   O28   A    
C35   H51   S    
C18   H38   S    
C58   C106  S    
C66   C90   S    
C38   C49   A    
O33   Zn5   S    
C16   H36   S    
C15   C19   A    
C32   H48   S    
C5    C33   S    
C129  H61   S    
C87   H19   S    
C37   C41   A    
O22   Zn2   S    
C15   H35   S    
C114  C118  A    
O21   Zn1   S    
O40   Zn4   S    
O19   Zn7   S    
C102  O10   A    
C89   O33   A    
C130  H64   S    
C101  O9    A    
O4    Zn4   S    
C35   H55   S    
C96   H24   S    
C99   O7    A    
C96   H28   S    
C7    C27   A    
C98   O6    A    
C110  H1    S    
C131  H67   S    
C8    C36   S    
C97   O5    A    
C92   O32   A    
C4    O4    A    
C30   H42   S    
C9    C13   A    
C51   H60   S    
C86   C94   S    
O46   Zn12  S    
C85   C93   S    
C64   C84   A    
C49   H58   S    
C12   C16   A    
C29   C33   S    
O35   Zn7   S    
C46   O26   A    
C87   C95   S    
C70   C74   A    
C45   O25   A    
C106  O38   A    
C69   C73   A    
C36   H56   S    
C52   H59   S    
C23   C27   A    
C4    C12   S    
C103  O15   A    
C1    O17   A    
C116  C120  A    
C110  C114  A    
C132  H71   S    
C60   C108  S    
O27   Zn7   S    
C8    C12   A    
O20   Zn8   S    
C21   C101  S    
C44   C52   A    
C11   C15   A    
C38   H6    S    
C39   C52   A    
C32   H44   S    
C97   O45   A    
C18   C22   A    
C55   C60   T    
O10   Zn10  S    
C25   C29   S    
C104  O12   A    
O18   Zn6   S    
C19   H39   S    
O17   Zn5   S    
C86   H18   S    
C41   C49   A    
C7    C11   A    
C73   C129  S    
C100  O8    A    
C69   H9    S    
C20   H40   S    
O7    Zn10  S    
C23   C103  S    
C129  H62   S    
O3    Zn3   S    
C115  C123  S    
O15   Zn12  S    
O29   Zn1   S    
C27   C31   S    
C80   C84   A    
C74   C130  S    
C76   C80   A    
C79   C100  S    
C28   C32   S    
C63   C95   S    
C1    C9    S    
C64   C96   S    
C10   C14   A    
C85   H13   S    
C62   C66   A    
C30   C34   S    
O45   Zn11  S    
C4    O20   A    
C31   H47   S    
C108  O40   A    
C82   C86   S    
C33   H49   S    
C34   H50   S    
C59   C107  S    
C6    C34   S    
C63   C83   A    
C68   C72   A    
C24   C104  S    
C105  O41   A    
C14   H34   S    
C19   C23   A    
C63   C67   A    
C5    C9    A    
O42   Zn6   S    
C3    O3    A    
C48   C128  S    
C99   O47   A    
C47   O27   A    
C44   C56   S    
C98   O46   A    
C92   O36   A    
C16   C20   A    
O39   Zn3   S    
C78   C97   S    
C67   C91   S    
C93   H21   S    
C88   H20   S    
C77   C98   S    
C103  O11   A    
C119  C120  A    
C13   H33   S    
O11   Zn11  S    
C39   H7    S    
O31   Zn3   S    
C41   C53   S    
C107  O39   A    
O24   Zn4   S    
C22   C26   A    
C42   C50   A    
C124  C127  T    
C5    C25   A    
C48   O24   A    
C123  C128  T    
C111  C115  A    
C43   C55   S    
C111  H4    S    
C26   C30   S    
C105  O37   A    
O6    Zn11  S    
C62   C94   S    
C80   C99   S    
C33   H53   S    
C8    C28   A    
O23   Zn3   S    
C118  H30   S    
C79   C83   A    
C95   H23   S    
O30   Zn2   S    
C72   H12   S    
C91   O35   A    
C2    C10   S    
C64   C68   A    
C104  O16   A    
C46   O22   A    
C112  C116  A    
C87   H15   S    
C86   H14   S    
C130  H65   S    
C108  O44   A    
C113  C117  A    
C17   H37   S    
O14   Zn9   S    
C21   C25   A    
C129  H63   S    
O13   Zn10  S    
C116  C124  S    
O44   Zn8   S    
C7    C35   S    
C46   C126  S    
C117  H29   S    
O36   Zn8   S    
C24   C28   A    
C94   H26   S    
C29   H45   S    
C78   C82   A    
C6    C10   A    
C132  H72   S    
C71   H11   S    
C53   C58   T    
C32   C36   S    
C106  O42   A    
C90   O34   A    
C6    C26   A    
C62   C82   A    
C109  C113  A    
C94   H22   S    
C40   C51   A    
C65   C89   S    
C115  C119  A    
C22   C102  S    
C56   C59   T    
C13   C17   A    
O26   Zn6   S    
C131  H69   S    
C3    O19   A    
O2    Zn2   S    
C130  H66   S    
C93   H25   S    
C102  O14   A    
C75   C131  S    
C121  C126  T    
O34   Zn6   S    
C61   C81   A    
C117  C118  A    
C42   C54   S    
C71   C75   A    
C37   C50   A    
C50   H57   S    
C70   H10   S    
C43   C51   A    
O41   Zn5   S    
C132  H70   S    
C84   C88   S    
C31   H43   S    
C47   C127  S    
C122  C125  T    
C65   C69   A    
C85   H17   S    
C31   C35   S    
O25   Zn5   S    
C68   C92   S    
O5    Zn12  S    
O47   Zn9   S    
C29   H41   S    
C34   H54   S    
C67   C71   A    
C95   H27   S    
O9    Zn9   S    
C112  H3    S    
C91   O31   A    
C47   O23   A    
C20   C24   A    
C37   H5    S    
C45   O21   A    
C90   O30   A    
O16   Zn11  S    
C100  O48   A    
C89   O29   A    
C114  C122  S    
C38   C42   A    
C61   C65   A    
O43   Zn7   S    
C40   C44   A    
C113  C121  S    
C66   C70   A    
C39   C43   A    
C119  H31   S    
C77   C81   A    
C74   C78   A    
C45   C125  S    
C109  H2    S    
C120  H32   S    
C73   C77   A    
C2    O18   A    
O32   Zn4   S    
C30   H46   S    
C101  O13   A    
C40   H8    S    
C131  H68   S    
C109  C110  A    
C61   C93   S    
C75   C79   A    
C88   H16   S    
C81   C85   S    
C1    O1    A    
O48   Zn10  S    
C17   C21   A    
