data_mof_unit_59940.cif
_audit_creation_date              2012-12-10T18:18:15-0500
_audit_creation_method            fapswitch 2.2
_symmetry_space_group_name_H-M    P1
_symmetry_Int_Tables_number       1
_space_group_crystal_system       triclinic
_cell_length_a                    14.010551
_cell_length_b                    14.971828
_cell_length_c                    15.444968
_cell_angle_alpha                 89.639487
_cell_angle_beta                  67.910148
_cell_angle_gamma                 89.53343
_cell_volume                      3001.85762112

loop_
_atom_site_label
_atom_site_type_symbol
_atom_type_description
_atom_site_fract_x
_atom_site_fract_y
_atom_site_fract_z
_atom_type_partial_charge
C1    C     C_R   0.498610 0.673174 0.502106 0.893558
C2    C     C_R   0.496636 0.768682 0.504194 -0.105638
C3    C     C_R   0.589289 0.184631 0.433440 0.024258
C4    C     C_R   0.410625 0.815480 0.566097 0.023515
C5    C     C_R   0.588164 0.091403 0.435092 0.125613
C6    C     C_R   0.411823 0.908700 0.564514 0.125341
C7    C     C_R   0.500938 0.046659 0.498473 0.023847
C8    C     C_R   0.499106 0.953432 0.501216 0.024166
C9    C     C_R   0.415392 0.095023 0.559103 0.126790
C10   C     C_R   0.584694 0.905056 0.440673 0.127548
C11   C     C_R   0.672444 0.041887 0.375178 -0.193779
C12   C     C_R   0.501425 0.326848 0.497799 0.894573
C13   C     C_R   0.327542 0.958216 0.624434 -0.193690
C14   C     C_R   0.670652 0.949300 0.378146 -0.229238
C15   C     C_R   0.329415 0.050792 0.621597 -0.228595
C16   C     C_R   0.435879 0.498380 0.676466 0.880148
C17   C     C_R   0.564110 0.498813 0.323565 0.878832
C18   C     C_R   0.176798 0.446528 0.561594 -0.062537
C19   C     C_R   0.823357 0.553043 0.437993 -0.065356
C20   C     C_R   0.227091 0.552903 0.437924 -0.068250
C21   C     C_R   0.773232 0.446285 0.561294 -0.065180
C22   C     C_R   0.127220 0.553807 0.436057 0.013614
C23   C     C_R   0.376124 0.437596 0.107133 -0.269700
C24   C     C_R   0.873388 0.444698 0.562459 0.019139
C25   C     C_R   0.050871 0.499331 0.499362 0.085489
C26   C     C_R   0.949669 0.499339 0.499324 0.086141
C27   C     C_R   0.075651 0.444890 0.562747 0.019383
C28   C     C_R   0.924814 0.553916 0.436093 0.018781
C29   C     C_R   0.101978 0.607640 0.372743 -0.219827
C30   C     C_R   0.898972 0.389967 0.624878 -0.225670
C31   C     C_R   0.001644 0.607733 0.372797 -0.210649
C32   C     C_R   0.999110 0.390277 0.625285 -0.204511
C33   C     C_R   0.396137 0.485203 0.777778 -0.115534
C34   C     C_R   0.616394 0.419768 0.898824 -0.297003
C35   C     C_R   0.603340 0.484685 0.222619 -0.084372
C36   C     C_R   0.256173 0.462191 0.927138 0.111148
C37   C     C_R   0.738725 0.442938 0.075873 0.121165
C38   C     C_R   0.291077 0.478227 0.830973 -0.202094
C39   C     C_R   0.706683 0.465129 0.170727 -0.283949
C40   C     C_R   0.466945 0.473350 0.820024 -0.252778
C41   C     C_R   0.531923 0.481644 0.180264 -0.247948
C42   C     C_R   0.436287 0.451738 0.914415 0.043150
C43   C     C_R   0.558836 0.452245 0.088787 0.021934
C44   C     C_R   0.328934 0.450484 0.971241 0.113610
C45   C     C_R   0.300253 0.439064 0.068852 0.065166
C46   C     C_R   0.664701 0.437001 0.033281 0.153899
C47   C     C_R   0.511844 0.438016 0.953694 0.064736
C48   C     C_R   0.481952 0.442942 0.050751 0.056887
C49   C     C_R   0.691863 0.417252 0.937683 0.090319
C50   C     C_R   0.417215 0.187170 0.556811 -0.282610
C51   C     C_R   0.582921 0.812893 0.443084 -0.283580
C52   C     C_R   0.503413 0.231380 0.495590 -0.105078
H1    H     H_    0.197496 0.405207 0.609714 0.128259
H2    H     H_    0.547204 0.484391 0.778440 0.168770
H3    H     H_    0.762718 0.466652 0.203581 0.159388
H4    H     H_    0.235484 0.486131 0.798054 0.169111
H5    H     H_    0.352052 0.224972 0.603847 0.152286
H6    H     H_    0.648166 0.775085 0.396191 0.150965
H7    H     H_    0.736493 0.912249 0.331450 0.146561
H8    H     H_    0.263609 0.087848 0.668339 0.147586
H9    H     H_    0.186031 0.371185 0.167430 0.193620
H10   H     H_    0.178286 0.483531 0.179765 0.194166
H11   H     H_    0.797603 0.334374 0.848647 0.178457
H12   H     H_    0.802584 0.594501 0.390018 0.127407
H13   H     H_    0.819634 0.444533 0.824300 0.196784
H14   H     H_    0.124073 0.510084 0.026056 0.203941
H15   H     H_    0.126426 0.396529 0.008052 0.207257
H16   H     H_    0.887050 0.483031 0.028032 0.187857
H17   H     H_    0.869378 0.373650 0.057159 0.183342
H18   H     H_    0.350122 0.428832 0.181980 0.153576
H19   H     H_    0.641197 0.403842 0.825435 0.142738
H20   H     H_    0.649315 0.276047 0.329120 0.189083
H21   H     H_    0.714176 0.265186 0.402583 0.214861
H22   H     H_    0.349988 0.723988 0.670208 0.186760
H23   H     H_    0.286802 0.594433 0.389933 0.135213
H24   H     H_    0.285633 0.735177 0.596346 0.216931
H25   H     H_    0.740206 0.074238 0.326070 0.173317
H26   H     H_    0.259742 0.925877 0.673500 0.174241
H27   H     H_    0.713560 0.404653 0.609208 0.132141
H28   H     H_    0.159763 0.649752 0.323283 0.143348
H29   H     H_    0.841458 0.347029 0.673436 0.134503
H30   H     H_    0.984135 0.649951 0.323414 0.140019
H31   H     H_    0.016660 0.347775 0.674444 0.144785
H32   H     H_    0.454312 0.504051 0.219749 0.161831
N1    N     N_R   0.249980 0.499930 0.499960 -0.100660
N2    N     N_R   0.750020 0.500070 0.500040 -0.100173
N3    N     N_3   0.194812 0.431680 0.131124 -0.494490
N4    N     N_3   0.796084 0.397252 0.878218 -0.432776
N5    N     N_3   0.146809 0.459108 0.976398 -0.471874
N6    N     N_3   0.846039 0.426058 0.024417 -0.431751
N7    N     N_3   0.675820 0.230654 0.366884 -0.476582
N8    N     N_3   0.323816 0.769517 0.632330 -0.474225
O1    O     O_R   0.419720 0.632140 0.499980 -0.627413
O2    O     O_R   0.580280 0.367860 0.500020 -0.628475
O3    O     O_R   0.580270 0.632160 0.499970 -0.611304
O4    O     O_R   0.419730 0.367840 0.500030 -0.612706
O5    O     O_R   0.373870 0.499980 0.632250 -0.623011
O6    O     O_R   0.626130 0.500020 0.367750 -0.622551
O7    O     O_R   0.534420 0.500000 0.632240 -0.616557
O8    O     O_R   0.465580 0.500000 0.367760 -0.619407
Zn1   Zn    Zn3+2 0.392800 0.499980 0.500010 0.934678
Zn2   Zn    Zn3+2 0.607200 0.500020 0.499990 0.934987

loop_
_geom_bond_atom_site_label_1
_geom_bond_atom_site_label_2
_ccdc_geom_bond_type
C36   N5    S    
C23   C45   A    
C22   C29   A    
H11   N4    S    
C15   H8    S    
C2    C4    A    
C23   H18   S    
C19   N2    A    
C7    C8    A    
C14   H7    S    
C46   C49   A    
C43   C46   A    
C31   H30   S    
C37   N6    S    
C45   N3    S    
C24   C26   A    
C5    C11   A    
C11   C14   A    
C16   O5    A    
H15   N5    S    
C3    N7    S    
C1    C2    S    
H22   N8    S    
H9    N3    S    
C18   H1    S    
C13   H26   S    
C39   H3    S    
C22   C25   A    
H16   N6    S    
C11   H25   S    
C43   C48   A    
O3    Zn2   S    
C40   C42   A    
O4    Zn1   S    
C41   C43   A    
C49   N4    S    
C12   O2    A    
C42   C44   A    
C10   C51   A    
C12   C52   S    
H14   N5    S    
C37   C39   A    
C18   N1    A    
C18   C27   A    
C33   C40   A    
H21   N7    S    
C4    C6    A    
C10   C14   A    
O1    Zn1   S    
C5    C7    A    
H20   N7    S    
C6    C8    A    
C25   C26   A    
O6    Zn2   S    
C41   H32   S    
C20   H23   S    
C35   C39   A    
C16   C33   S    
C50   C52   A    
C47   C48   A    
C19   H12   S    
C1    O3    A    
C20   N1    A    
C21   H27   S    
C51   H6    S    
C19   C28   A    
H24   N8    S    
C8    C10   A    
C20   C22   A    
C40   H2    S    
C13   C15   A    
C36   C44   A    
H17   N6    S    
N2    Zn2   S    
N1    Zn1   S    
C44   C45   A    
H13   N4    S    
C17   O6    A    
C7    C9    A    
C32   H31   S    
C21   N2    A    
C34   C49   A    
C23   C48   A    
C27   C32   A    
C50   H5    S    
C28   C31   A    
C9    C50   A    
C3    C5    A    
C3    C52   A    
C16   O7    A    
C25   C27   A    
H10   N3    S    
C26   C28   A    
C33   C38   A    
C30   H29   S    
C36   C38   A    
C9    C15   A    
C29   C31   A    
C6    C13   A    
C30   C32   A    
C29   H28   S    
O8    Zn1   S    
C42   C47   A    
C35   C41   A    
C17   O8    A    
C24   C30   A    
C2    C51   A    
O7    Zn2   S    
C38   H4    S    
O2    Zn2   S    
C1    O1    A    
C21   C24   A    
C12   O4    A    
C34   C47   A    
C17   C35   S    
C37   C46   A    
C34   H19   S    
O5    Zn1   S    
C4    N8    S    
