data_mof_unit_56000.cif
_audit_creation_date              2012-10-26T20:43:33-0400
_audit_creation_method            fapswitch 2.2
_symmetry_space_group_name_H-M    P1
_symmetry_Int_Tables_number       1
_space_group_crystal_system       triclinic
_cell_length_a                    10.826081
_cell_length_b                    9.676156
_cell_length_c                    23.554811
_cell_angle_alpha                 90.0
_cell_angle_beta                  92.571401
_cell_angle_gamma                 90.000028
_cell_volume                      2464.99612512

loop_
_atom_site_label
_atom_site_type_symbol
_atom_type_description
_atom_site_fract_x
_atom_site_fract_y
_atom_site_fract_z
_atom_type_partial_charge
C1    C     C_R   0.262597 0.499943 0.500598 0.580892
C2    C     C_R   0.590324 0.555427 0.704905 0.193537
C3    C     C_R   0.420931 0.564678 0.236021 0.089658
C4    C     C_R   0.579060 0.564688 0.763979 0.089661
C5    C     C_R   0.507450 0.478423 0.209566 0.095850
C6    C     C_R   0.492550 0.478423 0.790434 0.095849
C7    C     C_R   0.063926 0.374238 0.500915 -0.077695
C8    C     C_R   0.936130 0.624940 0.498818 -0.095405
C9    C     C_R   0.936074 0.374238 0.499085 -0.077693
C10   C     C_R   0.063870 0.624940 0.501182 -0.095405
C11   C     C_R   0.871460 0.499683 0.498788 0.046016
C12   C     C_R   0.737403 0.499943 0.499401 0.580895
C13   C     C_R   0.128539 0.499683 0.501212 0.046014
C14   C     C_R   0.433427 0.074389 0.459260 0.134408
C15   C     C_R   0.567827 0.926772 0.540186 0.122913
C16   C     C_R   0.566573 0.074389 0.540740 0.134410
C17   C     C_R   0.432173 0.926772 0.459814 0.122913
C18   C     C_R   0.500543 0.499078 0.391365 0.620791
C19   C     C_R   0.499457 0.499078 0.608635 0.620787
C20   C     C_R   0.601728 0.440315 0.881963 0.455346
C21   C     C_R   0.398279 0.440293 0.118037 0.455355
C22   C     C_R   0.386059 0.491731 0.879729 0.474716
C23   C     C_R   0.590765 0.397042 0.243740 0.085508
C24   C     C_R   0.613940 0.491752 0.120272 0.474718
C25   C     C_R   0.383411 0.472384 0.939084 0.051318
C26   C     C_R   0.616591 0.472407 0.060917 0.051318
C27   C     C_R   0.497817 0.461160 0.970052 -0.066913
C28   C     C_R   0.502187 0.461160 0.029949 -0.066913
C29   C     C_R   0.608102 0.450006 0.941280 0.002607
C30   C     C_R   0.391903 0.449982 0.058720 0.002611
C31   C     C_R   0.272495 0.465085 0.968832 0.255671
C32   C     C_R   0.727508 0.465134 0.031169 0.255670
C33   C     C_R   0.278090 0.448893 0.027845 -0.047225
C34   C     C_R   0.409244 0.397030 0.756260 0.085508
C35   C     C_R   0.721916 0.448941 0.972155 -0.047226
C36   C     C_2   0.668808 0.290466 0.217423 0.692854
C37   C     C_2   0.331218 0.290438 0.782577 0.692857
C38   C     C_2   0.346344 0.667366 0.202111 0.684313
C39   C     C_2   0.653633 0.667390 0.797888 0.684309
C40   C     C_2   0.362529 0.146580 0.413116 0.642385
C41   C     C_2   0.645792 0.857632 0.583929 0.657766
C42   C     C_2   0.637470 0.146580 0.586884 0.642386
C43   C     C_2   0.354208 0.857631 0.416071 0.657765
C44   C     C_R   0.595520 0.414233 0.303230 0.180344
C45   C     C_R   0.404486 0.414222 0.696771 0.180347
C46   C     C_R   0.504133 0.493581 0.328988 0.008447
C47   C     C_R   0.495867 0.493580 0.671012 0.008441
C48   C     C_R   0.409671 0.555419 0.295095 0.193537
Cl1   Cl    Cl    0.123616 0.464195 0.935085 -0.415478
Cl2   Cl    Cl    0.876388 0.464278 0.064915 -0.415483
Cl3   Cl    Cl    0.710664 0.328653 0.346122 -0.471054
Cl4   Cl    Cl    0.289348 0.328630 0.653880 -0.471046
Cl5   Cl    Cl    0.268257 0.595993 0.325583 -0.477412
Cl6   Cl    Cl    0.731739 0.596001 0.674419 -0.477410
Cu1   Cu    Cu3+1 0.500000 0.640660 0.500000 1.097038
Cu2   Cu    Cu3+1 0.500000 0.359340 0.500000 1.124585
H1    H     H_    0.192440 0.440173 0.049690 0.227862
H2    H     H_    0.818758 0.758494 0.815079 0.369713
H3    H     H_    0.202996 0.237755 0.386520 0.366463
H4    H     H_    0.820066 0.802356 0.608422 0.385366
H5    H     H_    0.797002 0.237758 0.613480 0.366461
H6    H     H_    0.179933 0.802354 0.391579 0.385367
H7    H     H_    0.807567 0.440240 0.950310 0.227867
H8    H     H_    0.111599 0.275999 0.502249 0.203712
H9    H     H_    0.888618 0.723114 0.496867 0.199234
H10   H     H_    0.888401 0.275999 0.497750 0.203712
H11   H     H_    0.111383 0.723113 0.503134 0.199234
H12   H     H_    0.838238 0.207167 0.210323 0.373516
H13   H     H_    0.161801 0.207104 0.789677 0.373514
H14   H     H_    0.181211 0.758449 0.184921 0.369719
N1    N     N_R   0.493177 0.469220 0.851950 -0.383997
N2    N     N_R   0.506826 0.469219 0.148051 -0.383993
N3    N     N_R   0.500000 0.852070 0.500000 -0.314352
N4    N     N_R   0.500000 0.147930 0.500000 -0.303688
O1    O     O_R   0.319640 0.618740 0.500000 -0.493412
O2    O     O_2   0.296374 0.404408 0.145553 -0.417814
O3    O     O_2   0.284010 0.535036 0.850033 -0.369355
O4    O     O_2   0.715982 0.535076 0.149968 -0.369357
O5    O     O_2   0.622250 0.210165 0.182535 -0.454987
O6    O     O_R   0.795459 0.283284 0.231556 -0.560307
O7    O     O_2   0.377788 0.210146 0.817466 -0.454984
O8    O     O_R   0.204567 0.283233 0.768445 -0.560306
O9    O     O_2   0.395565 0.735289 0.165607 -0.466980
O10   O     O_R   0.220685 0.686112 0.211058 -0.556555
O11   O     O_2   0.604399 0.735320 0.834386 -0.466973
O12   O     O_R   0.680360 0.381260 0.500000 -0.478049
O13   O     O_R   0.779295 0.686145 0.788945 -0.556554
O14   O     O_2   0.405428 0.155166 0.366085 -0.438139
O15   O     O_R   0.242731 0.192649 0.421641 -0.686566
O16   O     O_2   0.607946 0.845152 0.631747 -0.424573
O17   O     O_R   0.768956 0.829672 0.573179 -0.687753
O18   O     O_2   0.594572 0.155164 0.633915 -0.438137
O19   O     O_R   0.757267 0.192652 0.578359 -0.686567
O20   O     O_2   0.392053 0.845149 0.368253 -0.424575
O21   O     O_R   0.231044 0.829672 0.426821 -0.687751
O22   O     O_R   0.680360 0.618740 0.500000 -0.493411
O23   O     O_R   0.319640 0.381260 0.500000 -0.478050
O24   O     O_R   0.499960 0.618810 0.417880 -0.474430
O25   O     O_R   0.500040 0.381190 0.582120 -0.458923
O26   O     O_R   0.500040 0.618810 0.582120 -0.474431
O27   O     O_R   0.499960 0.381190 0.417880 -0.458924
O28   O     O_2   0.703638 0.404449 0.854448 -0.417802

loop_
_geom_bond_atom_site_label_1
_geom_bond_atom_site_label_2
_ccdc_geom_bond_type
C25   C31   A    
Cu1   Cu2   S    
C26   C32   A    
C38   O9    D    
C27   C29   A    
C34   C37   S    
C39   O13   S    
H2    O13   S    
C10   H11   S    
C21   O2    S    
C16   N4    A    
C14   N4    A    
C24   C26   A    
Cu2   O27   S    
C5    N2    S    
H5    O19   S    
C20   O28   S    
C15   C16   A    
C42   O19   S    
C3    C48   A    
C43   O20   D    
H3    O15   S    
C9    H10   S    
H13   O8    S    
C3    C38   S    
C22   C25   A    
Cu1   O26   S    
C43   O21   S    
C31   C33   A    
C20   N1    A    
C40   O15   S    
H14   O10   S    
Cu1   O1    S    
C41   O16   D    
C8    H9    S    
H6    O21   S    
C17   N3    A    
C14   C17   A    
C37   O7    D    
C6    N1    S    
Cu2   O23   S    
C31   Cl1   S    
C18   C46   S    
C44   C46   A    
C20   C29   A    
C45   C47   A    
C48   Cl5   S    
C46   C48   A    
Cu2   N4    S    
C21   N2    A    
C1    O1    A    
C32   C35   A    
C15   C41   S    
C4    C6    A    
C36   O6    S    
C1    O23   A    
C19   O25   A    
C45   Cl4   S    
C36   O5    D    
C23   C44   A    
C6    C34   A    
C18   O27   A    
C2    C4    A    
C17   C43   S    
Cu2   O12   S    
C5    C23   A    
C4    C39   S    
C19   O26   A    
C34   C45   A    
C9    C11   A    
C32   Cl2   S    
C44   Cl3   S    
C24   O4    S    
C41   O17   S    
C2    Cl6   S    
C37   O8    S    
C1    C13   S    
C39   O11   D    
H12   O6    S    
C16   C42   S    
C22   N1    A    
C24   N2    A    
H4    O17   S    
C7    C9    A    
C33   H1    S    
C30   C33   A    
C15   N3    A    
C22   O3    S    
Cu1   O22   S    
C3    C5    A    
C10   C13   A    
C11   C12   S    
C2    C47   A    
C25   C27   A    
C21   C30   A    
C29   C35   A    
C26   C28   A    
C12   O12   A    
C40   O14   D    
C28   C30   A    
C38   O10   S    
C8    C11   A    
Cu1   O24   S    
C42   O18   D    
C7    H8    S    
C14   C40   S    
Cu1   N3    S    
C7    C13   A    
C8    C10   A    
C23   C36   S    
C19   C47   S    
C27   C28   A    
C12   O22   A    
C35   H7    S    
C18   O24   A    
Cu2   O25   S    
