data_mof_unit_65908.cif
_audit_creation_date              2012-10-26T19:52:58-0400
_audit_creation_method            fapswitch 2.2
_symmetry_space_group_name_H-M    P1
_symmetry_Int_Tables_number       1
_space_group_crystal_system       triclinic
_cell_length_a                    10.946625
_cell_length_b                    9.098444
_cell_length_c                    7.795058
_cell_angle_alpha                 90.000255
_cell_angle_beta                  89.997641
_cell_angle_gamma                 89.971631
_cell_volume                      776.366280038

loop_
_atom_site_label
_atom_site_type_symbol
_atom_type_description
_atom_site_fract_x
_atom_site_fract_y
_atom_site_fract_z
_atom_type_partial_charge
C1    C     C_R   0.499962 0.220048 0.499980 0.552968
C2    C     C_1   0.500012 0.934631 0.499990 -0.019363
C3    C     C_R   0.500038 0.779952 0.499980 0.552922
C4    C     C_R   0.264875 0.505066 0.500057 0.556577
C5    C     C_R   0.735125 0.494945 0.500049 0.556577
C6    C     C_2   0.933632 0.508352 0.364299 -0.088244
C7    C     C_2   0.066369 0.491883 0.364272 -0.088273
C8    C     C_2   0.865969 0.474437 0.501953 0.425291
C9    C     C_2   0.134030 0.525586 0.501997 0.425240
C10   C     C_1   0.499988 0.065369 0.499990 -0.019351
Cu1   Cu    Cu3+1 0.500000 0.500000 0.669080 1.113386
Cu2   Cu    Cu3+1 0.500000 0.500000 0.330920 1.051865
F1    F     F_    0.915755 0.410038 0.643343 -0.563420
F2    F     F_    0.084237 0.589765 0.643531 -0.563418
H1    H     H_    0.890799 0.545938 0.246452 0.119257
H2    H     H_    0.109203 0.454482 0.246332 0.119338
N1    N     N_1   0.500000 0.500000 0.076820 -0.065697
N2    N     N_1   0.500000 0.500000 0.923180 -0.066946
O1    O     O_R   0.500000 0.288390 0.642760 -0.496621
O2    O     O_R   0.500000 0.711610 0.642760 -0.496644
O3    O     O_R   0.500000 0.288370 0.357190 -0.497573
O4    O     O_R   0.500000 0.711630 0.357190 -0.497595
O5    O     O_R   0.321940 0.500000 0.642750 -0.459359
O6    O     O_R   0.678060 0.500000 0.642750 -0.459392
O7    O     O_R   0.321930 0.500000 0.357180 -0.545772
O8    O     O_R   0.678070 0.500000 0.357180 -0.545753

loop_
_geom_bond_atom_site_label_1
_geom_bond_atom_site_label_2
_ccdc_geom_bond_type
Cu2   N1    S    
C5    C8    S    
C9    F2    S    
Cu1   N2    S    
C1    O3    A    
C6    C7    S    
Cu2   O7    S    
Cu1   Cu2   S    
C2    C3    S    
C4    C9    S    
C3    O2    A    
Cu1   O1    S    
C8    F1    S    
C5    O6    A    
Cu1   O5    S    
C7    H2    S    
C4    O7    A    
Cu1   O2    S    
C1    O1    A    
C5    O8    A    
C2    C10   T    
Cu2   O4    S    
Cu1   O6    S    
N1    N2    T    
C7    C9    D    
C4    O5    A    
C3    O4    A    
C6    C8    D    
C6    H1    S    
Cu2   O3    S    
C1    C10   S    
Cu2   O8    S    
