data_mof_unit_36993.cif
_audit_creation_date              2012-12-10T18:02:53-0500
_audit_creation_method            fapswitch 2.2
_symmetry_space_group_name_H-M    P1
_symmetry_Int_Tables_number       1
_space_group_crystal_system       triclinic
_cell_length_a                    10.817911
_cell_length_b                    9.612685
_cell_length_c                    27.681774
_cell_angle_alpha                 89.788517
_cell_angle_beta                  91.342078
_cell_angle_gamma                 89.98049
_cell_volume                      2877.79519424

loop_
_atom_site_label
_atom_site_type_symbol
_atom_type_description
_atom_site_fract_x
_atom_site_fract_y
_atom_site_fract_z
_atom_type_partial_charge
C1    C     C_R   0.262400 0.500062 0.500775 0.747951
C2    C     C_R   0.737604 0.500142 0.499536 0.763022
C3    C     C_R   0.444594 0.506699 0.100978 -0.128662
C4    C     C_R   0.439130 0.504211 0.896849 -0.128824
C5    C     C_R   0.409393 0.385406 0.126007 0.001438
C6    C     C_R   0.512868 0.600827 0.872096 0.011324
C7    C     C_R   0.368906 0.268790 0.100083 -0.166915
C8    C     C_R   0.582279 0.698868 0.898156 -0.156961
C9    C     C_R   0.486457 0.623828 0.127157 -0.123661
C10   C     C_R   0.372338 0.402104 0.870538 -0.121619
C11   C     C_R   0.484754 0.499025 0.354794 -0.247975
C12   C     C_R   0.490219 0.497407 0.644774 -0.224373
C13   C     C_R   0.370132 0.404119 0.973082 -0.036195
C14   C     C_R   0.482332 0.627437 0.024623 -0.035568
C15   C     C_R   0.496754 0.616359 0.973777 0.124199
C16   C     C_R   0.385986 0.395710 0.024108 0.121028
C17   C     C_R   0.434992 0.508279 0.947971 -0.011873
C18   C     C_R   0.437076 0.510432 0.049828 -0.011378
C19   C     C_R   0.290350 0.313961 0.946517 0.278749
C20   C     C_R   0.511085 0.750443 0.051018 0.274929
C21   C     C_R   0.297942 0.306256 0.895511 0.352338
C22   C     C_R   0.510529 0.748987 0.102280 0.362258
C23   C     C_R   0.496907 0.500050 0.407638 0.861192
C24   C     C_R   0.499260 0.499545 0.592249 0.905137
C25   C     C_R   0.358524 0.273316 0.050025 -0.110029
C26   C     C_R   0.575736 0.705295 0.948087 -0.118721
C27   C     C_R   0.063541 0.375568 0.495002 -0.195218
C28   C     C_R   0.936276 0.625556 0.506752 -0.186359
C29   C     C_R   0.935902 0.376222 0.492819 -0.218127
C30   C     C_R   0.064256 0.625284 0.507764 -0.195850
C31   C     C_R   0.871596 0.500808 0.499320 -0.014703
C32   C     C_R   0.128400 0.500277 0.501465 -0.007564
C33   C     C_R   0.440845 0.075561 0.463924 0.363436
C34   C     C_R   0.546474 0.926488 0.538910 0.348805
C35   C     C_R   0.559391 0.074282 0.536012 0.340755
C36   C     C_R   0.457688 0.928259 0.460646 0.324220
C37   C     C_R   0.416055 0.383061 0.176619 0.616030
C38   C     C_R   0.518881 0.594493 0.821708 0.578884
C39   C     C_R   0.496578 0.614008 0.178048 0.630742
C40   C     C_R   0.382161 0.399833 0.819639 0.661917
C41   C     C_R   0.549837 0.406348 0.277718 0.460899
C42   C     C_R   0.373727 0.554200 0.716051 0.458560
C43   C     C_R   0.558519 0.408693 0.328387 -0.411449
C44   C     C_R   0.386314 0.556112 0.665774 -0.447754
C45   C     C_R   0.395833 0.582722 0.330703 0.377422
C46   C     C_R   0.583906 0.436489 0.673743 0.414770
C47   C     C_R   0.384437 0.579801 0.280214 0.287324
C48   C     C_R   0.569250 0.426724 0.724079 0.269396
C49   C     C_R   0.463438 0.492790 0.253500 0.136869
C50   C     C_R   0.464970 0.489439 0.745188 0.157786
Cu1   Cu    Cu3+1 0.500000 0.640660 0.500000 0.995331
Cu2   Cu    Cu3+1 0.500000 0.359340 0.500000 1.007725
H1    H     H_    0.345628 0.172824 0.118383 0.192576
H2    H     H_    0.643717 0.770122 0.880106 0.192211
H3    H     H_    0.315269 0.603652 0.642903 0.159152
H4    H     H_    0.625120 0.342599 0.347253 0.172594
H5    H     H_    0.334067 0.177346 0.032038 0.211407
H6    H     H_    0.638830 0.776094 0.966049 0.191577
H7    H     H_    0.111097 0.277619 0.491088 0.154187
H8    H     H_    0.888304 0.723026 0.512117 0.155527
H9    H     H_    0.887966 0.279141 0.486121 0.131960
H10   H     H_    0.112670 0.722715 0.513387 0.142687
N1    N     N_R   0.459461 0.496094 0.201497 -0.460221
N2    N     N_R   0.454631 0.494791 0.796752 -0.457040
N3    N     N_R   0.500000 0.852070 0.500000 -0.273954
N4    N     N_R   0.500000 0.147930 0.500000 -0.275245
O1    O     O_R   0.319640 0.618740 0.500000 -0.584247
O2    O     O_R   0.680360 0.381260 0.500000 -0.590012
O3    O     O_R   0.680360 0.618740 0.500000 -0.574815
O4    O     O_R   0.319640 0.381260 0.500000 -0.569687
O5    O     O_R   0.500020 0.618770 0.430260 -0.519482
O6    O     O_R   0.499980 0.381230 0.569740 -0.515333
O7    O     O_R   0.499980 0.618770 0.569740 -0.552055
O8    O     O_R   0.500020 0.381230 0.430260 -0.530376
O9    O     O_2   0.378563 0.269142 0.200878 -0.503824
O10   O     O_2   0.588812 0.686884 0.797682 -0.537761
O11   O     O_2   0.320738 0.303808 0.793008 -0.442439
O12   O     O_2   0.543566 0.720709 0.204149 -0.442371
O13   O     O_3   0.321973 0.672586 0.356130 -0.519288
C51   C     C_3   0.212526 0.603115 0.368671 0.148277
H11   H     H_    0.233170 0.525469 0.397455 0.110034
H12   H     H_    0.167635 0.550466 0.336998 0.151287
C52   C     C_3   0.121711 0.708485 0.388159 -0.759620
H13   H     H_    0.099544 0.788291 0.360160 0.252527
H14   H     H_    0.035098 0.655071 0.398374 0.201437
H15   H     H_    0.162552 0.760489 0.420522 0.242884
O14   O     O_3   0.688686 0.385031 0.652017 -0.557446
C53   C     C_3   0.795621 0.457947 0.668429 0.130717
H16   H     H_    0.854474 0.386107 0.690506 0.209262
H17   H     H_    0.776372 0.551584 0.690863 0.145017
C54   C     C_3   0.868686 0.506540 0.625288 -0.834739
H18   H     H_    0.810282 0.575975 0.602135 0.252742
H19   H     H_    0.951783 0.565040 0.637895 0.216241
H20   H     H_    0.899202 0.415893 0.603958 0.250021
O15   O     O_3   0.378180 0.148941 0.427794 -0.530952
C55   C     C_3   0.256164 0.097899 0.421503 0.083502
H21   H     H_    0.209260 0.086561 0.456691 0.102665
H22   H     H_    0.255057 0.996266 0.402742 0.205421
C56   C     C_3   0.182165 0.198077 0.389582 -0.809069
H23   H     H_    0.087105 0.157272 0.383401 0.204905
H24   H     H_    0.176224 0.300562 0.407344 0.234140
H25   H     H_    0.227310 0.210928 0.354209 0.257636
O16   O     O_3   0.592299 0.858157 0.579502 -0.543792
C57   C     C_3   0.515873 0.887162 0.619259 0.100083
H26   H     H_    0.427343 0.829178 0.615365 0.142956
H27   H     H_    0.492682 0.999347 0.622934 0.167770
C58   C     C_3   0.581451 0.842237 0.666051 -0.710255
H28   H     H_    0.656130 0.916790 0.675714 0.245504
H29   H     H_    0.514656 0.839645 0.695898 0.234223
H30   H     H_    0.622835 0.737613 0.662025 0.238437
O17   O     O_3   0.625378 0.144262 0.571758 -0.523012
C59   C     C_3   0.754160 0.131068 0.564505 0.190123
H31   H     H_    0.792673 0.237064 0.561564 0.177287
H32   H     H_    0.779737 0.073511 0.531170 0.067427
C60   C     C_3   0.818120 0.063609 0.608226 -0.784396
H33   H     H_    0.799118 0.950413 0.609095 0.262827
H34   H     H_    0.919687 0.077968 0.605950 0.188377
H35   H     H_    0.786494 0.112450 0.642064 0.286429
O18   O     O_3   0.439073 0.865209 0.416378 -0.520750
C61   C     C_3   0.536999 0.900705 0.385067 0.141655
H36   H     H_    0.586225 0.803967 0.375194 0.165330
H37   H     H_    0.608758 0.971718 0.401023 0.076505
C62   C     C_3   0.485991 0.966576 0.338487 -0.684246
H38   H     H_    0.448545 0.071678 0.345512 0.257599
H39   H     H_    0.561352 0.977179 0.312166 0.212334
H40   H     H_    0.411809 0.901190 0.322153 0.300276
O19   O     O_3   0.294958 0.663314 0.258518 -0.681113
H41   H     H_    0.281975 0.635276 0.224434 0.332798
O20   O     O_3   0.658626 0.356518 0.751106 -0.708014
H42   H     H_    0.633218 0.349113 0.785108 0.337722
O21   O     O_3   0.273737 0.615056 0.737775 -0.686594
H43   H     H_    0.218511 0.656234 0.712439 0.323246
O22   O     O_3   0.626035 0.322814 0.250922 -0.675681
H44   H     H_    0.680627 0.268387 0.273212 0.324988
O23   O     O_3   0.233872 0.205323 0.869812 -0.659106
H45   H     H_    0.222724 0.122955 0.890906 0.338413
O24   O     O_3   0.528002 0.869734 0.128537 -0.655109
H46   H     H_    0.492193 0.948941 0.110000 0.332206
O25   O     O_3   0.197653 0.244945 0.970433 -0.740315
H47   H     H_    0.126622 0.229412 0.947859 0.348073
O26   O     O_3   0.528617 0.873877 0.026489 -0.751576
H48   H     H_    0.592126 0.928980 0.044310 0.334093

loop_
_geom_bond_atom_site_label_1
_geom_bond_atom_site_label_2
_ccdc_geom_bond_type
O14   C53   S    
C49   N1    S    
C5    C37   A    
C27   C29   A    
C50   N2    S    
C14   C18   A    
O15   C55   S    
C57   H27   S    
Cu2   N4    S    
C62   H38   S    
C47   C49   A    
C38   O10   S    
C22   O24   S    
C25   H5    S    
C3    C9    A    
C19   C21   A    
O20   H42   S    
Cu2   O8    S    
C9    C22   A    
C62   H39   S    
C60   H33   S    
C55   C56   S    
C9    C39   A    
C33   C36   A    
C8    C26   A    
C3    C18   A    
C10   C40   A    
C34   C35   A    
Cu1   N3    S    
C41   C49   A    
C36   O18   S    
C59   H31   S    
O17   C59   S    
C60   H34   S    
C55   H22   S    
C58   H28   S    
C6    C38   A    
C11   C43   A    
C42   O21   S    
C2    O3    A    
Cu2   O2    S    
C61   C62   S    
C48   C50   A    
C37   O9    S    
C41   C43   A    
C42   C44   A    
C51   C52   S    
C33   O15   S    
C34   N3    A    
C41   O22   S    
C57   H26   S    
C37   N1    A    
C61   H37   S    
C33   N4    A    
C38   N2    A    
C45   C47   A    
C10   C21   A    
C29   H9    S    
C13   C19   A    
Cu1   Cu2   S    
C39   O12   S    
C14   C20   A    
O23   H45   S    
C51   H12   S    
C8    H2    S    
C54   H18   S    
C5    C7    A    
C36   N3    A    
C62   H40   S    
C6    C8    A    
C35   N4    A    
C3    C5    A    
C1    C32   S    
C2    C31   S    
Cu2   O6    S    
C23   O5    A    
C54   H19   S    
C52   H13   S    
C53   C54   S    
O25   H47   S    
C60   H35   S    
C55   H21   S    
C56   H25   S    
C45   O13   S    
C16   C18   A    
Cu1   O1    S    
C26   H6    S    
C28   H8    S    
C42   C50   A    
C59   H32   S    
C12   C46   A    
C56   H24   S    
C53   H17   S    
C30   H10   S    
O22   H44   S    
C58   H30   S    
C48   O20   S    
C11   C45   A    
C4    C6    A    
C4    C17   A    
C23   O8    A    
C4    C10   A    
O21   H43   S    
C35   O17   S    
C61   H36   S    
C24   O6    A    
C46   O14   S    
C16   C25   A    
C15   C17   A    
C52   H14   S    
C27   C32   A    
C14   C15   A    
C20   O26   S    
C28   C31   A    
Cu1   O7    S    
C20   C22   A    
C51   H11   S    
C15   C26   A    
C40   N2    A    
O18   C61   S    
Cu1   O5    S    
C47   O19   S    
C39   N1    A    
O24   H46   S    
C12   C24   S    
C2    O2    A    
C1    O4    A    
C7    C25   A    
C56   H23   S    
C13   C17   A    
C28   C30   A    
C29   C31   A    
C27   H7    S    
O26   H48   S    
C54   H20   S    
C30   C32   A    
C44   H3    S    
C58   H29   S    
C34   O16   S    
C11   C23   S    
C1    O1    A    
C59   C60   S    
C24   O7    A    
Cu2   O4    S    
O13   C51   S    
C46   C48   A    
C43   H4    S    
C52   H15   S    
C53   H16   S    
C19   O25   S    
C13   C16   A    
O16   C57   S    
C7    H1    S    
C40   O11   S    
C12   C44   A    
Cu1   O3    S    
C21   O23   S    
C57   C58   S    
O19   H41   S    
