data_mof_unit_43700.cif
_audit_creation_date              2012-12-11T15:03:50-0500
_audit_creation_method            fapswitch 2.2
_symmetry_space_group_name_H-M    P1
_symmetry_Int_Tables_number       1
_space_group_crystal_system       triclinic
_cell_length_a                    8.179312
_cell_length_b                    14.999193
_cell_length_c                    18.798312
_cell_angle_alpha                 99.582125
_cell_angle_beta                  91.081456
_cell_angle_gamma                 99.565961
_cell_volume                      2239.86753353

loop_
_atom_site_label
_atom_site_type_symbol
_atom_type_description
_atom_site_fract_x
_atom_site_fract_y
_atom_site_fract_z
_atom_type_partial_charge
Ba1   Ba    Ba6+2 0.854120 0.540280 0.465540 1.663372
Ba2   Ba    Ba6+2 0.335710 0.459790 0.534460 1.641371
C1    C     C_3   0.737150 0.880057 0.314119 -0.360679
C2    C     C_3   0.678828 0.781677 0.325382 0.349118
C3    C     C_3   0.457122 0.315714 0.313458 0.315411
C4    C     C_3   0.433125 0.286749 0.232014 -0.400652
C5    C     C_3   0.052882 0.275271 0.730016 0.362355
C6    C     C_3   0.061353 0.250083 0.804924 -0.366495
C7    C     C_3   0.521783 0.221292 0.685710 0.363599
C8    C     C_3   0.478476 0.126040 0.705198 -0.371480
C9    C     C_R   0.994928 0.454519 0.046701 0.027555
C10   C     C_R   0.892639 0.410921 0.094569 0.037961
C11   C     C_R   0.729326 0.369140 0.071457 -0.082404
C12   C     C_3   0.146121 0.721533 0.268140 0.436674
C13   C     C_R   0.668198 0.370124 0.001565 -0.090245
C14   C     C_R   0.769920 0.411521 0.952662 0.032135
C15   C     C_R   0.933880 0.453849 0.975155 0.016374
C16   C     C_R   0.710572 0.410027 0.881602 -0.106738
C17   C     C_R   0.813815 0.448707 0.831199 -0.037105
C18   C     C_R   0.977653 0.493127 0.854097 -0.017882
C19   C     C_R   0.036582 0.495388 0.926233 -0.010899
C20   C     C_R   0.759865 0.443416 0.758260 -0.002942
C21   C     C_R   0.870172 0.478356 0.709320 -0.304801
C22   C     C_R   0.028206 0.527583 0.731639 0.074786
C23   C     C_3   0.113946 0.738128 0.191663 0.321800
C24   C     C_R   0.082518 0.536170 0.805402 -0.036205
C25   C     C_R   0.157938 0.498208 0.070039 -0.012345
C26   C     C_R   0.217072 0.502600 0.142748 -0.056326
C27   C     C_R   0.111803 0.459046 0.191550 -0.028538
C28   C     C_R   0.953528 0.410197 0.164914 -0.045038
C29   C     C_R   0.239776 0.585046 0.832012 -0.033881
C30   C     C_R   0.301795 0.581210 0.901062 0.033606
C31   C     C_R   0.199801 0.537618 0.949094 0.019525
C32   C     C_R   0.260603 0.538560 0.020512 -0.040188
C33   C     C_R   0.466763 0.619081 0.922195 -0.101974
C34   C     C_3   0.232326 0.764699 0.649596 0.821081
C35   C     C_R   0.528065 0.617493 0.991303 -0.082709
C36   C     C_R   0.423201 0.582397 0.042446 -0.007074
C37   C     C_R   0.378930 0.552446 0.166469 -0.096429
C38   C     C_R   0.477044 0.596236 0.115775 0.385945
C39   C     C_R   0.433331 0.557844 0.240042 0.013608
C40   C     C_R   0.324534 0.517546 0.287730 -0.306910
C41   C     C_R   0.166158 0.467423 0.265541 0.041754
C42   C     C_R   0.759699 0.236035 0.526550 -0.285763
C43   C     C_R   0.851979 0.177476 0.552557 0.014558
C44   C     C_R   0.790130 0.083109 0.542907 -0.126317
C45   C     C_3   0.386005 0.830686 0.687039 -0.366011
C46   C     C_R   0.633842 0.045986 0.505956 0.009216
C47   C     C_R   0.547827 0.107541 0.477618 -0.119554
C48   C     C_R   0.612100 0.200454 0.486580 0.035094
C49   C     C_R   0.412211 0.908139 0.453542 -0.140930
C50   C     C_R   0.345389 0.815147 0.445195 0.012367
C51   C     C_R   0.580024 0.788968 0.513402 0.031659
C52   C     C_R   0.644171 0.882722 0.524781 -0.126011
C53   C     C_R   0.563579 0.944735 0.494217 0.001875
C54   C     C_R   0.431800 0.755242 0.473090 -0.274596
C55   C     C_3   0.948161 0.255549 0.375573 0.309927
C56   C     C_3   0.912913 0.151407 0.355097 -0.394760
C57   C     C_3   0.729384 0.664388 0.682224 0.381437
C58   C     C_3   0.750999 0.691231 0.764155 0.331198
H1    H     H_    0.731324 0.774585 0.378480 0.087306
H2    H     H_    0.468264 0.791812 0.711904 0.104711
H3    H     H_    0.456939 0.868410 0.648411 0.032733
H4    H     H_    0.348278 0.880642 0.731533 0.108641
H5    H     H_    0.834581 0.280286 0.394643 0.003179
H6    H     H_    0.807164 0.129842 0.314554 0.128284
H7    H     H_    0.881579 0.119599 0.403230 0.067658
H8    H     H_    0.024321 0.126373 0.332018 0.130432
H9    H     H_    0.841832 0.640344 0.660608 0.007680
H10   H     H_    0.621923 0.607798 0.669347 -0.016156
H11   H     H_    0.670629 0.894173 0.266396 0.092040
H12   H     H_    0.748799 0.627729 0.787507 -0.100231
H13   H     H_    0.644652 0.724162 0.784380 -0.010159
H14   H     H_    0.541438 0.769381 0.325688 -0.063522
H15   H     H_    0.711486 0.928831 0.361979 0.080322
H16   H     H_    0.558395 0.376123 0.325038 0.061456
H17   H     H_    0.325666 0.229935 0.218598 0.128926
H18   H     H_    0.409603 0.345523 0.206768 0.054127
H19   H     H_    0.546456 0.263173 0.209811 0.118263
H20   H     H_    0.148302 0.680327 0.153125 -0.069172
H21   H     H_    0.925139 0.286634 0.718739 -0.064321
H22   H     H_    0.188565 0.239131 0.818253 0.146588
H23   H     H_    0.658022 0.236506 0.680620 -0.066738
H24   H     H_    0.458219 0.220787 0.632931 0.090224
H25   H     H_    0.515824 0.074396 0.661916 0.067932
H26   H     H_    0.342748 0.108725 0.711312 0.147651
H27   H     H_    0.070880 0.654386 0.273461 0.008402
H28   H     H_    0.544881 0.123661 0.756747 0.110351
H29   H     H_    0.648021 0.336132 0.107668 0.059209
H30   H     H_    0.541464 0.337625 0.985541 0.069003
H31   H     H_    0.584298 0.376993 0.865929 0.106146
H32   H     H_    0.873482 0.372627 0.198788 0.094539
H33   H     H_    0.319397 0.624240 0.799094 0.093905
H34   H     H_    0.548791 0.650173 0.885347 0.050836
H35   H     H_    0.656799 0.647454 0.005458 0.102347
H36   H     H_    0.279665 0.718622 0.276051 -0.119747
H37   H     H_    0.366428 0.522411 0.343366 0.070058
H38   H     H_    0.338677 0.949512 0.429758 0.075288
H39   H     H_    0.868624 0.040883 0.562809 0.061741
H40   H     H_    0.754000 0.905326 0.559540 0.069445
H41   H     H_    0.432464 0.086106 0.446449 0.074306
H42   H     H_    0.379464 0.683065 0.466637 0.080567
H43   H     H_    0.808624 0.308654 0.532777 0.068961
H44   H     H_    0.979206 0.738742 0.183189 0.088320
H45   H     H_    0.265216 0.727158 0.597168 -0.119752
O1    O     O_2   0.871030 0.438240 0.324420 -0.473681
O2    O     O_3   0.702989 0.740822 0.652735 -0.626218
O3    O     O_3   0.100430 0.792700 0.318105 -0.593170
O4    O     O_2   0.318670 0.561790 0.675630 -0.497825
O5    O     O_3   0.069120 0.554770 0.586270 -0.489466
O6    O     O_3   0.526680 0.394150 0.629950 -0.477322
O7    O     O_3   0.181967 0.706053 0.698509 -0.623658
O8    O     O_3   0.607620 0.388570 0.462320 -0.479256
O9    O     O_3   0.103380 0.345110 0.593380 -0.487815
O10   O     O_2   0.191859 0.182110 0.547597 -0.492166
O11   O     O_3   0.094861 0.203742 0.679331 -0.600386
O12   O     O_3   0.120590 0.445310 0.413740 -0.492368
O13   O     O_3   0.582100 0.611510 0.537680 -0.497090
O14   O     O_2   0.334040 0.276520 0.462890 -0.460783
O15   O     O_3   0.497886 0.242239 0.343600 -0.638926
O16   O     O_2   0.422426 0.456047 0.757417 -0.500291
O17   O     O_3   0.468583 0.285613 0.739547 -0.603882
O18   O     O_3   0.663040 0.605930 0.370050 -0.496683
O19   O     O_2   0.775477 0.548903 0.244808 -0.472780
O20   O     O_3   0.997791 0.292321 0.314374 -0.641932
O21   O     O_3   0.734686 0.720304 0.270047 -0.569302
O22   O     O_2   0.855660 0.723510 0.537160 -0.419837
O23   O     O_3   0.086340 0.654970 0.406630 -0.482203
O24   O     O_2   0.006904 0.818350 0.450870 -0.502898
P1    P     P_3+3 0.038110 0.412300 0.335300 0.969916
P2    P     P_3+3 0.679950 0.711710 0.558590 1.006429
P3    P     P_3+3 0.135152 0.771912 0.405601 0.960746
P4    P     P_3+3 0.151600 0.587780 0.664700 0.993065
P5    P     P_3+3 0.060679 0.226449 0.592441 0.944024
P6    P     P_3+3 0.648948 0.607602 0.278444 1.002253
P7    P     P_3+3 0.514606 0.274199 0.437648 0.947432
P8    P     P_3+3 0.545041 0.395811 0.722585 0.932071
H46   H     H_    0.046623 0.275030 0.419300 0.073059
O25   O     O_3   0.902084 0.752412 0.782820 -0.593572
C59   C     C_3   0.931045 0.768275 0.858415 0.207653
H47   H     H_    0.829435 0.798494 0.886600 0.001268
H48   H     H_    0.047987 0.818107 0.872445 0.058856
H49   H     H_    0.947073 0.704114 0.878071 0.010228
H50   H     H_    0.340102 0.335014 0.334789 0.014132
H51   H     H_    0.872555 0.892365 0.306242 0.167205
H52   H     H_    0.141764 0.339742 0.729724 0.094209
H53   H     H_    0.029598 0.306092 0.845805 0.073648
H54   H     H_    0.971888 0.186266 0.806935 0.112087
H55   H     H_    0.828386 0.472271 0.653524 0.067090
O26   O     O_3   0.621591 0.657562 0.137446 -0.639422
C60   C     C_3   0.587756 0.747939 0.141579 0.185091
H56   H     H_    0.501625 0.763158 0.185193 0.077213
H57   H     H_    0.535421 0.761182 0.090192 -0.002607
H58   H     H_    0.706058 0.796910 0.154071 0.074770
O27   O     O_3   0.208935 0.822440 0.181962 -0.637546
C61   C     C_3   0.183805 0.835039 0.110133 0.141327
H59   H     H_    0.051510 0.838413 0.097925 0.024123
H60   H     H_    0.225351 0.779930 0.071025 0.019650
H61   H     H_    0.259328 0.901298 0.103044 0.068679
O28   O     O_3   0.097211 0.810629 0.639254 -0.604111
C62   C     C_3   0.143396 0.891772 0.610367 0.233923
H62   H     H_    0.189774 0.950318 0.654219 0.016676
H63   H     H_    0.032461 0.908251 0.584386 0.083309
H64   H     H_    0.237237 0.884912 0.569385 -0.026194

loop_
_geom_bond_atom_site_label_1
_geom_bond_atom_site_label_2
_ccdc_geom_bond_type
C22   P4    S    
C46   C53   S    
C36   C38   A    
C44   H39   S    
Ba2   O4    S    
C23   O27   S    
C23   H20   S    
C39   C40   A    
C17   C18   A    
C59   H49   S    
O7    P4    S    
C45   H2    S    
C62   H62   S    
Ba2   O13   S    
C5    C6    S    
C37   C39   A    
C51   C52   A    
C20   P8    S    
C8    H28   S    
C43   P5    S    
C35   C36   A    
C6    H22   S    
C16   H31   S    
C8    H25   S    
C26   C27   A    
C33   C35   A    
C59   H48   S    
C12   H27   S    
Ba1   Ba2   S    
C55   O20   S    
C3    C4    S    
Ba2   O8    S    
C4    H18   S    
O11   P5    S    
C58   H12   S    
C13   C14   A    
C58   H13   S    
C35   H35   S    
C34   C45   S    
C16   C17   A    
C60   H58   S    
O16   P8    D    
O13   P2    S    
O20   P1    S    
C56   H6    S    
C8    H26   S    
Ba2   O14   S    
C14   C15   A    
O8    P7    S    
C34   O7    S    
C21   C22   A    
Ba1   O23   S    
C51   P2    S    
C1    H15   S    
C7    C8    S    
C2    H14   S    
C5    H52   S    
Ba1   O1    S    
O24   P3    D    
C10   C28   A    
C49   H38   S    
C12   O3    S    
C21   H55   S    
C57   C58   S    
C27   C41   A    
C52   H40   S    
C6    H54   S    
Ba1   O8    S    
O23   P3    S    
C12   H36   S    
C62   H63   S    
Ba2   O12   S    
C31   C32   A    
O22   P2    D    
C41   P1    S    
C25   C32   A    
C44   C46   A    
Ba2   O6    S    
Ba2   P4    S    
C3    O15   S    
O4    P4    D    
C49   C50   A    
C50   P3    S    
C30   C33   A    
C17   C20   A    
C59   H47   S    
O2    P2    S    
Ba1   P1    S    
C40   H37   S    
C45   H4    S    
C3    H50   S    
C58   O25   S    
C26   C37   A    
Ba1   P2    S    
C29   H33   S    
C2    H1    S    
C57   O2    S    
C45   H3    S    
O18   P6    S    
O15   P7    S    
C61   H59   S    
C5    O11   S    
C1    H11   S    
Ba1   O18   S    
C27   C28   A    
Ba1   O5    S    
C29   C30   A    
C9    C25   A    
C60   H56   S    
C7    O17   S    
O9    P5    S    
C38   O26   S    
Ba1   O12   S    
C10   C11   A    
O12   P1    S    
C7    H23   S    
C56   H8    S    
C46   C47   A    
C5    H21   S    
C57   H9    S    
O21   P6    S    
C1    H51   S    
C11   C13   A    
C6    H53   S    
C40   C41   A    
C1    C2    S    
C39   P6    S    
C62   H64   S    
C42   C43   A    
O6    P8    S    
C51   C54   A    
C42   C48   A    
O1    P1    D    
C52   C53   A    
Ba2   O5    S    
O19   P6    D    
C11   H29   S    
C34   H45   S    
C32   C36   A    
C61   H61   S    
Ba1   O22   S    
O17   P8    S    
C55   H5    S    
C4    H17   S    
C9    C15   A    
O25   C59   S    
C23   H44   S    
O10   P5    D    
O14   P7    D    
O26   C60   S    
C2    O21   S    
O28   C62   S    
C33   H34   S    
C3    H16   S    
C42   H43   S    
C54   H42   S    
C48   P7    S    
C30   C31   A    
C13   H30   S    
C47   H41   S    
Ba2   O9    S    
C22   C24   A    
C55   C56   S    
C18   C24   A    
C61   H60   S    
C55   H46   S    
C49   C53   A    
Ba1   O13   S    
C60   H57   S    
C12   C23   S    
C15   C19   A    
O3    P3    S    
C57   H10   S    
C34   O28   S    
C7    H24   S    
C4    H19   S    
C37   C38   A    
C43   C44   A    
C56   H7    S    
C24   C29   A    
C19   C31   A    
C18   C19   A    
C14   C16   A    
C47   C48   A    
O27   C61   S    
C20   C21   A    
O5    P4    S    
C50   C54   A    
C9    C10   A    
C25   C26   A    
C28   H32   S    
