data_mof_unit_38361.cif
_audit_creation_date              2012-10-26T21:05:42-0400
_audit_creation_method            fapswitch 2.2
_symmetry_space_group_name_H-M    P1
_symmetry_Int_Tables_number       1
_space_group_crystal_system       triclinic
_cell_length_a                    13.058343
_cell_length_b                    9.089451
_cell_length_c                    7.834003
_cell_angle_alpha                 90.016434
_cell_angle_beta                  96.12136
_cell_angle_gamma                 89.98983
_cell_volume                      924.540871243

loop_
_atom_site_label
_atom_site_type_symbol
_atom_type_description
_atom_site_fract_x
_atom_site_fract_y
_atom_site_fract_z
_atom_type_partial_charge
C1    C     C_R   0.500079 0.220230 0.500001 0.560223
C2    C     C_R   0.860374 0.395373 0.674347 0.271653
C3    C     C_R   0.131379 0.478655 0.596876 -0.072603
C4    C     C_R   0.867725 0.568799 0.436845 -0.003302
C5    C     C_R   0.024007 0.462961 0.574926 -0.073878
C6    C     C_R   0.970538 0.527268 0.427978 0.034586
C7    C     C_1   0.500150 0.065424 0.500005 -0.010766
C8    C     C_1   0.500158 0.934571 0.500041 -0.015105
C9    C     C_2   0.825212 0.706867 0.353052 0.305585
C10   C     C_2   0.181972 0.505297 0.770618 0.251459
C11   C     C_2   0.966195 0.570622 0.105289 0.302632
C12   C     C_R   0.500097 0.779768 0.500029 0.542668
C13   C     C_2   0.023959 0.271800 0.806725 0.235831
C14   C     C_R   0.299557 0.499843 0.468685 0.566379
C15   C     C_R   0.699295 0.500496 0.531828 0.553175
C16   C     C_R   0.811145 0.491536 0.550750 -0.005473
C17   C     C_R   0.185360 0.499487 0.452166 0.031287
C18   C     C_R   0.021779 0.541879 0.278080 0.064154
C19   C     C_R   0.969016 0.385125 0.693087 0.013233
C20   C     C_R   0.128580 0.513500 0.290580 0.200526
Cu1   Cu    Cu3+1 0.500010 0.500000 0.669080 1.099102
Cu2   Cu    Cu3+1 0.499990 0.500000 0.330920 1.101304
H1    H     H_    0.743489 0.730590 0.341719 0.127065
H2    H     H_    0.228928 0.420167 0.837043 0.131407
H3    H     H_    0.823910 0.315210 0.887264 0.402889
H4    H     H_    0.133691 0.426924 0.071895 0.321968
H5    H     H_    0.006761 0.618641 0.005137 0.173752
H6    H     H_    0.096966 0.228211 0.775200 0.104760
N1    N     N_1   0.499980 0.500000 0.076820 -0.059184
N2    N     N_1   0.500020 0.500000 0.923180 -0.062268
O1    O     O_R   0.500000 0.288400 0.642760 -0.493991
O2    O     O_2   0.176088 0.626760 0.835344 -0.442933
O3    O     O_3   0.800045 0.305235 0.763949 -0.629723
O4    O     O_3   0.177807 0.494450 0.146495 -0.655061
O5    O     O_2   0.875925 0.536842 0.071040 -0.505290
O6    O     O_2   0.990152 0.225905 0.935843 -0.475998
O7    O     O_R   0.500000 0.711600 0.357240 -0.505291
O8    O     O_R   0.500000 0.288400 0.357240 -0.498204
O9    O     O_R   0.500000 0.711600 0.642760 -0.492962
O10   O     O_R   0.349000 0.500000 0.619590 -0.528431
O11   O     O_R   0.651000 0.500000 0.380410 -0.520307
O12   O     O_R   0.348990 0.500000 0.334020 -0.435697
O13   O     O_R   0.651010 0.500000 0.665980 -0.452382
O14   O     O_2   0.882318 0.800736 0.304191 -0.456788

loop_
_geom_bond_atom_site_label_1
_geom_bond_atom_site_label_2
_ccdc_geom_bond_type
C4    C16   A    
C13   H6    S    
N1    N2    T    
C5    C19   A    
Cu2   N1    S    
C8    C12   S    
C2    C16   A    
Cu1   N2    S    
Cu1   O9    S    
C11   H5    S    
C14   O12   A    
C20   O4    S    
C12   O9    A    
C11   O5    D    
C2    C19   A    
C15   O13   A    
C7    C8    T    
C11   C18   S    
C3    C10   S    
Cu1   O13   S    
Cu1   Cu2   S    
Cu1   O1    S    
C14   C17   S    
Cu2   O12   S    
Cu1   O10   S    
C1    O8    A    
C2    O3    S    
C3    C17   A    
C18   C20   A    
C5    C6    A    
C6    C18   A    
Cu2   O11   S    
C13   C19   S    
C14   O10   A    
C15   C16   S    
Cu2   O8    S    
C10   O2    D    
C1    O1    A    
C17   C20   A    
C15   O11   A    
C13   O6    D    
C4    C6    A    
C12   O7    A    
C9    H1    S    
C9    O14   D    
C10   H2    S    
C4    C9    S    
C1    C7    S    
Cu2   O7    S    
H4    O4    S    
H3    O3    S    
C3    C5    A    
