data_mof_unit_47046.cif
_audit_creation_date              2013-03-05T16:04:12-0500
_audit_creation_method            fapswitch 2.2
_symmetry_space_group_name_H-M    P1
_symmetry_Int_Tables_number       1
_space_group_crystal_system       triclinic
_cell_length_a                    19.505644
_cell_length_b                    6.942294
_cell_length_c                    17.702172
_cell_angle_alpha                 89.984103
_cell_angle_beta                  109.017182
_cell_angle_gamma                 89.980138
_cell_volume                      2266.28741761

loop_
_atom_site_label
_atom_site_type_symbol
_atom_site_description
_atom_site_fract_x
_atom_site_fract_y
_atom_site_fract_z
_atom_type_partial_charge
O1    O     O_R   0.561710 0.369960 0.440200 -0.602012
O2    O     O_R   0.061710 0.630040 0.940200 -0.602862
O3    O     O_R   0.412630 0.033330 0.406330 -0.602041
O4    O     O_R   0.912630 0.966670 0.906330 -0.602300
O5    O     O_R   0.438290 0.869790 0.559800 -0.574139
O6    O     O_R   0.938290 0.130210 0.059800 -0.573602
C1    C     C_R   0.384547 0.203120 0.383644 0.942553
C2    C     C_R   0.884977 0.796904 0.883004 0.939729
O7    O     O_R   0.559570 0.039810 0.430640 -0.603875
O8    O     O_R   0.059570 0.960190 0.930640 -0.605163
O9    O     O_R   0.586280 0.876320 0.584290 -0.597637
O10   O     O_R   0.086280 0.123680 0.084290 -0.594002
C3    C     C_R   0.581014 0.208874 0.415459 0.911798
C4    C     C_R   0.080977 0.791117 0.915418 0.906554
O11   O     O_R   0.413720 0.363440 0.415710 -0.597975
O12   O     O_R   0.913720 0.636560 0.915710 -0.597826
O13   O     O_3   0.508590 0.205630 0.550380 -0.235452
O14   O     O_3   0.008590 0.794370 0.050380 -0.232303
V1    V     V_3+5 0.498410 0.928130 0.490650 1.167110
V2    V     V_3+5 0.998410 0.071870 0.990650 1.167444
O15   O     O_R   0.587370 0.546990 0.593670 -0.589785
O16   O     O_R   0.087370 0.453010 0.093670 -0.592460
C5    C     C_R   0.614882 0.716818 0.617366 0.945926
C6    C     C_R   0.115546 0.283171 0.116488 0.947568
O17   O     O_R   0.440430 0.540520 0.569360 -0.557217
O18   O     O_R   0.940430 0.459480 0.069360 -0.557299
C7    C     C_R   0.419556 0.708946 0.585229 0.967096
C8    C     C_R   0.919612 0.291033 0.085285 0.968796
V3    V     V_3+5 0.501590 0.428960 0.509350 1.201034
V4    V     V_3+5 0.001590 0.571040 0.009350 1.200534
O19   O     O_3   0.491410 0.701330 0.449620 -0.293458
O20   O     O_3   0.991410 0.298670 0.949620 -0.293866
C9    C     C_R   0.273770 0.884664 0.667778 -0.122259
C10   C     C_R   0.773906 0.115580 0.167962 -0.121903
H1    H     H_    0.234945 0.001621 0.655338 0.115655
H2    H     H_    0.735002 0.998901 0.155467 0.115629
C11   C     C_R   0.320675 0.870698 0.622675 -0.086430
C12   C     C_R   0.820754 0.129495 0.122795 -0.086590
H3    H     H_    0.316895 0.978121 0.577094 0.152604
H4    H     H_    0.816866 0.022291 0.077129 0.151602
C13   C     C_R   0.370796 0.718571 0.634789 -0.314686
C14   C     C_R   0.870950 0.281327 0.134948 -0.313712
C15   C     C_R   0.373414 0.580225 0.694564 0.381333
C16   C     C_R   0.873756 0.419305 0.194865 0.381254
C17   C     C_R   0.326565 0.596572 0.739974 -0.248131
C18   C     C_R   0.826958 0.403042 0.240342 -0.248186
H5    H     H_    0.330491 0.491069 0.786294 0.145279
H6    H     H_    0.831020 0.508283 0.286765 0.145133
C19   C     C_R   0.275798 0.747219 0.726779 0.046675
C20   C     C_R   0.776081 0.252741 0.227083 0.046847
C21   C     C_R   0.195123 0.591601 0.795277 -0.148900
C22   C     C_R   0.695565 0.408461 0.295782 -0.148631
H7    H     H_    0.207226 0.451455 0.775953 0.104740
H8    H     H_    0.707822 0.548658 0.276644 0.104674
C23   C     C_R   0.148362 0.602074 0.840635 -0.156185
C24   C     C_R   0.648725 0.397982 0.341049 -0.155639
H9    H     H_    0.126584 0.469424 0.855623 0.129812
H10   H     H_    0.627062 0.530679 0.356172 0.129850
C25   C     C_R   0.129793 0.780954 0.865965 -0.124846
C26   C     C_R   0.629927 0.219047 0.366111 -0.126199
C27   C     C_R   0.159137 0.949237 0.844337 -0.159766
C28   C     C_R   0.659163 0.050729 0.344347 -0.158377
H11   H     H_    0.146442 0.089471 0.863053 0.126272
H12   H     H_    0.646307 0.910450 0.362868 0.126416
C29   C     C_R   0.206195 0.938647 0.799176 -0.140459
C30   C     C_R   0.706301 0.061321 0.299281 -0.140607
H13   H     H_    0.228859 0.070801 0.785038 0.107596
H14   H     H_    0.728858 0.929109 0.285021 0.107540
C31   C     C_R   0.225033 0.759566 0.774217 0.149031
C32   C     C_R   0.725331 0.240443 0.274546 0.148958
C33   C     C_R   0.804483 0.621586 0.761822 0.169498
C34   C     C_R   0.267904 0.375954 0.311755 0.176744
C35   C     C_R   0.818157 0.782797 0.812492 -0.226022
C36   C     C_R   0.314162 0.217178 0.317980 -0.232250
C37   C     C_R   0.765168 0.928501 0.794349 -0.159097
C38   C     C_R   0.290530 0.072219 0.259835 -0.163228
H15   H     H_    0.772829 0.054604 0.831902 0.138549
H16   H     H_    0.323955 0.946867 0.261972 0.139656
C39   C     C_R   0.699169 0.905736 0.731274 -0.133972
C40   C     C_R   0.225967 0.094570 0.194836 -0.142539
H17   H     H_    0.658603 0.017821 0.721016 0.148907
H18   H     H_    0.211320 0.983558 0.149503 0.131452
C41   C     C_R   0.683818 0.735680 0.684885 -0.215771
C42   C     C_R   0.183127 0.262937 0.185751 -0.232626
C43   C     C_R   0.739233 0.598926 0.699515 0.158474
C44   C     C_R   0.204061 0.398133 0.247522 0.205601
C45   C     C_3   0.737011 0.388399 0.714479 -0.490270
C46   C     C_3   0.214818 0.609791 0.243719 -0.479046
C47   C     C_3   0.808370 0.412601 0.781990 -0.441694
C48   C     C_3   0.284159 0.586120 0.314128 -0.462386
H19   H     H_    0.742018 0.300917 0.663952 0.193400
H20   H     H_    0.224595 0.653056 0.187656 0.182719
H21   H     H_    0.691075 0.349095 0.735583 0.207747
H22   H     H_    0.172337 0.693581 0.258554 0.222189
H23   H     H_    0.854667 0.339894 0.770243 0.193158
H24   H     H_    0.334122 0.617127 0.299111 0.195722
H25   H     H_    0.803927 0.385758 0.842144 0.192860
H26   H     H_    0.281561 0.655397 0.369745 0.192365
N1    N     N_R   0.424903 0.426053 0.712196 0.228978
O21   O     O_R   0.475388 0.420085 0.781584 -0.403180
O22   O     O_R   0.411362 0.272324 0.667821 -0.399754
N2    N     N_R   0.925421 0.572920 0.212578 0.229327
O23   O     O_R   0.976484 0.576940 0.281575 -0.403689
O24   O     O_R   0.911789 0.727605 0.168728 -0.398090

loop_
_geom_bond_atom_site_label_1
_geom_bond_atom_site_label_2
_geom_bond_distance
_ccdc_geom_bond_type
C30   H14   1.082599 S    
C23   C25   1.407213 A    
O13   V3    1.698409 S    
O4    C2    1.306151 A    
V1    O19   1.720879 S    
C3    C26   1.490492 S    
C4    C25   1.490383 S    
O9    V1    1.990592 S    
C36   C38   1.405832 A    
C15   N1    1.430538 S    
C12   C14   1.406964 A    
O3    C1    1.306398 A    
C44   C46   1.488966 S    
O12   V4    2.009919 S    
C26   C28   1.407839 A    
C8    C14   1.490707 S    
C27   H11   1.082754 S    
O7    C3    1.303128 A    
C28   H12   1.082746 S    
O13   V1    2.175623 S    
O5    C7    1.300084 A    
O7    V1    1.994709 S    
O6    C8    1.299960 A    
C46   H20   1.111170 S    
C16   C18   1.404648 A    
C29   H13   1.082610 S    
O3    V1    1.982897 S    
O14   V4    1.698864 S    
V4    O20   2.144144 S    
C10   H2    1.082616 S    
C40   C42   1.414921 A    
C17   H5    1.083219 S    
C2    O12   1.294727 A    
C33   C43   1.395178 A    
C11   C13   1.407013 A    
C13   C15   1.417346 A    
C14   C16   1.417149 A    
C22   H8    1.082583 S    
O11   V3    2.010396 S    
C1    C36   1.485033 S    
C46   H22   1.111543 S    
C43   C45   1.488446 S    
O15   C5    1.306904 A    
O17   V3    1.994291 S    
C11   H3    1.083285 S    
C18   H6    1.083212 S    
C10   C20   1.405517 A    
C25   C27   1.407865 A    
C45   H19   1.111567 S    
C28   C30   1.401884 A    
C34   C36   1.405607 A    
O8    C4    1.303002 A    
O8    V2    1.994616 S    
C39   H17   1.081853 S    
C16   N2    1.430454 S    
C1    O11   1.294240 A    
C21   C23   1.399716 A    
O15   V3    2.018166 S    
C9    C11   1.399996 A    
C24   C26   1.407265 A    
C47   H25   1.111853 S    
C21   H7    1.082592 S    
O4    V2    1.983631 S    
C47   H23   1.111593 S    
C34   C48   1.490895 S    
C7    C13   1.490822 S    
N1    O21   1.300716 A    
C33   C47   1.490003 S    
C17   C19   1.406174 A    
O10   V2    1.990971 S    
O1    V3    1.994201 S    
N2    O24   1.300488 A    
C37   H15   1.079973 S    
C5    C41   1.485455 S    
C40   H18   1.081961 S    
N1    O22   1.300482 A    
C46   C48   1.520188 S    
O18   V4    1.994386 S    
C23   H9    1.082812 S    
O16   C6    1.307685 A    
O1    C3    1.300639 A    
C35   C37   1.406192 A    
C33   C35   1.404672 A    
V2    O20   1.720424 S    
C18   C20   1.406316 A    
O16   V4    2.017359 S    
C41   C43   1.397671 A    
C10   C12   1.399944 A    
C38   C40   1.410447 A    
C38   H16   1.080430 S    
C34   C44   1.394396 A    
C48   H24   1.111632 S    
O5    V1    1.993291 S    
O17   C7    1.298560 A    
O6    V2    1.993265 S    
O10   C6    1.290524 A    
O18   C8    1.298700 A    
O2    V4    1.994227 S    
C45   C47   1.519877 S    
C20   C32   1.495054 S    
C15   C17   1.404584 A    
C12   H4    1.083297 S    
C30   C32   1.407762 A    
C37   C39   1.411538 A    
C29   C31   1.407715 A    
C45   H21   1.111354 S    
O9    C5    1.290950 A    
C2    C35   1.485359 S    
C9    H1    1.082622 S    
C24   H10   1.082802 S    
O14   V2    2.174982 S    
C6    C42   1.485663 S    
N2    O23   1.300718 A    
O2    C4    1.300627 A    
C22   C32   1.407474 A    
C39   C41   1.413618 A    
C27   C29   1.401873 A    
V3    O19   2.143506 S    
C42   C44   1.397562 A    
C19   C31   1.494963 S    
C21   C31   1.407494 A    
C9    C19   1.405481 A    
C48   H26   1.111738 S    
C22   C24   1.399754 A    
