data_mof_unit_68189.cif
_audit_creation_date              2013-03-05T16:03:13-0500
_audit_creation_method            fapswitch 2.2
_symmetry_space_group_name_H-M    P1
_symmetry_Int_Tables_number       1
_space_group_crystal_system       triclinic
_cell_length_a                    7.12087
_cell_length_b                    13.983581
_cell_length_c                    16.818558
_cell_angle_alpha                 90.77948
_cell_angle_beta                  91.672763
_cell_angle_gamma                 89.32361
_cell_volume                      1673.73470366

loop_
_atom_site_label
_atom_site_type_symbol
_atom_site_description
_atom_site_fract_x
_atom_site_fract_y
_atom_site_fract_z
_atom_type_partial_charge
O1    O     O_R   0.361630 0.167340 0.164570 -0.582043
O2    O     O_R   0.638370 0.832660 0.835430 -0.582045
O3    O     O_R   0.690860 0.157560 0.338690 -0.558709
O4    O     O_R   0.309140 0.842440 0.661310 -0.558708
O5    O     O_R   0.861260 0.336420 0.339380 -0.573009
O6    O     O_R   0.138740 0.663580 0.660620 -0.573016
C1    C     C_R   0.523815 0.131276 0.365258 1.050299
C2    C     C_R   0.476185 0.868724 0.634743 1.050305
O7    O     O_R   0.691330 0.156310 0.165190 -0.555178
O8    O     O_R   0.308670 0.843690 0.834810 -0.555180
O9    O     O_R   0.861730 0.335160 0.164640 -0.564631
O10   O     O_R   0.138270 0.664840 0.835360 -0.564630
C3    C     C_R   0.521099 0.135913 0.135576 0.960254
C4    C     C_R   0.478900 0.864085 0.864426 0.960251
O11   O     O_R   0.361150 0.168600 0.339320 -0.586982
O12   O     O_R   0.638850 0.831400 0.660680 -0.586986
O13   O     O_3   0.527950 0.310560 0.252000 -0.245087
O14   O     O_3   0.472050 0.689440 0.748000 -0.245082
V1    V     V_3+5 0.802770 0.240990 0.251980 1.304182
V2    V     V_3+5 0.197230 0.759010 0.748020 1.304185
O15   O     O_R   0.191450 0.346190 0.165260 -0.550805
O16   O     O_R   0.808550 0.653810 0.834740 -0.550802
C5    C     C_R   0.018709 0.372707 0.139874 0.974932
C6    C     C_R   0.981290 0.627292 0.860126 0.974942
O17   O     O_R   0.190980 0.347440 0.338770 -0.569012
O18   O     O_R   0.809020 0.652560 0.661230 -0.568992
C7    C     C_R   0.024344 0.368014 0.368100 1.076643
C8    C     C_R   0.975656 0.631989 0.631898 1.076663
V3    V     V_3+5 0.302780 0.262760 0.251980 1.297877
V4    V     V_3+5 0.697220 0.737240 0.748020 1.297891
O19   O     O_3   0.027730 0.193200 0.251960 -0.262337
O20   O     O_3   0.972270 0.806800 0.748040 -0.262341
C9    C     C_3   0.829944 0.465160 0.479210 0.246532
C10   C     C_3   0.170060 0.534847 0.520786 0.246539
C11   C     C_3   0.931350 0.456352 0.560850 0.338408
C12   C     C_3   0.068656 0.543655 0.439145 0.338411
C13   C     C_3   0.983874 0.562503 0.561192 -0.424847
C14   C     C_3   0.016130 0.437504 0.438803 -0.424843
C15   C     C_3   0.883195 0.573132 0.478328 -0.255129
C16   C     C_3   0.116810 0.426876 0.521667 -0.255146
H1    H     H_    0.791443 0.633561 0.458720 0.240940
H2    H     H_    0.208562 0.366447 0.541274 0.240940
H3    H     H_    0.196961 0.296125 0.785393 0.223505
H4    H     H_    0.803003 0.703870 0.214604 0.223507
C17   C     C_R   0.942172 0.703972 0.025297 0.097634
C18   C     C_R   0.057821 0.296025 0.974702 0.097634
C19   C     C_R   0.892920 0.737889 0.100771 0.158331
C20   C     C_R   0.107064 0.262108 0.899228 0.158336
C21   C     C_R   0.852891 0.674786 0.158975 -0.107141
C22   C     C_R   0.147082 0.325210 0.841022 -0.107165
C23   C     C_R   0.871964 0.576866 0.147818 0.159792
C24   C     C_R   0.128011 0.423130 0.852178 0.159775
C25   C     C_R   0.943051 0.536583 0.075535 0.025258
C26   C     C_R   0.056937 0.463415 0.924463 0.025273
C27   C     C_R   0.962249 0.601542 0.009666 0.043832
C28   C     C_R   0.037744 0.398456 0.990333 0.043832
C29   C     C_R   0.996549 0.436664 0.067687 -0.174116
C30   C     C_R   0.003447 0.563334 0.932312 -0.174119
C31   C     C_3   0.327957 0.020240 0.469047 0.158517
C32   C     C_3   0.672042 0.979762 0.530953 0.158522
C33   C     C_3   0.417471 0.919505 0.480257 0.241852
C34   C     C_3   0.582528 0.080497 0.519744 0.241845
C35   C     C_3   0.485070 0.943736 0.565698 -0.499394
C36   C     C_3   0.514929 0.056265 0.434302 -0.499397
C37   C     C_3   0.397228 0.046513 0.555331 0.164704
C38   C     C_3   0.602772 0.953489 0.444669 0.164695
C39   C     C_R   0.569268 0.197583 0.964622 0.059440
C40   C     C_R   0.430723 0.802414 0.035381 0.059437
C41   C     C_R   0.620428 0.219727 0.886652 0.137349
C42   C     C_R   0.379557 0.780271 0.113350 0.137348
C43   C     C_R   0.648988 0.146365 0.831666 0.271139
C44   C     C_R   0.350998 0.853633 0.168337 0.271151
C45   C     C_R   0.612006 0.053087 0.849171 -0.246548
C46   C     C_R   0.387986 0.946910 0.150832 -0.246553
C47   C     C_R   0.552182 0.026923 0.924182 0.095186
C48   C     C_R   0.447813 0.973074 0.075821 0.095185
C49   C     C_R   0.544285 0.098820 0.986051 0.056650
C50   C     C_R   0.455710 0.901177 0.013952 0.056653
C51   C     C_R   0.496453 0.930671 0.935691 -0.164021
C52   C     C_R   0.503545 0.069326 0.064312 -0.164021
H5    H     H_    0.630384 0.001389 0.801721 0.146815
H6    H     H_    0.369610 0.998608 0.198283 0.146814
N1    N     N_R   0.857287 0.407824 0.628451 0.272835
O21   O     O_R   0.959591 0.343352 0.664349 -0.334556
O22   O     O_R   0.695969 0.433246 0.656613 -0.312248
N2    N     N_R   0.142730 0.592183 0.371545 0.272846
O23   O     O_R   0.040390 0.656609 0.335610 -0.334622
O24   O     O_R   0.304113 0.566810 0.343425 -0.312194
I1    I     I_    0.256260 0.132641 0.641906 -0.146079
I2    I     I_    0.743736 0.867359 0.358094 -0.146095
I3    I     I_    0.244691 0.833369 0.280128 -0.116430
I4    I     I_    0.755284 0.166627 0.719876 -0.116439
I5    I     I_    0.519417 0.321208 0.039209 -0.281830
I6    I     I_    0.480579 0.678790 0.960794 -0.281838
I7    I     I_    0.649768 0.363214 0.847175 -0.245248
I8    I     I_    0.350205 0.636783 0.152826 -0.245262
I9    I     I_    0.566855 0.402361 0.443286 -0.127736
I10   I     I_    0.433153 0.597637 0.556717 -0.127717
I11   I     I_    0.987200 0.821375 0.947633 -0.256588
I12   I     I_    0.012800 0.178623 0.052367 -0.256585
I13   I     I_    0.868223 0.885464 0.135805 -0.338102
I14   I     I_    0.131764 0.114533 0.864196 -0.338097
I15   I     I_    0.749288 0.511380 0.245231 -0.175915
I16   I     I_    0.250673 0.488612 0.754762 -0.175930
N3    N     N_R   0.329935 0.827850 0.462020 0.269611
O25   O     O_R   0.158518 0.811895 0.481996 -0.340928
O26   O     O_R   0.431902 0.756811 0.436704 -0.327675
N4    N     N_R   0.670064 0.172152 0.537979 0.269613
O27   O     O_R   0.841485 0.188104 0.518011 -0.340901
O28   O     O_R   0.568103 0.243190 0.563301 -0.327679
I17   I     I_    0.069252 0.051535 0.408920 -0.150202
I18   I     I_    0.930747 0.948466 0.591080 -0.150199

loop_
_geom_bond_atom_site_label_1
_geom_bond_atom_site_label_2
_geom_bond_distance
_ccdc_geom_bond_type
H4    C21   1.082850 S    
C14   C16   1.556640 S    
C35   C37   1.570476 S    
C19   I13   2.145003 S    
C10   C13   1.549992 S    
O13   V3    1.744407 S    
C39   C49   1.446354 A    
O4    C2    1.339956 A    
V1    O19   1.728428 S    
C19   C21   1.365244 A    
C28   C29   1.436575 A    
C37   I1    2.141811 S    
N3    O26   1.297997 A    
O9    V1    2.042003 S    
C31   C36   1.561137 S    
C9    C15   1.561420 S    
C46   C48   1.398052 A    
C32   C35   1.561139 S    
C10   C16   1.561415 S    
C11   C13   1.534936 S    
C48   C50   1.438862 A    
O3    C1    1.339957 A    
V2    O20   1.728427 S    
N2    O24   1.299132 A    
C34   N4    1.456810 S    
C7    C14   1.527398 S    
O12   V4    2.016994 S    
N4    O27   1.298068 A    
C32   C34   1.550841 S    
C17   C19   1.401756 A    
C33   C35   1.536792 S    
O7    C3    1.329618 A    
C34   C36   1.536793 S    
C9    C11   1.538353 S    
O5    C7    1.323134 A    
C33   C38   1.547190 S    
O7    V1    2.017445 S    
O6    C8    1.323127 A    
C43   I4    2.071435 S    
O8    V2    2.017446 S    
C21   C23   1.385157 A    
C31   I17   2.119460 S    
O3    V1    2.063721 S    
O14   V4    1.744407 S    
C33   N3    1.456808 S    
O14   V2    2.175128 S    
C20   C22   1.365241 A    
C3    C52   1.510886 S    
C32   C38   1.559542 S    
C2    O12   1.329220 A    
O17   V3    2.040879 S    
C45   C47   1.398040 A    
C46   H6    1.079258 S    
C45   H5    1.079255 S    
C24   C26   1.435977 A    
O11   V3    2.016995 S    
C18   C20   1.401751 A    
C25   C27   1.452666 A    
C40   C50   1.446352 A    
C13   C15   1.556645 S    
C26   C28   1.452666 A    
C31   C33   1.550838 S    
C41   C43   1.388963 A    
C38   I2    2.141810 S    
C17   I11   2.144622 S    
C23   I15   2.104540 S    
C43   C45   1.371298 A    
C44   I3    2.071470 S    
C25   C29   1.449178 A    
C50   C51   1.423606 A    
C1    O11   1.329219 A    
C12   N2    1.447690 S    
O15   V3    2.018352 S    
C40   I6    2.154212 S    
C23   C25   1.435984 A    
C36   C38   1.570472 S    
C42   I8    2.136500 S    
C32   I18   2.119458 S    
C22   C24   1.385153 A    
N1    O21   1.296778 A    
C20   I14   2.145001 S    
O10   V2    2.042003 S    
O1    V3    2.021541 S    
C4    C51   1.510894 S    
C47   C49   1.438858 A    
C44   C46   1.371304 A    
N1    O22   1.299167 A    
O18   V4    2.040881 S    
O15   C5    1.340047 A    
O8    C4    1.329617 A    
O16   C6    1.340044 A    
O1    C3    1.317249 A    
C26   C30   1.449180 A    
C49   C52   1.423599 A    
C5    C29   1.521110 S    
C18   I12   2.144617 S    
C24   I16   2.104528 S    
C11   N1    1.447679 S    
O16   V4    2.018352 S    
C34   C37   1.547191 S    
N2    O23   1.296762 A    
C12   C15   1.542351 S    
C48   C52   1.425030 A    
C16   H2    1.109793 S    
C41   I7    2.136501 S    
H3    C22   1.082845 S    
O5    V1    2.009719 S    
O17   C7    1.325276 A    
C15   H1    1.109793 S    
O6    V2    2.009721 S    
N3    O25   1.298080 A    
O10   C6    1.321254 A    
O18   C8    1.325282 A    
C9    C14   1.549996 S    
O2    V4    2.021538 S    
C10   I10   2.145752 S    
C12   C14   1.534947 S    
C11   C16   1.542341 S    
V3    O19   2.197082 S    
C31   C37   1.559545 S    
V4    O20   2.197081 S    
C8    C13   1.527401 S    
O9    C5    1.321250 A    
O13   V1    2.175127 S    
N4    O28   1.297995 A    
C10   C12   1.538359 S    
O2    C4    1.317254 A    
C1    C36   1.578514 S    
C2    C35   1.578518 S    
O4    V2    2.063726 S    
C17   C27   1.458856 A    
C6    C30   1.521109 S    
C27   C30   1.436576 A    
C18   C28   1.458853 A    
C39   I5    2.154208 S    
C40   C42   1.410618 A    
C42   C44   1.388970 A    
C9    I9    2.145750 S    
C39   C41   1.410613 A    
C47   C51   1.425025 A    
