data_mof_unit_18102.cif
_audit_creation_date              2012-12-11T15:08:53-0500
_audit_creation_method            fapswitch 2.2
_symmetry_space_group_name_H-M    P1
_symmetry_Int_Tables_number       1
_space_group_crystal_system       triclinic
_cell_length_a                    19.68633
_cell_length_b                    11.452376
_cell_length_c                    18.764587
_cell_angle_alpha                 90.318129
_cell_angle_beta                  89.579511
_cell_angle_gamma                 90.049521
_cell_volume                      4230.39414011

loop_
_atom_site_label
_atom_site_type_symbol
_atom_type_description
_atom_site_fract_x
_atom_site_fract_y
_atom_site_fract_z
_atom_type_partial_charge
C1    C     C_R   0.275174 0.038724 0.856545 0.536560
C2    C     C_3   0.693479 0.527487 0.958104 -0.247470
C3    C     C_R   0.222129 0.536035 0.356523 0.557981
C4    C     C_R   0.438515 0.819023 0.641243 0.531507
C5    C     C_R   0.538490 0.821481 0.358623 0.527536
C6    C     C_R   0.938515 0.319023 0.641243 0.531507
C7    C     C_R   0.038490 0.321481 0.358623 0.527536
C8    C     C_R   0.262558 0.650857 0.640121 0.535057
C9    C     C_R   0.732549 0.663938 0.362619 0.539353
C10   C     C_R   0.762558 0.150857 0.640121 0.535057
C11   C     C_R   0.232549 0.163938 0.362619 0.539353
C12   C     C_3   0.476757 0.912984 0.031806 -0.111804
C13   C     C_3   0.807367 0.020828 0.040396 -0.253930
C14   C     C_3   0.526692 0.916377 0.967692 -0.120241
C15   C     C_3   0.976757 0.412984 0.031806 -0.111804
C16   C     C_3   0.026692 0.416378 0.967692 -0.120241
C17   C     C_3   0.435860 0.814593 0.994225 -0.139138
C18   C     C_3   0.569342 0.818976 0.002267 -0.157748
C19   C     C_3   0.935860 0.314593 0.994225 -0.139138
C20   C     C_3   0.069342 0.318976 0.002267 -0.157748
C21   C     C_3   0.485823 0.820893 0.931207 0.058470
C22   C     C_3   0.520291 0.818248 0.065823 0.057480
C23   C     C_3   0.985823 0.320893 0.931207 0.058470
C24   C     C_3   0.193479 0.027487 0.958104 -0.247470
C25   C     C_3   0.020291 0.318248 0.065823 0.057480
C26   C     C_2   0.182197 0.771442 0.091270 0.558806
C27   C     C_2   0.843827 0.749972 0.943940 0.531886
C28   C     C_2   0.682197 0.271442 0.091270 0.558806
C29   C     C_2   0.343827 0.249972 0.943940 0.531886
C30   C     C_3   0.313638 0.538894 0.959456 -0.235087
C31   C     C_3   0.681974 0.558465 0.036634 -0.245012
C32   C     C_3   0.813638 0.038894 0.959456 -0.235087
C33   C     C_3   0.181974 0.058464 0.036634 -0.245012
C34   C     C_3   0.177929 0.524626 0.022148 -0.215910
C35   C     C_3   0.821306 0.513562 0.978373 -0.211217
C36   C     C_3   0.677929 0.024626 0.022148 -0.215910
C37   C     C_R   0.725694 0.038608 0.143473 0.540829
C38   C     C_3   0.321306 0.013562 0.978373 -0.211217
C39   C     C_3   0.241519 0.706457 0.056867 -0.038553
C40   C     C_3   0.773058 0.707827 0.947782 -0.034876
C41   C     C_3   0.741519 0.206457 0.056867 -0.038553
C42   C     C_3   0.273058 0.207827 0.947782 -0.034876
C43   C     C_3   0.238670 0.571723 0.068306 0.023213
C44   C     C_3   0.764565 0.571967 0.932097 0.036010
C45   C     C_3   0.738670 0.071723 0.068306 0.023213
C46   C     C_3   0.264565 0.071967 0.932097 0.036010
C47   C     C_3   0.253465 0.615031 0.930772 0.022711
C48   C     C_R   0.775174 0.538724 0.856545 0.536560
C49   C     C_3   0.745881 0.616322 0.068656 0.038025
C50   C     C_3   0.753465 0.115031 0.930772 0.022711
C51   C     C_3   0.245881 0.116322 0.068656 0.038025
C52   C     C_3   0.186958 0.549410 0.941412 -0.242094
C53   C     C_3   0.809219 0.538193 0.057853 -0.230465
C54   C     C_3   0.686958 0.049410 0.941412 -0.242094
C55   C     C_3   0.309219 0.038193 0.057853 -0.230465
C56   C     C_3   0.245812 0.730300 0.975415 -0.193491
C57   C     C_3   0.756220 0.730937 0.026311 -0.197074
C58   C     C_3   0.745812 0.230300 0.975415 -0.193491
C59   C     C_R   0.225694 0.538608 0.143473 0.540829
C60   C     C_3   0.256220 0.230937 0.026311 -0.197074
C61   C     C_3   0.502857 0.695440 0.460264 -0.216021
C62   C     C_3   0.480741 0.694963 0.537900 -0.218306
C63   C     C_3   0.002857 0.195440 0.460264 -0.216021
C64   C     C_3   0.980741 0.194963 0.537900 -0.218306
C65   C     C_R   0.463719 0.820081 0.857245 0.538136
C66   C     C_R   0.547167 0.817856 0.138439 0.533009
C67   C     C_R   0.963719 0.320081 0.857245 0.538136
C68   C     C_R   0.047167 0.317856 0.138439 0.533009
C69   C     C_3   0.560849 0.890863 0.482172 -0.221831
C70   C     C_3   0.528269 0.723875 0.964938 -0.112310
C71   C     C_3   0.423438 0.892175 0.518268 -0.231013
C72   C     C_3   0.060849 0.390863 0.482172 -0.221831
C73   C     C_3   0.923438 0.392175 0.518268 -0.231013
C74   C     C_3   0.442960 0.884787 0.438148 -0.230657
C75   C     C_3   0.538574 0.883198 0.562881 -0.214058
C76   C     C_3   0.942960 0.384787 0.438148 -0.230657
C77   C     C_3   0.038574 0.383198 0.562881 -0.214058
C78   C     C_3   0.511995 0.823709 0.432213 0.054226
C79   C     C_3   0.468241 0.821122 0.567423 0.058318
C80   C     C_3   0.011995 0.323709 0.432213 0.054226
C81   C     C_3   0.479293 0.720388 0.029465 -0.104137
C82   C     C_3   0.968241 0.321122 0.567423 0.058318
C83   C     C_3   0.167070 0.649073 0.459904 0.101942
C84   C     C_3   0.823084 0.650275 0.542401 0.096771
C85   C     C_3   0.667069 0.149073 0.459904 0.101942
C86   C     C_3   0.323084 0.150275 0.542401 0.096771
C87   C     C_3   0.176837 0.676437 0.538764 -0.170087
C88   C     C_3   0.813952 0.675726 0.464008 -0.183867
C89   C     C_3   0.676837 0.176437 0.538764 -0.170086
C90   C     C_3   0.313952 0.175726 0.464008 -0.183867
C91   C     C_3   0.239792 0.461937 0.475513 -0.255531
C92   C     C_3   0.028269 0.223875 0.964938 -0.112310
C93   C     C_3   0.749704 0.466278 0.526340 -0.237491
C94   C     C_3   0.739792 0.961937 0.475513 -0.255531
C95   C     C_3   0.249704 0.966278 0.526340 -0.237491
C96   C     C_3   0.295897 0.643183 0.437223 -0.225812
C97   C     C_3   0.695840 0.650872 0.564775 -0.232272
C98   C     C_3   0.795897 0.143183 0.437223 -0.225812
C99   C     C_3   0.195840 0.150872 0.564775 -0.232272
C100  C     C_3   0.230524 0.572524 0.429906 0.076678
C101  C     C_3   0.760564 0.577562 0.572669 0.068956
C102  C     C_3   0.730524 0.072524 0.429906 0.076678
C103  C     C_3   0.979293 0.220388 0.029465 -0.104137
C104  C     C_3   0.260564 0.077563 0.572669 0.068956
C105  C     C_3   0.247787 0.623366 0.564850 0.014540
C106  C     C_3   0.743514 0.628450 0.436906 0.005645
C107  C     C_3   0.747787 0.123366 0.564850 0.014540
C108  C     C_3   0.243514 0.128449 0.436906 0.005645
C109  C     C_3   0.245231 0.492495 0.555019 -0.247133
C110  C     C_3   0.741907 0.496150 0.445631 -0.225374
C111  C     C_3   0.745231 0.992495 0.555019 -0.247133
C112  C     C_3   0.241907 0.996150 0.445631 -0.225374
C113  C     C_R   0.262629 0.645655 0.855574 0.540493
C114  C     C_3   0.307367 0.520828 0.040396 -0.253930
C115  C     C_R   0.736894 0.646874 0.143998 0.558324
C116  C     C_R   0.762629 0.145655 0.855574 0.540493
C117  C     C_R   0.236894 0.146874 0.143998 0.558324
C118  C     C_3   0.307483 0.664408 0.517518 -0.246347
C119  C     C_3   0.683093 0.669346 0.484376 -0.245504
C120  C     C_3   0.807483 0.164408 0.517518 -0.246347
C121  C     C_3   0.183093 0.169346 0.484376 -0.245504
C122  C     C_R   0.273485 0.043195 0.645902 0.551856
C123  C     C_R   0.722129 0.036035 0.356523 0.557981
C124  C     C_R   0.773485 0.543195 0.645902 0.551856
Cl1   Cl    Cl    0.152763 0.776840 0.409285 -0.680575
Cl2   Cl    Cl    0.845644 0.776105 0.593361 -0.671853
Cl3   Cl    Cl    0.652763 0.276840 0.409285 -0.680575
Cl4   Cl    Cl    0.345643 0.276105 0.593361 -0.671853
Cr1   Cr    Cr6+3 0.229620 0.836040 0.749110 1.006093
Cr2   Cr    Cr6+3 0.613980 0.676590 0.250790 1.038779
Cr3   Cr    Cr6+3 0.886020 0.176590 0.749210 1.047918
Cr4   Cr    Cr6+3 0.113980 0.176590 0.250790 1.038779
Cr5   Cr    Cr6+3 0.770380 0.836040 0.250890 1.022168
Cr6   Cr    Cr6+3 0.729620 0.336040 0.749110 1.006093
Cr7   Cr    Cr6+3 0.270380 0.336040 0.250890 1.022168
Cr8   Cr    Cr6+3 0.387630 0.990680 0.750730 1.064527
Cr9   Cr    Cr6+3 0.612370 0.990680 0.249270 1.072278
Cr10  Cr    Cr6+3 0.887630 0.490680 0.750730 1.064527
Cr11  Cr    Cr6+3 0.112370 0.490680 0.249270 1.072278
Cr12  Cr    Cr6+3 0.386020 0.676590 0.749210 1.047918
H1    H     H_    0.381383 0.799384 0.990989 0.083848
H2    H     H_    0.713624 0.784992 0.032403 0.040459
H3    H     H_    0.190244 0.973462 0.430587 0.227640
H4    H     H_    0.317130 0.426723 0.052476 0.158757
H5    H     H_    0.684087 0.429256 0.957779 0.135156
H6    H     H_    0.817130 0.926723 0.052476 0.158757
H7    H     H_    0.184086 0.929256 0.957779 0.135156
H8    H     H_    0.350167 0.565308 0.067622 0.120335
H9    H     H_    0.652881 0.567054 0.925290 0.120279
H10   H     H_    0.850167 0.065308 0.067622 0.120335
H11   H     H_    0.152881 0.067054 0.925290 0.120279
H12   H     H_    0.363946 0.577127 0.947232 0.156342
H13   H     H_    0.788668 0.280709 0.965087 0.064086
H14   H     H_    0.637427 0.617557 0.042122 0.130099
H15   H     H_    0.863946 0.077127 0.947232 0.156342
H16   H     H_    0.137427 0.117557 0.042122 0.130099
H17   H     H_    0.311190 0.451844 0.932201 0.181898
H18   H     H_    0.667383 0.480346 0.066079 0.191605
H19   H     H_    0.811190 0.951844 0.932201 0.181898
H20   H     H_    0.167383 0.980346 0.066079 0.191605
H21   H     H_    0.672127 0.931965 0.026925 0.083248
H22   H     H_    0.332760 0.923861 0.965993 0.070650
H23   H     H_    0.172127 0.431965 0.026925 0.083248
H24   H     H_    0.213624 0.284992 0.032403 0.040459
H25   H     H_    0.832760 0.423861 0.965993 0.070650
H26   H     H_    0.686711 0.965666 0.909298 0.110188
H27   H     H_    0.304059 0.955731 0.087395 0.139454
H28   H     H_    0.186711 0.465666 0.909298 0.110188
H29   H     H_    0.804059 0.455731 0.087395 0.139454
H30   H     H_    0.148366 0.867637 0.175539 0.353473
H31   H     H_    0.922220 0.781763 0.895814 0.360656
H32   H     H_    0.648366 0.367637 0.175539 0.353473
H33   H     H_    0.422220 0.281764 0.895814 0.360656
H34   H     H_    0.207492 0.792917 0.936289 0.143577
H35   H     H_    0.793678 0.790959 0.050494 0.183988
H36   H     H_    0.707492 0.292917 0.936289 0.143577
H37   H     H_    0.293678 0.290959 0.050494 0.183988
H38   H     H_    0.628298 0.060371 0.040921 0.194292
H39   H     H_    0.373237 0.044104 0.963672 0.169088
H40   H     H_    0.128298 0.560371 0.040921 0.194292
H41   H     H_    0.623297 0.807376 0.001056 0.085571
H42   H     H_    0.873237 0.544104 0.963672 0.169088
H43   H     H_    0.143227 0.605768 0.922883 0.157389
H44   H     H_    0.854552 0.584249 0.078871 0.172797
H45   H     H_    0.643227 0.105768 0.922883 0.157389
H46   H     H_    0.354552 0.084249 0.078871 0.172797
H47   H     H_    0.550225 0.643334 0.457944 0.126990
H48   H     H_    0.437440 0.636891 0.545264 0.125482
H49   H     H_    0.050225 0.143334 0.457944 0.126990
H50   H     H_    0.937440 0.136891 0.545264 0.125482
H51   H     H_    0.464301 0.647670 0.427552 0.143097
H52   H     H_    0.881383 0.299384 0.990989 0.083848
H53   H     H_    0.521602 0.653164 0.570253 0.151406
H54   H     H_    0.964301 0.147670 0.427552 0.143097
H55   H     H_    0.021602 0.153164 0.570253 0.151406
H56   H     H_    0.612363 0.869450 0.471108 0.064798
H57   H     H_    0.373776 0.869042 0.535847 0.060646
H58   H     H_    0.112363 0.369450 0.471108 0.064798
H59   H     H_    0.873776 0.369042 0.535847 0.060646
H60   H     H_    0.577404 0.832886 0.593716 0.122119
H61   H     H_    0.403104 0.835569 0.407903 0.116369
H62   H     H_    0.077404 0.332886 0.593716 0.122119
H63   H     H_    0.123297 0.307376 0.001056 0.085571
H64   H     H_    0.903104 0.335569 0.407903 0.116369
H65   H     H_    0.456188 0.990507 0.060292 0.132246
H66   H     H_    0.545291 0.996317 0.940689 0.122115
H67   H     H_    0.956188 0.490507 0.060292 0.132246
H68   H     H_    0.045291 0.496317 0.940689 0.122115
H69   H     H_    0.446027 0.974823 0.415817 0.133050
H70   H     H_    0.535310 0.972342 0.586527 0.143937
H71   H     H_    0.946027 0.474823 0.415817 0.133050
H72   H     H_    0.035310 0.472342 0.586527 0.143937
H73   H     H_    0.424956 0.979962 0.537092 0.117803
H74   H     H_    0.288894 0.740196 0.082345 0.092294
H75   H     H_    0.569628 0.976787 0.462312 0.107694
H76   H     H_    0.924956 0.479962 0.537092 0.117803
H77   H     H_    0.069628 0.476787 0.462312 0.107694
H78   H     H_    0.112953 0.617983 0.454856 0.151843
H79   H     H_    0.873559 0.608888 0.547306 0.154096
H80   H     H_    0.612953 0.117983 0.454856 0.151843
H81   H     H_    0.373559 0.108888 0.547306 0.154096
H82   H     H_    0.162698 0.772618 0.549418 0.159241
H83   H     H_    0.823859 0.771287 0.455255 0.161463
H84   H     H_    0.662698 0.272618 0.549418 0.159241
H85   H     H_    0.743120 0.760506 0.912415 0.088098
H86   H     H_    0.323860 0.271287 0.455255 0.161463
H87   H     H_    0.135880 0.630186 0.569228 0.105107
H88   H     H_    0.855184 0.630934 0.432870 0.116118
H89   H     H_    0.635880 0.130186 0.569228 0.105107
H90   H     H_    0.355184 0.130934 0.432870 0.116118
H91   H     H_    0.699747 0.902011 0.467391 0.080964
H92   H     H_    0.287868 0.904490 0.532769 0.075024
H93   H     H_    0.199747 0.402011 0.467391 0.080964
H94   H     H_    0.787868 0.404490 0.532769 0.075024
H95   H     H_    0.702989 0.952986 0.586302 0.125521
H96   H     H_    0.788894 0.240196 0.082345 0.092294
H97   H     H_    0.278890 0.949226 0.410892 0.145000
H98   H     H_    0.202989 0.452986 0.586302 0.125521
H99   H     H_    0.778890 0.449226 0.410892 0.145000
H100  H     H_    0.340896 0.594965 0.412888 0.118708
H101  H     H_    0.650563 0.607143 0.589243 0.121423
H102  H     H_    0.840896 0.094964 0.412888 0.118708
H103  H     H_    0.150563 0.107143 0.589243 0.121423
H104  H     H_    0.291425 0.728667 0.407968 0.165390
H105  H     H_    0.703403 0.736972 0.592318 0.161342
H106  H     H_    0.791425 0.228667 0.407968 0.165390
H107  H     H_    0.243120 0.260506 0.912415 0.088098
H108  H     H_    0.203403 0.236972 0.592318 0.161342
H109  H     H_    0.549420 0.646723 0.936468 0.124720
H110  H     H_    0.459671 0.640225 0.055561 0.131172
H111  H     H_    0.049420 0.146723 0.936468 0.124720
H112  H     H_    0.959671 0.140225 0.055561 0.131172
H113  H     H_    0.316455 0.755654 0.521503 0.106634
H114  H     H_    0.669274 0.755612 0.479193 0.097570
H115  H     H_    0.816455 0.255654 0.521503 0.106634
H116  H     H_    0.169274 0.255612 0.479193 0.097570
H117  H     H_    0.352314 0.614637 0.534561 0.126723
H118  H     H_    0.288668 0.780709 0.965087 0.064086
H119  H     H_    0.636479 0.625631 0.465012 0.118402
H120  H     H_    0.852314 0.114637 0.534561 0.126723
H121  H     H_    0.136479 0.125631 0.465012 0.118402
H122  H     H_    0.282566 0.409716 0.455195 0.146716
H123  H     H_    0.712991 0.403912 0.548271 0.147758
H124  H     H_    0.782566 0.909716 0.455195 0.146716
H125  H     H_    0.212991 0.903912 0.548271 0.147758
H126  H     H_    0.294171 0.463866 0.574793 0.226321
H127  H     H_    0.690244 0.473462 0.430587 0.227640
H128  H     H_    0.794171 0.963866 0.574793 0.226321
O1    O     O_R   0.214130 0.708570 0.829890 -0.532396
O2    O     O_R   0.542830 0.717300 0.331620 -0.522079
O3    O     O_R   0.957170 0.217300 0.668380 -0.525226
O4    O     O_R   0.042830 0.217300 0.331620 -0.522079
O5    O     O_R   0.320870 0.624890 0.673130 -0.494022
O6    O     O_R   0.679130 0.624890 0.326870 -0.485332
O7    O     O_R   0.820870 0.124890 0.673130 -0.494022
O8    O     O_R   0.179130 0.124890 0.326870 -0.485332
O9    O     O_3   0.334430 0.834430 0.749680 -0.327233
O10   O     O_3   0.665570 0.834430 0.250320 -0.327142
O11   O     O_3   0.834430 0.334430 0.749680 -0.327233
O12   O     O_R   0.785870 0.708570 0.170110 -0.514468
O13   O     O_3   0.165570 0.334430 0.250320 -0.327142
O14   O     O_R   0.236050 0.959150 0.825270 -0.518240
O15   O     O_R   0.763950 0.959150 0.174730 -0.516010
O16   O     O_R   0.736050 0.459150 0.825270 -0.518240
O17   O     O_R   0.263950 0.459150 0.174730 -0.516010
O18   O     O_R   0.332100 0.076650 0.832310 -0.468064
O19   O     O_R   0.667900 0.076650 0.167690 -0.475540
O20   O     O_R   0.832100 0.576650 0.832310 -0.468064
O21   O     O_R   0.167900 0.576650 0.167690 -0.475540
O22   O     O_R   0.446500 0.918620 0.826240 -0.507535
O23   O     O_R   0.714130 0.208570 0.829890 -0.532396
O24   O     O_R   0.553500 0.918620 0.173760 -0.499538
O25   O     O_R   0.946500 0.418620 0.826240 -0.507535
O26   O     O_R   0.053500 0.418620 0.173760 -0.499538
O27   O     O_R   0.457310 0.715830 0.831280 -0.518350
O28   O     O_R   0.542690 0.715830 0.168720 -0.517389
O29   O     O_R   0.957310 0.215830 0.831280 -0.518350
O30   O     O_R   0.042690 0.215830 0.168720 -0.517389
O31   O     O_R   0.321000 0.623520 0.824130 -0.490241
O32   O     O_R   0.679000 0.623520 0.175870 -0.501154
O33   O     O_R   0.821000 0.123520 0.824130 -0.490241
O34   O     O_R   0.285870 0.208570 0.170110 -0.514468
O35   O     O_R   0.179000 0.123520 0.175870 -0.501154
O36   O     O_R   0.213990 0.710040 0.667000 -0.527322
O37   O     O_R   0.786010 0.710040 0.333000 -0.523555
O38   O     O_R   0.713990 0.210040 0.667000 -0.527322
O39   O     O_R   0.286010 0.210040 0.333000 -0.523555
O40   O     O_R   0.235920 0.960520 0.674260 -0.528246
O41   O     O_R   0.764080 0.960520 0.325740 -0.528425
O42   O     O_R   0.735920 0.460520 0.674260 -0.528246
O43   O     O_R   0.264080 0.460520 0.325740 -0.528425
O44   O     O_R   0.331960 0.078120 0.669410 -0.455283
O45   O     O_R   0.446360 0.919990 0.675230 -0.512812
O46   O     O_R   0.668040 0.078120 0.330590 -0.451399
O47   O     O_R   0.831960 0.578120 0.669410 -0.455283
O48   O     O_R   0.168040 0.578120 0.330590 -0.451399
O49   O     O_2   0.125398 0.767170 0.064648 -0.536987
O50   O     O_R   0.192719 0.835282 0.154735 -0.685163
O51   O     O_2   0.876248 0.763116 0.993820 -0.583200
O52   O     O_R   0.873830 0.779988 0.887242 -0.673760
O53   O     O_2   0.625398 0.267170 0.064648 -0.536987
O54   O     O_R   0.692719 0.335282 0.154735 -0.685163
O55   O     O_2   0.376248 0.263116 0.993820 -0.583200
O56   O     O_R   0.553640 0.919990 0.324770 -0.505959
O57   O     O_R   0.373829 0.279988 0.887242 -0.673760
O58   O     O_R   0.946360 0.419990 0.675230 -0.512812
O59   O     O_R   0.053640 0.419990 0.324770 -0.505959
O60   O     O_R   0.457170 0.717300 0.668380 -0.525226

loop_
_geom_bond_atom_site_label_1
_geom_bond_atom_site_label_2
_ccdc_geom_bond_type
C94   H124  S    
C8    O36   A    
C29   C42   S    
C35   C53   S    
C83   C87   S    
C10   O7    A    
C77   H62   S    
C89   H84   S    
C48   O16   A    
C33   H16   S    
C75   H60   S    
C20   C92   S    
C27   O51   D    
Cr6   O11   S    
C14   C21   S    
C97   H105  S    
Cr2   O2    S    
C1    C46   S    
Cr9   O19   S    
Cr4   O8    S    
C64   H55   S    
Cr2   O28   S    
C94   C111  S    
C96   H104  S    
C3    C100  S    
C38   C55   S    
Cr7   O17   S    
C91   C100  S    
C108  C121  S    
Cr7   O43   S    
C93   C110  S    
C99   C121  S    
Cr8   O44   S    
C28   O53   D    
C1    O18   A    
C84   Cl2   S    
Cr9   O10   S    
Cr9   O56   S    
Cr11  O13   S    
C86   Cl4   S    
Cr6   O23   S    
C86   C90   S    
C93   C101  S    
C83   H78   S    
C60   H37   S    
Cr5   O15   S    
C68   O30   A    
C17   C21   S    
C56   H34   S    
C19   C23   S    
C58   H13   S    
C30   C47   S    
C39   C56   S    
C66   O28   A    
C16   C20   S    
C123  O46   A    
C70   H109  S    
Cr6   O42   S    
C49   C115  S    
C83   C100  S    
C14   H66   S    
C36   H21   S    
Cr8   O45   S    
C105  C118  S    
C37   C45   S    
C102  C123  S    
C107  C120  S    
Cr11  O21   S    
C62   H48   S    
C38   H39   S    
C29   O55   D    
C90   H86   S    
C84   C88   S    
C20   H63   S    
C28   O54   S    
Cr4   O4    S    
C98   C120  S    
C47   C52   S    
C59   O21   A    
C74   H61   S    
C93   H94   S    
C24   C46   S    
C12   H65   S    
C13   C45   S    
C77   C82   S    
C5    O56   A    
C49   C53   S    
C51   C55   S    
C98   H102  S    
C94   C102  S    
C61   H51   S    
C41   C45   S    
C75   C79   S    
C44   C48   S    
C10   O38   A    
C115  O12   A    
Cr1   O36   S    
Cr9   O24   S    
C13   C32   S    
C86   C104  S    
C8    C105  S    
C37   O19   A    
C71   C79   S    
C59   O17   A    
C5    O2    A    
Cr4   O30   S    
C57   H2    S    
C7    O4    A    
C113  O1    A    
C41   C58   S    
C15   C25   S    
C104  C122  S    
C12   C22   S    
C4    O60   A    
C49   C57   S    
C23   C67   S    
C6    O58   A    
C57   H35   S    
C2    C44   S    
Cr4   O35   S    
C117  O34   A    
C73   H76   S    
C29   O57   S    
C33   H20   S    
C43   C59   S    
C26   O50   S    
C122  O40   A    
C117  O35   A    
C63   C80   S    
C60   H24   S    
Cr11  O59   S    
C101  C124  S    
C11   O39   A    
C74   H69   S    
C36   H38   S    
C18   H41   S    
C97   H101  S    
Cr6   O16   S    
Cr12  O5    S    
C97   C119  S    
C124  O47   A    
C118  H113  S    
H30   O50   S    
C30   H12   S    
C87   C105  S    
C27   C40   S    
Cr5   O37   S    
Cr12  O60   S    
C63   H54   S    
Cr3   O3    S    
C16   C23   S    
C7    O59   A    
C120  H120  S    
C119  H114  S    
C31   H14   S    
C105  C109  S    
C6    O3    A    
C18   C22   S    
C107  C111  S    
Cr3   O33   S    
C34   C43   S    
C76   C80   S    
C24   H7    S    
C4    O45   A    
Cr11  O26   S    
C91   H93   S    
C120  H115  S    
C90   C108  S    
C72   C80   S    
Cr8   O22   S    
Cr6   O38   S    
C88   H88   S    
C96   C100  S    
C51   C117  S    
Cr4   O13   S    
Cr1   O14   S    
C11   O8    A    
C38   C46   S    
C36   C54   S    
C63   C64   S    
C40   C44   S    
C11   C108  S    
C23   C92   S    
C90   H90   S    
C51   C60   S    
C15   H67   S    
C85   C102  S    
C47   C56   S    
C65   O22   A    
C30   H17   S    
C119  H119  S    
Cr7   O34   S    
C106  C119  S    
C34   H40   S    
C55   H27   S    
C81   H110  S    
Cr12  O27   S    
Cr10  O47   S    
C75   H70   S    
C109  H98   S    
C2    H5    S    
C15   C19   S    
C50   C54   S    
C112  H3    S    
C85   H80   S    
C54   H26   S    
C13   H10   S    
C98   H106  S    
C95   C112  S    
C43   C114  S    
C26   C39   S    
C95   H125  S    
C20   C25   S    
C28   C41   S    
C61   H47   S    
C17   H1    S    
C42   C46   S    
C55   H46   S    
C110  H127  S    
C77   H72   S    
C69   H75   S    
C12   C17   S    
C111  H95   S    
C124  O42   A    
C86   H81   S    
Cr2   O6    S    
C37   O15   A    
H32   O54   S    
C8    O5    A    
C53   H29   S    
C32   H19   S    
C99   C104  S    
C113  O31   A    
C67   O29   A    
C96   H100  S    
C25   C68   S    
C83   Cl1   S    
Cr10  O25   S    
Cr5   O41   S    
Cr12  O31   S    
C56   H118  S    
C27   O52   S    
Cr10  O58   S    
C50   C58   S    
C22   C81   S    
Cr9   O46   S    
C53   H44   S    
C85   C89   S    
C71   H73   S    
Cr5   O10   S    
C108  C112  S    
C115  O32   A    
C114  H4    S    
C89   C107  S    
C122  O44   A    
C123  O41   A    
C95   H92   S    
H31   O52   S    
C87   H87   S    
C73   C76   S    
C73   C82   S    
C30   C114  S    
C47   C113  S    
C40   C57   S    
C21   C65   S    
C3    O43   A    
Cr12  O9    S    
C32   C50   S    
C71   C74   S    
C33   C51   S    
C34   C52   S    
C24   C33   S    
C114  H8    S    
C98   C102  S    
C48   O20   A    
C116  O33   A    
C69   C75   S    
C17   C81   S    
C99   H103  S    
C31   H18   S    
C72   H58   S    
C9    O37   A    
C112  H97   S    
C74   C78   S    
Cr2   O32   S    
Cr3   O29   S    
C62   H53   S    
C5    C78   S    
C7    C80   S    
C18   C70   S    
C6    C82   S    
Cr10  O11   S    
C14   C18   S    
Cr7   O13   S    
C52   H43   S    
Cr8   O18   S    
C31   C49   S    
Cr7   O39   S    
C118  H117  S    
C35   H42   S    
C72   H77   S    
Cr5   O12   S    
C103  H112  S    
C96   C118  S    
C24   H11   S    
C111  H128  S    
C1    O14   A    
Cr1   O40   S    
C15   C16   S    
Cr10  O20   S    
C40   H85   S    
C70   C81   S    
C65   O27   A    
C22   C66   S    
C92   C103  S    
C121  H121  S    
C19   C103  S    
C68   O26   A    
Cr1   O9    S    
C19   H52   S    
C2    H9    S    
C66   O24   A    
C84   C101  S    
C69   C78   S    
C61   C62   S    
C13   H6    S    
C94   H91   S    
C71   H57   S    
C42   H107  S    
C87   H82   S    
C9    O6    A    
C4    C79   S    
C34   H23   S    
C42   C60   S    
C110  H99   S    
C25   C103  S    
C39   C43   S    
C9    C106  S    
C63   H49   S    
C54   H45   S    
C69   H56   S    
C2    C31   S    
Cr2   O10   S    
Cr3   O7    S    
C72   C77   S    
C84   H79   S    
C32   H15   S    
C88   C106  S    
C61   C78   S    
C67   O25   A    
C88   H83   S    
C36   C45   S    
C35   C44   S    
C64   C82   S    
C91   H122  S    
C76   H71   S    
C26   O49   D    
C12   C14   S    
C85   Cl3   S    
H33   O57   S    
C10   C107  S    
C95   C104  S    
C121  H116  S    
C106  C110  S    
C92   H111  S    
Cr3   O11   S    
C39   H74   S    
C58   H36   S    
C109  H126  S    
C16   H68   S    
C64   H50   S    
C76   H64   S    
C41   H96   S    
C116  O23   A    
C21   C70   S    
C3    O48   A    
C91   C109  S    
Cr8   O9    S    
C99   H108  S    
C52   H28   S    
C73   H59   S    
C35   H25   S    
C50   C116  S    
Cr1   O1    S    
Cr11  O48   S    
C38   H22   S    
C89   H89   S    
C62   C79   S    
C97   C101  S    
C93   H123  S    
