data_mof_unit_46948.cif
_audit_creation_date              2013-03-05T15:54:48-0500
_audit_creation_method            fapswitch 2.2
_symmetry_space_group_name_H-M    P1
_symmetry_Int_Tables_number       1
_space_group_crystal_system       triclinic
_cell_length_a                    18.97319
_cell_length_b                    10.723949
_cell_length_c                    9.913844
_cell_angle_alpha                 92.201574
_cell_angle_beta                  90.682194
_cell_angle_gamma                 92.417561
_cell_volume                      2013.67745176

loop_
_atom_site_label
_atom_site_type_symbol
_atom_site_description
_atom_site_fract_x
_atom_site_fract_y
_atom_site_fract_z
_atom_type_partial_charge
O1    O     O_R   0.500000 0.316780 0.614690 -0.646616
O2    O     O_R   0.499990 0.316750 0.385360 -0.581099
C1    C     C_R   0.508673 0.261804 0.497291 0.894866
O3    O     O_R   0.398140 0.500000 0.614700 -0.642957
O4    O     O_R   0.398130 0.499970 0.385370 -0.645919
C2    C     C_R   0.365082 0.495941 0.499155 0.857383
Zn1   Zn    Zn3+2 0.500000 0.500020 0.653130 0.995878
Zn2   Zn    Zn3+2 0.500000 0.499980 0.346870 0.987605
O5    O     O_R   0.500010 0.683250 0.614640 -0.593341
O6    O     O_R   0.500000 0.683220 0.385310 -0.626915
O7    O     O_R   0.601870 0.500030 0.614630 -0.542541
O8    O     O_R   0.601860 0.500000 0.385300 -0.583051
C3    C     C_R   0.498006 0.740875 0.503234 0.904443
C4    C     C_R   0.634655 0.492874 0.500286 0.932359
C5    C     C_R   0.253377 0.453132 0.618285 -0.133041
H1    H     H_    0.280597 0.464869 0.714881 0.156270
C6    C     C_R   0.182300 0.417508 0.616471 -0.108685
H2    H     H_    0.156288 0.405097 0.711954 0.158078
C7    C     C_R   0.145277 0.400575 0.493286 0.077218
C8    C     C_R   0.180826 0.418047 0.371698 -0.141690
H3    H     H_    0.153465 0.406287 0.275276 0.158633
C9    C     C_R   0.252171 0.453258 0.373510 -0.190029
H4    H     H_    0.278613 0.465138 0.278345 0.158962
C10   C     C_R   0.288842 0.471289 0.496919 -0.031495
N1    N     N_R   0.031011 0.371964 0.375764 -0.172866
N2    N     N_R   0.960978 0.371295 0.377165 -0.171151
C11   C     C_R   0.926472 0.376320 0.496072 0.352892
N3    N     N_R   0.964042 0.376447 0.613099 -0.172705
N4    N     N_R   0.033893 0.376758 0.611633 -0.171593
C12   C     C_R   0.068737 0.377351 0.493148 0.295253
C13   C     C_R   0.823374 0.459422 0.612258 -0.270688
H5    H     H_    0.856260 0.484615 0.700001 0.179555
C14   C     C_R   0.752451 0.487907 0.614879 0.468563
C15   C     C_R   0.709518 0.462460 0.499651 -0.285084
C16   C     C_R   0.736902 0.396225 0.387375 0.455838
C17   C     C_R   0.807727 0.365140 0.387867 -0.266751
H6    H     H_    0.828203 0.312209 0.302831 0.168258
C18   C     C_R   0.851271 0.398845 0.498952 -0.052117
C19   C     C_R   0.579392 0.139059 0.717919 -0.226928
H7    H     H_    0.605218 0.229259 0.702310 0.161114
C20   C     C_R   0.585747 0.088341 0.844340 0.588942
C21   C     C_R   0.548644 0.975875 0.868143 -0.200207
H8    H     H_    0.544886 0.942146 0.969221 0.182374
C22   C     C_R   0.516655 0.905719 0.760943 -0.155082
H9    H     H_    0.487656 0.821781 0.786922 0.207733
C23   C     C_R   0.519030 0.949042 0.627692 0.089593
C24   C     C_R   0.541374 0.073638 0.611983 -0.010894
C25   C     C_R   0.523892 0.130686 0.491217 -0.183864
C26   C     C_R   0.507060 0.057789 0.373285 0.298963
H10   H     H_    0.481927 0.876706 0.292528 0.207172
C27   C     C_R   0.494419 0.931755 0.384329 -0.277780
C28   C     C_R   0.499661 0.876010 0.509076 -0.159211
H11   H     H_    0.578854 0.638621 0.138319 0.153642
C29   C     C_R   0.406369 0.338037 0.132139 -0.137547
H12   H     H_    0.404971 0.331462 0.239005 0.211630
C30   C     C_R   0.358880 0.259039 0.058750 -0.205209
H13   H     H_    0.323176 0.197963 0.112728 0.202419
C31   C     C_R   0.358272 0.256884 0.918129 0.310332
C32   C     C_R   0.405733 0.336822 0.852388 -0.225245
H14   H     H_    0.403475 0.332086 0.745364 0.238674
C33   C     C_R   0.453716 0.419657 0.923976 0.025557
C34   C     C_R   0.453885 0.419893 0.068162 0.185302
N5    N     N_R   0.499340 0.498800 0.142780 -0.116602
C35   C     C_R   0.544257 0.577114 0.076505 -0.267377
C36   C     C_R   0.545163 0.577822 0.931098 0.545439
N6    N     N_R   0.499320 0.498720 0.857170 -0.147472
O9    O     O_3   0.622715 0.156738 0.945296 -0.592683
C37   C     C_3   0.675436 0.083753 0.000059 -0.267105
H15   H     H_    0.706236 0.035436 0.920125 0.122373
H16   H     H_    0.652294 0.015316 0.070151 0.180836
H17   H     H_    0.713085 0.146267 0.059730 0.207842
N7    N     N_R   0.309862 0.173368 0.841991 0.213687
O10   O     O_R   0.310658 0.167920 0.710615 -0.404312
O11   O     O_R   0.264750 0.101273 0.903429 -0.372416
O12   O     O_3   0.589238 0.657333 0.858184 -0.559360
C38   C     C_3   0.643710 0.720001 0.935754 -0.285710
H18   H     H_    0.678683 0.772094 0.866680 0.217143
H19   H     H_    0.676599 0.653839 0.989250 0.149410
H20   H     H_    0.622326 0.789295 0.008412 0.117113
O13   O     O_3   0.724393 0.536934 0.732056 -0.574317
C39   C     C_3   0.721614 0.443354 0.828694 -0.260383
H21   H     H_    0.767986 0.456264 0.897798 0.146587
H22   H     H_    0.718769 0.345566 0.785214 0.150811
H23   H     H_    0.672926 0.453338 0.887186 0.194600
O14   O     O_3   0.691850 0.345283 0.287537 -0.556939
C40   C     C_3   0.704418 0.407112 0.167168 -0.230624
H24   H     H_    0.704328 0.510598 0.182398 0.130533
H25   H     H_    0.660805 0.378887 0.095828 0.228887
H26   H     H_    0.754703 0.378545 0.121484 0.125099
N8    N     N_R   0.505994 0.108171 0.241056 0.202432
O15   O     O_R   0.461030 0.062453 0.150123 -0.428552
O16   O     O_R   0.558918 0.178882 0.203076 -0.322136

loop_
_geom_bond_atom_site_label_1
_geom_bond_atom_site_label_2
_geom_bond_distance
_ccdc_geom_bond_type
C20   C21   1.400028 A    
C7    C8    1.403239 A    
C38   H20   1.107678 S    
C26   N8    1.437180 S    
C39   H21   1.109364 S    
C20   O9    1.383903 S    
O14   C40   1.405251 S    
Zn1   O7    1.974573 S    
N2    C11   1.355600 A    
N4    C12   1.354850 A    
N3    N4    1.325401 A    
C38   H19   1.110158 S    
O4    C2    1.298389 A    
O7    C4    1.300767 A    
C40   H25   1.106813 S    
C11   C18   1.457556 S    
C5    H1    1.083102 S    
C23   C28   1.423361 A    
C1    C25   1.446473 S    
C30   H13   1.082759 S    
Zn1   O5    2.015989 S    
C15   C16   1.413359 A    
O5    C3    1.287083 A    
C6    C7    1.403428 A    
C29   H12   1.065070 S    
C33   N6    1.378796 A    
C13   H5    1.083418 S    
C30   C31   1.393298 A    
C37   H15   1.114886 S    
C26   C27   1.371476 A    
C13   C14   1.392696 A    
C32   H14   1.060555 S    
C21   C22   1.395899 A    
O3    Zn1   1.965341 S    
C39   H22   1.117310 S    
C22   C23   1.417675 A    
H10   C27   1.083850 S    
C29   C30   1.389792 A    
C32   C33   1.410517 A    
O9    C37   1.411979 S    
C38   H18   1.109165 S    
O3    C2    1.297762 A    
C19   H7    1.083067 S    
C40   H24   1.114319 S    
N7    O10   1.301809 A    
C29   C34   1.405429 A    
N1    N2    1.328701 A    
O6    C3    1.303054 A    
C27   C28   1.398439 A    
O1    C1    1.299727 A    
C16   C17   1.398083 A    
O12   C38   1.412079 S    
C34   N5    1.371932 A    
C3    C28   1.447118 S    
N8    O16   1.300699 A    
C24   C25   1.407711 A    
Zn2   O8    1.965339 S    
C2    C10   1.459218 S    
C6    H2    1.082868 S    
N7    O11   1.301588 A    
C5    C10   1.401648 A    
O8    C4    1.298582 A    
C9    C10   1.403050 A    
C21   H8    1.080481 S    
C39   H23   1.103362 S    
C22   H9    1.076434 S    
C19   C24   1.413557 A    
N1    C12   1.356995 A    
C5    C6    1.385756 A    
C23   C24   1.399671 A    
C17   H6    1.083276 S    
O1    Zn1   1.987244 S    
Zn2   O6    1.987244 S    
O2    Zn2   2.015987 S    
C8    C9    1.389613 A    
O13   C39   1.413633 S    
C40   H26   1.110632 S    
C4    C15   1.470735 S    
O4    Zn2   1.974577 S    
C14   O13   1.378665 S    
C36   O12   1.396583 S    
C13   C18   1.396798 A    
C35   C36   1.442153 A    
C17   C18   1.395913 A    
O2    C1    1.288328 A    
C31   C32   1.400832 A    
Zn1   N6    2.023594 S    
C16   O14   1.381189 S    
C31   N7    1.441400 S    
N8    O15   1.301270 A    
C37   H17   1.108466 S    
C25   C26   1.407081 A    
H11   C35   1.079052 S    
C14   C15   1.406451 A    
C33   C34   1.429304 A    
Zn2   N5    2.022756 S    
N5    C35   1.363326 A    
C8    H3    1.082849 S    
C19   C20   1.391218 A    
C37   H16   1.110659 S    
C36   N6    1.374079 A    
C11   N3    1.354348 A    
C9    H4    1.083115 S    
C7    C12   1.462988 S    
