data_mof_unit_20021.cif
_audit_creation_date              2012-10-26T19:45:15-0400
_audit_creation_method            fapswitch 2.2
_symmetry_space_group_name_H-M    P1
_symmetry_Int_Tables_number       1
_space_group_crystal_system       triclinic
_cell_length_a                    9.523573
_cell_length_b                    10.820491
_cell_length_c                    13.852673
_cell_angle_alpha                 90.296601
_cell_angle_beta                  84.658603
_cell_angle_gamma                 90.196004
_cell_volume                      1421.29036191

loop_
_atom_site_label
_atom_site_type_symbol
_atom_type_description
_atom_site_fract_x
_atom_site_fract_y
_atom_site_fract_z
_atom_type_partial_charge
C1    C     C_R   0.500172 0.737911 0.499846 0.545330
C2    C     C_R   0.933110 0.425232 0.438275 -0.035167
C3    C     C_1   0.537890 0.502910 0.213607 -0.052763
C4    C     C_1   0.461714 0.497925 0.786305 -0.045799
C5    C     C_2   0.556488 0.510837 0.022630 0.273416
C6    C     C_2   0.438990 0.491446 0.977805 0.277430
C7    C     C_1   0.449347 0.495342 0.873243 -0.023252
C8    C     C_1   0.548849 0.506193 0.126659 -0.004969
C9    C     C_R   0.627436 0.936428 0.481841 -0.148535
C10   C     C_R   0.372144 0.063595 0.515588 -0.134177
C11   C     C_R   0.627344 0.064253 0.482137 -0.144964
C12   C     C_R   0.499830 0.262095 0.499673 0.546036
C13   C     C_R   0.372351 0.935752 0.515888 -0.143359
C14   C     C_3   0.883369 0.768898 0.638576 -0.006743
C15   C     C_3   0.932197 0.786991 0.740006 -0.279232
C16   C     C_3   0.990453 0.916993 0.752820 -0.480360
C17   C     C_3   0.134137 0.350860 0.278755 0.003608
C18   C     C_3   0.078476 0.224840 0.248720 -0.271074
C19   C     C_3   0.044601 0.224554 0.143208 -0.480735
C20   C     C_3   0.199044 0.522415 0.012249 -0.013188
C21   C     C_3   0.192722 0.640454 0.074090 -0.274289
C22   C     C_3   0.059919 0.714599 0.060703 -0.477158
C23   C     C_R   0.499712 0.128255 0.499127 0.022224
C24   C     C_3   0.767751 0.448035 0.948373 -0.004336
C25   C     C_3   0.879722 0.484094 0.867081 -0.259595
C26   C     C_3   0.975151 0.375428 0.835331 -0.486013
C27   C     C_R   0.500084 0.871755 0.499297 0.020684
C28   C     C_R   0.476883 0.499955 0.683088 0.547895
C29   C     C_R   0.523089 0.500189 0.316881 0.542871
C30   C     C_R   0.916961 0.576598 0.561764 0.370476
C31   C     C_R   0.083287 0.426781 0.435947 0.371362
C32   C     C_R   0.066864 0.573377 0.562740 -0.041057
Cu1   Cu    Cu3+1 0.359340 0.499980 0.500000 0.978580
Cu2   Cu    Cu3+1 0.640660 0.500020 0.500000 0.983351
H1    H     H_    0.793810 0.832624 0.631600 0.160903
H2    H     H_    0.159177 0.153028 0.258256 0.175287
H3    H     H_    0.981609 0.200537 0.295756 0.149407
H4    H     H_    0.962901 0.294802 0.132209 0.134498
H5    H     H_    0.003769 0.132227 0.124125 0.142981
H6    H     H_    0.141111 0.244499 0.094388 0.184815
H7    H     H_    0.118936 0.628980 0.613691 0.116091
H8    H     H_    0.881109 0.363751 0.391181 0.115305
H9    H     H_    0.102843 0.467133 0.033474 0.146677
H10   H     H_    0.195493 0.544827 0.934169 0.130122
H11   H     H_    0.193356 0.615488 0.151803 0.169018
H12   H     H_    0.967345 0.797044 0.581254 0.092849
H13   H     H_    0.286747 0.698878 0.053224 0.163668
H14   H     H_    0.058975 0.743157 0.983837 0.146453
H15   H     H_    0.057629 0.798850 0.106917 0.147791
H16   H     H_    0.964177 0.658548 0.082104 0.167942
H17   H     H_    0.707675 0.367271 0.922748 0.127882
H18   H     H_    0.820329 0.420752 0.013469 0.126122
H19   H     H_    0.826953 0.516679 0.803665 0.217723
H20   H     H_    0.944739 0.561092 0.892233 0.151920
H21   H     H_    0.027169 0.338861 0.897691 0.145116
H22   H     H_    0.057815 0.406462 0.778701 0.159170
H23   H     H_    0.841550 0.771475 0.795234 0.187368
H24   H     H_    0.912775 0.300351 0.804621 0.152635
H25   H     H_    0.726884 0.888486 0.467401 0.121305
H26   H     H_    0.272505 0.111546 0.529027 0.141196
H27   H     H_    0.726886 0.112717 0.468410 0.123707
H28   H     H_    0.272805 0.887289 0.529675 0.119185
H29   H     H_    0.015171 0.718831 0.752848 0.144620
H30   H     H_    0.083582 0.933331 0.699893 0.146171
H31   H     H_    0.023464 0.927510 0.827231 0.147806
H32   H     H_    0.908435 0.987110 0.742160 0.148628
H33   H     H_    0.233943 0.370313 0.233194 0.192562
H34   H     H_    0.059636 0.425793 0.262559 0.097389
N1    N     N_R   0.147930 0.499970 0.499980 -0.241829
N2    N     N_R   0.852070 0.500030 0.500020 -0.241169
O1    O     O_R   0.381260 0.680340 0.500000 -0.520725
O2    O     O_3   0.165835 0.346353 0.376698 -0.538983
O3    O     O_3   0.316785 0.449744 0.030778 -0.614346
O4    O     O_3   0.679779 0.550968 0.971122 -0.593089
O5    O     O_R   0.618740 0.319660 0.500000 -0.522279
O6    O     O_R   0.618830 0.680370 0.500010 -0.473502
O7    O     O_R   0.381170 0.319630 0.499990 -0.457970
O8    O     O_R   0.364420 0.499960 0.637840 -0.517967
O9    O     O_R   0.635580 0.500040 0.362160 -0.510890
O10   O     O_R   0.601990 0.499990 0.637850 -0.439656
O11   O     O_R   0.398010 0.500010 0.362150 -0.460383
O12   O     O_3   0.832544 0.646721 0.628346 -0.538022

loop_
_geom_bond_atom_site_label_1
_geom_bond_atom_site_label_2
_ccdc_geom_bond_type
C24   H18   S    
C22   H14   S    
C24   O4    S    
C26   H21   S    
C14   H12   S    
C12   C23   S    
C1    O1    A    
C18   H3    S    
C25   H19   S    
C5    C6    D    
Cu1   O8    S    
C15   C16   S    
C18   C19   S    
C5    O4    S    
C3    C29   S    
C4    C28   S    
C13   H28   S    
C32   H7    S    
C28   O8    A    
Cu2   N2    S    
Cu1   N1    S    
Cu2   O5    S    
C22   H16   S    
Cu2   O10   S    
C24   H17   S    
C21   C22   S    
C15   H23   S    
C4    C7    T    
C30   N2    A    
C17   C18   S    
C21   H11   S    
C17   H33   S    
C25   H20   S    
C3    C8    T    
C14   H1    S    
C25   C26   S    
C2    C31   A    
C9    H25   S    
C30   O12   S    
C10   H26   S    
C29   O11   A    
C19   H4    S    
Cu2   O9    S    
C26   H24   S    
C29   O9    A    
C12   O7    A    
Cu1   Cu2   S    
C24   C25   S    
C9    C11   A    
C32   N1    A    
C19   H5    S    
C22   H15   S    
C31   O2    S    
C20   H10   S    
C16   H32   S    
C14   O12   S    
C20   H9    S    
C9    C27   A    
C6    O3    S    
C17   H34   S    
C1    O6    A    
C11   H27   S    
C10   C13   A    
C26   H22   S    
C5    C8    S    
C6    C7    S    
C10   C23   A    
C30   C32   A    
Cu1   O7    S    
Cu1   O11   S    
C2    H8    S    
C11   C23   A    
C20   O3    S    
C28   O10   A    
C19   H6    S    
Cu1   O1    S    
C31   N1    A    
C20   C21   S    
C17   O2    S    
C12   O5    A    
C1    C27   S    
C15   H29   S    
C14   C15   S    
C13   C27   A    
C16   H31   S    
C16   H30   S    
C2    N2    A    
C18   H2    S    
Cu2   O6    S    
C21   H13   S    
