data_mof_unit_17289.cif
_audit_creation_date              2012-12-10T17:48:40-0500
_audit_creation_method            fapswitch 2.2
_symmetry_space_group_name_H-M    P1
_symmetry_Int_Tables_number       1
_space_group_crystal_system       triclinic
_cell_length_a                    15.722015
_cell_length_b                    10.622152
_cell_length_c                    9.941783
_cell_angle_alpha                 89.987374
_cell_angle_beta                  89.982192
_cell_angle_gamma                 91.518497
_cell_volume                      1659.71081454

loop_
_atom_site_label
_atom_site_type_symbol
_atom_type_description
_atom_site_fract_x
_atom_site_fract_y
_atom_site_fract_z
_atom_type_partial_charge
C1    C     C_R   0.499389 0.260769 0.500049 0.874874
C2    C     C_3   0.949146 0.418288 0.619051 -0.395399
C3    C     C_3   0.917335 0.498292 0.499912 0.368423
C4    C     C_3   0.953583 0.634575 0.514115 -0.403080
C5    C     C_3   0.051734 0.634042 0.514203 -0.395975
C6    C     C_1   0.825875 0.499065 0.499863 -0.128730
C7    C     C_1   0.174026 0.497323 0.500104 -0.126576
C8    C     C_1   0.249436 0.498061 0.500115 -0.181091
C9    C     C_R   0.659558 0.138499 0.500486 -0.146174
C10   C     C_R   0.736781 0.076755 0.500639 -0.139806
C11   C     C_R   0.737482 0.945735 0.500546 -0.143925
C12   C     C_R   0.338434 0.499352 0.500073 0.889350
C13   C     C_R   0.660959 0.876252 0.500298 -0.163745
C14   C     C_R   0.582233 0.937738 0.500153 0.084571
C15   C     C_R   0.581320 0.069416 0.500244 0.050254
C16   C     C_R   0.501796 0.128139 0.500101 -0.102183
C17   C     C_R   0.424039 0.059810 0.499944 0.187886
C18   C     C_R   0.426121 0.930364 0.499830 -0.198324
C19   C     C_R   0.503816 0.871332 0.499922 -0.136687
C20   C     C_R   0.388824 0.335112 0.139674 -0.144298
C21   C     C_R   0.334114 0.253561 0.069787 -0.195318
C22   C     C_R   0.334104 0.253538 0.930549 -0.195256
C23   C     C_R   0.500630 0.739106 0.499955 0.878258
C24   C     C_R   0.388804 0.335065 0.860528 -0.144330
C25   C     C_R   0.445271 0.418710 0.927874 0.166672
C26   C     C_R   0.445285 0.418746 0.072205 0.166668
C27   C     C_R   0.552411 0.577804 0.071364 -0.109350
C28   C     C_R   0.552394 0.577763 0.928437 -0.109134
C29   C     C_R   0.661563 0.500822 0.499926 0.874991
C30   C     C_3   0.047352 0.417776 0.619139 -0.397790
C31   C     C_3   0.047941 0.440843 0.366696 -0.397036
C32   C     C_3   0.949740 0.441346 0.366634 -0.395750
C33   C     C_1   0.750515 0.499994 0.499873 -0.190066
C34   C     C_3   0.082520 0.497407 0.500041 0.366502
H1    H     H_    0.923437 0.319899 0.610856 0.162174
H2    H     H_    0.071790 0.456664 0.716108 0.169009
H3    H     H_    0.926193 0.457409 0.715987 0.168961
H4    H     H_    0.931122 0.693817 0.429514 0.163088
H5    H     H_    0.661728 0.240149 0.500578 0.128003
H6    H     H_    0.796170 0.130756 0.500829 0.125526
H7    H     H_    0.797404 0.897795 0.500666 0.126763
H8    H     H_    0.663926 0.774648 0.500224 0.119857
H9    H     H_    0.367198 0.874699 0.499712 0.138634
H10   H     H_    0.595277 0.641502 0.124791 0.148024
H11   H     H_    0.069068 0.319145 0.611013 0.164857
H12   H     H_    0.385019 0.330126 0.246192 0.199094
H13   H     H_    0.291405 0.190154 0.124181 0.147403
H14   H     H_    0.291386 0.190116 0.876262 0.147484
H15   H     H_    0.384994 0.330061 0.754005 0.199023
H16   H     H_    0.595247 0.641438 0.874882 0.148078
H17   H     H_    0.072804 0.496550 0.279622 0.169055
H18   H     H_    0.069670 0.342595 0.354401 0.165153
H19   H     H_    0.924050 0.343326 0.354370 0.164440
H20   H     H_    0.927217 0.497268 0.279510 0.168367
H21   H     H_    0.076226 0.676604 0.609405 0.166469
H22   H     H_    0.076658 0.693038 0.429633 0.165521
H23   H     H_    0.930696 0.677402 0.609257 0.164921
N1    N     N_R   0.499210 0.498800 0.142780 -0.121189
N2    N     N_R   0.499180 0.498720 0.857170 -0.121177
O1    O     O_R   0.500000 0.316780 0.614690 -0.632779
O2    O     O_R   0.499990 0.316750 0.385360 -0.632744
O3    O     O_R   0.377150 0.500020 0.614720 -0.631943
O4    O     O_R   0.377140 0.499990 0.385380 -0.632028
O5    O     O_R   0.500010 0.683250 0.614640 -0.611025
O6    O     O_R   0.500000 0.683220 0.385310 -0.611012
O7    O     O_R   0.622860 0.500010 0.614620 -0.611926
O8    O     O_R   0.622850 0.499980 0.385280 -0.611810
Zn1   Zn    Zn3+2 0.500010 0.500020 0.653130 0.939002
Zn2   Zn    Zn3+2 0.499990 0.499980 0.346870 0.939043
C35   C     C_3   0.339116 0.123184 0.499954 -0.942181
H24   H     H_    0.285075 0.053660 0.499842 0.237764
H25   H     H_    0.333259 0.182655 0.590909 0.227849
H26   H     H_    0.333333 0.182867 0.409127 0.227827

loop_
_geom_bond_atom_site_label_1
_geom_bond_atom_site_label_2
_ccdc_geom_bond_type
C4    H23   S    
C2    H1    S    
C19   C23   S    
N1    Zn2   S    
C35   H24   S    
C30   H2    S    
N2    Zn1   S    
C12   O3    A    
C9    C10   A    
C5    H22   S    
O7    Zn1   S    
C31   C32   S    
C6    C33   T    
O3    Zn1   S    
C31   H18   S    
C8    C12   S    
C3    C6    S    
C5    C34   S    
C23   O6    A    
C35   H26   S    
C17   C18   A    
C9    C15   A    
C31   C34   S    
C7    C8    T    
C1    C16   S    
C13   C14   A    
C20   C21   A    
C30   H11   S    
C18   H9    S    
C26   N1    A    
C2    H3    S    
C16   C17   A    
C20   C26   A    
O6    Zn2   S    
C15   C16   A    
O5    Zn1   S    
C21   C22   A    
C23   O5    A    
C4    H4    S    
C22   H14   S    
C11   H7    S    
C2    C3    S    
C17   C35   S    
C3    C32   S    
C7    C34   S    
C22   C24   A    
C28   N2    A    
C10   C11   A    
C30   C34   S    
O2    Zn2   S    
C3    C4    S    
C29   C33   S    
C32   H19   S    
C11   C13   A    
C2    C30   S    
C24   C25   A    
O1    Zn1   S    
C29   O7    A    
C10   H6    S    
C18   C19   A    
C1    O1    A    
C32   H20   S    
C24   H15   S    
C12   O4    A    
C21   H13   S    
C14   C15   A    
C13   H8    S    
C35   H25   S    
C25   N2    A    
O8    Zn2   S    
C25   C26   A    
C29   O8    A    
C28   H16   S    
C27   H10   S    
C5    H21   S    
C9    H5    S    
C20   H12   S    
C14   C19   A    
O4    Zn2   S    
C31   H17   S    
C4    C5    S    
C27   C28   A    
C27   N1    A    
C1    O2    A    
