data_mof_unit_66695.cif
_audit_creation_date              2013-03-05T16:10:11-0500
_audit_creation_method            fapswitch 2.2
_symmetry_space_group_name_H-M    P1
_symmetry_Int_Tables_number       1
_space_group_crystal_system       triclinic
_cell_length_a                    15.220872
_cell_length_b                    7.37092
_cell_length_c                    13.234876
_cell_angle_alpha                 89.836958
_cell_angle_beta                  101.085372
_cell_angle_gamma                 90.152733
_cell_volume                      1457.13110329

loop_
_atom_site_label
_atom_site_type_symbol
_atom_site_description
_atom_site_fract_x
_atom_site_fract_y
_atom_site_fract_z
_atom_type_partial_charge
O1    O     O_R   0.648180 0.355050 0.151550 -0.534307
O2    O     O_R   0.351820 0.644950 0.848450 -0.533426
O3    O     O_R   0.851820 0.855050 0.348450 -0.548913
O4    O     O_R   0.148180 0.144950 0.651550 -0.512640
O5    O     O_R   0.835240 0.681980 0.154280 -0.565728
O6    O     O_R   0.164760 0.318020 0.845720 -0.537419
O7    O     O_R   0.664760 0.181980 0.345720 -0.557159
O8    O     O_R   0.335240 0.818020 0.654280 -0.552602
C1    C     C_R   0.858982 0.516782 0.127300 0.951090
C2    C     C_R   0.139801 0.483353 0.871592 0.950376
C3    C     C_R   0.640057 0.015356 0.371695 0.959800
C4    C     C_R   0.358902 0.985018 0.627385 0.950877
O9    O     O_R   0.647870 0.684600 0.139630 -0.540738
O10   O     O_R   0.352130 0.315400 0.860370 -0.541606
O11   O     O_R   0.852130 0.184600 0.360370 -0.527912
O12   O     O_R   0.147870 0.815400 0.639630 -0.568173
O13   O     O_R   0.663110 0.857440 0.333700 -0.566957
O14   O     O_R   0.336890 0.142560 0.666300 -0.573333
O15   O     O_R   0.836890 0.357440 0.166300 -0.558199
O16   O     O_R   0.163110 0.642560 0.833700 -0.576008
C5    C     C_R   0.614219 0.516370 0.115009 0.980327
C6    C     C_R   0.386045 0.483744 0.884580 0.980394
C7    C     C_R   0.886193 0.016573 0.384312 0.992932
C8    C     C_R   0.114580 0.983167 0.614486 1.005110
O17   O     O_3   0.755220 0.522230 0.313690 -0.253787
O18   O     O_3   0.244780 0.477770 0.686310 -0.257759
O19   O     O_3   0.744780 0.022230 0.186310 -0.256754
O20   O     O_3   0.255220 0.977770 0.813690 -0.252456
V1    V     V_3+5 0.749030 0.796100 0.238190 1.343025
V2    V     V_3+5 0.250970 0.203900 0.761810 1.364880
V3    V     V_3+5 0.750970 0.296100 0.261810 1.360439
V4    V     V_3+5 0.249030 0.703900 0.738190 1.345580
C9    C     C_1   0.966992 0.005418 0.465353 -0.022230
C10   C     C_1   0.033928 0.993515 0.533235 -0.036940
C11   C     C_1   0.533572 0.506109 0.033787 -0.022434
C12   C     C_1   0.466672 0.494615 0.965796 -0.025005
C13   C     C_R   0.546814 0.025811 0.719114 0.202509
C14   C     C_R   0.450401 0.983902 0.279666 0.204636
C15   C     C_R   0.948450 0.449513 0.781865 0.213336
C16   C     C_R   0.048731 0.524701 0.219182 0.206212
C17   C     C_R   0.633462 0.076657 0.764519 0.143757
C18   C     C_R   0.362408 0.942290 0.233795 0.150716
C19   C     C_R   0.859253 0.461232 0.731665 0.149809
C20   C     C_R   0.137216 0.559209 0.265265 0.154317
C21   C     C_R   0.702502 0.043994 0.711921 0.177647
C22   C     C_R   0.294165 0.975951 0.287728 0.169814
C23   C     C_R   0.793828 0.513955 0.785266 0.166015
C24   C     C_R   0.205074 0.522017 0.211994 0.169765
C25   C     C_R   0.681441 0.998338 0.606448 0.071080
C26   C     C_R   0.316887 0.016781 0.393688 0.071458
C27   C     C_R   0.817751 0.548511 0.891863 0.073154
C28   C     C_R   0.182083 0.476664 0.106671 0.071714
C29   C     C_R   0.591363 0.008408 0.549783 0.028279
C30   C     C_R   0.406961 0.998816 0.449382 0.023123
C31   C     C_R   0.906940 0.516155 0.948833 0.020239
C32   C     C_R   0.091842 0.493710 0.049949 0.024284
C33   C     C_R   0.521712 0.009743 0.609453 -0.053022
C34   C     C_R   0.476414 0.995693 0.389453 -0.054826
C35   C     C_R   0.975549 0.483921 0.889985 -0.058162
C36   C     C_R   0.022462 0.509609 0.109498 -0.060720
C37   C     C_R   0.569004 0.005099 0.438583 -0.159689
C38   C     C_R   0.429531 0.997192 0.560380 -0.156311
C39   C     C_R   0.929727 0.513845 0.060193 -0.157890
C40   C     C_R   0.068687 0.484526 0.938861 -0.149637
I1    I     I_    0.658343 0.175913 0.919197 -0.202730
I2    I     I_    0.335778 0.847516 0.077955 -0.191874
I3    I     I_    0.824860 0.373099 0.574145 -0.171408
I4    I     I_    0.164775 0.647736 0.421749 -0.196983
N1    N     N_R   0.495930 0.939533 0.785837 0.240099
O21   O     O_R   0.502521 0.764696 0.796826 -0.378573
O22   O     O_R   0.462296 0.033151 0.852209 -0.330466
N2    N     N_R   0.502944 0.066013 0.213554 0.237742
O23   O     O_R   0.496370 0.240347 0.200061 -0.382049
O24   O     O_R   0.536608 0.968754 0.148664 -0.332106
N3    N     N_R   0.006162 0.359892 0.726042 0.233951
O25   O     O_R   0.008777 0.183980 0.730750 -0.395431
O26   O     O_R   0.035266 0.444585 0.652453 -0.341503
N4    N     N_R   0.994456 0.454542 0.286679 0.242125
O27   O     O_R   0.006042 0.285664 0.313874 -0.382191
O28   O     O_R   0.958275 0.563670 0.343845 -0.343102
I5    I     I_    0.158708 0.997592 0.201861 -0.306909
I6    I     I_    0.836093 0.023938 0.801486 -0.286201
I7    I     I_    0.340460 0.502519 0.299812 -0.300072
I8    I     I_    0.657098 0.531652 0.701425 -0.298817
I9    I     I_    0.781810 0.851851 0.553731 -0.287219
I10   I     I_    0.220825 0.172288 0.449285 -0.248057
I11   I     I_    0.720732 0.701591 0.946429 -0.238169
I12   I     I_    0.280633 0.322123 0.056742 -0.244010

loop_
_geom_bond_atom_site_label_1
_geom_bond_atom_site_label_2
_geom_bond_distance
_ccdc_geom_bond_type
O17   V3    1.800742 S    
O1    C5    1.348651 A    
C16   C36   1.434236 A    
C31   C35   1.438292 A    
O19   V1    1.797441 S    
O13   V1    2.038298 S    
O3    C7    1.349397 A    
C21   I6    2.152980 S    
O15   V3    2.035152 S    
C33   C38   1.431157 A    
O7    C3    1.346406 A    
C35   C40   1.440673 A    
C26   C30   1.432583 A    
C36   C39   1.437032 A    
O9    V1    1.993690 S    
C14   C18   1.393787 A    
C13   N1    1.428729 S    
C30   C34   1.438694 A    
O4    C8    1.351962 A    
N4    O28   1.299521 A    
O1    V3    1.971848 S    
O2    V4    1.971845 S    
C18   C22   1.391940 A    
O3    V1    1.971838 S    
C14   C34   1.433479 A    
C29   C37   1.445663 A    
C1    O15   1.349123 A    
C23   C27   1.411321 A    
C11   C12   1.225321 T    
C2    O16   1.348079 A    
C7    C9    1.470524 S    
C31   C39   1.447790 A    
O2    C6    1.347668 A    
C32   C40   1.446227 A    
O14   V2    2.038297 S    
C15   N3    1.417492 S    
C16   C20   1.390602 A    
C34   C37   1.435643 A    
O11   C7    1.356886 A    
N1    O22   1.299283 A    
O12   C8    1.353814 A    
O10   V2    1.993689 S    
O5    V1    2.057738 S    
C14   N2    1.426544 S    
O7    V3    2.052288 S    
O8    V4    2.052286 S    
C25   I9    2.099878 S    
C28   I12   2.092560 S    
N2    O24   1.299503 A    
C27   I11   2.097371 S    
C29   C33   1.438651 A    
N4    O27   1.297827 A    
C15   C19   1.394821 A    
C30   C38   1.442952 A    
C8    C10   1.470241 S    
C32   C36   1.439199 A    
N3    O25   1.298301 A    
O5    C1    1.339865 A    
C22   I5    2.160469 S    
C4    C38   1.521795 S    
C21   C25   1.412315 A    
O8    C4    1.347605 A    
C15   C35   1.434096 A    
C9    C10   1.225107 T    
O9    C5    1.356795 A    
C23   I8    2.166120 S    
N3    O26   1.302114 A    
O6    V2    2.057739 S    
C16   N4    1.423643 S    
C20   I4    2.136157 S    
O16   V4    2.035154 S    
C3    O13   1.343207 A    
C1    C39   1.522100 S    
C2    C40   1.528074 S    
N2    O23   1.298322 A    
C3    C37   1.525240 S    
O6    C2    1.342215 A    
C17   I1    2.139716 S    
O11   V3    1.994013 S    
C5    C11   1.469899 S    
O12   V4    1.994014 S    
C6    C12   1.469887 S    
C22   C26   1.411428 A    
C24   I7    2.167397 S    
O10   C6    1.357978 A    
O20   V2    1.797442 S    
C25   C29   1.432686 A    
C27   C31   1.440619 A    
C13   C17   1.390986 A    
N1    O21   1.298460 A    
O4    V2    1.971840 S    
C26   I10   2.102518 S    
C28   C32   1.438695 A    
C24   C28   1.411287 A    
C19   I3    2.151389 S    
C4    O14   1.340815 A    
C18   I2    2.142774 S    
C17   C21   1.389392 A    
C19   C23   1.386090 A    
O18   V4    1.800743 S    
C13   C33   1.433158 A    
C20   C24   1.386236 A    
