data_mof_unit_9727.cif
_audit_creation_date              2013-03-05T16:12:49-0500
_audit_creation_method            fapswitch 2.2
_symmetry_space_group_name_H-M    P1
_symmetry_Int_Tables_number       1
_space_group_crystal_system       triclinic
_cell_length_a                    10.869006
_cell_length_b                    9.935327
_cell_length_c                    27.253898
_cell_angle_alpha                 91.48746
_cell_angle_beta                  91.317286
_cell_angle_gamma                 91.169148
_cell_volume                      2940.65147259

loop_
_atom_site_label
_atom_site_type_symbol
_atom_site_description
_atom_site_fract_x
_atom_site_fract_y
_atom_site_fract_z
_atom_type_partial_charge
O1    O     O_R   0.316770 0.614620 0.500000 -0.564584
O2    O     O_R   0.683230 0.385380 0.500000 -0.562449
O3    O     O_R   0.683230 0.614620 0.500000 -0.586265
O4    O     O_R   0.316770 0.385380 0.500000 -0.582384
C1    C     C_R   0.260494 0.498466 0.502098 0.964034
C2    C     C_R   0.740195 0.500614 0.501016 0.961878
O5    O     O_R   0.500030 0.614650 0.428760 -0.575517
O6    O     O_R   0.499970 0.385350 0.571240 -0.623335
O7    O     O_R   0.499970 0.614650 0.571240 -0.559864
O8    O     O_R   0.500030 0.385350 0.428760 -0.593130
C3    C     C_R   0.501164 0.498430 0.405970 0.998184
C4    C     C_R   0.497199 0.501789 0.593862 1.011964
Zn1   Zn    Zn3+2 0.500000 0.653120 0.500000 1.132395
Zn2   Zn    Zn3+2 0.500000 0.346880 0.500000 1.093448
C5    C     C_R   0.448929 0.409573 0.172721 0.620661
C6    C     C_R   0.444754 0.702386 0.820153 0.571585
O9    O     O_2   0.398954 0.306854 0.197435 -0.473347
O10   O     O_2   0.492590 0.804504 0.794567 -0.459556
N1    N     N_R   0.510702 0.510512 0.198406 -0.322746
N2    N     N_R   0.400255 0.589031 0.795451 -0.337493
C7    C     C_R   0.565513 0.615825 0.175748 0.617510
C8    C     C_R   0.338776 0.489647 0.819411 0.652954
C9    C     C_R   0.613773 0.461930 0.276876 0.427611
C10   C     C_R   0.327844 0.534618 0.710503 0.485855
C11   C     C_R   0.606806 0.447615 0.328101 0.255335
C12   C     C_R   0.354821 0.493516 0.662674 0.312943
C13   C     C_R   0.401848 0.544742 0.326087 0.441294
C14   C     C_R   0.571365 0.553049 0.678327 0.429838
C15   C     C_R   0.407046 0.551390 0.275215 -0.251366
C16   C     C_R   0.545675 0.579186 0.727677 -0.231801
C17   C     C_R   0.511363 0.509029 0.250756 0.095555
C18   C     C_R   0.424435 0.569516 0.744093 0.020077
C19   C     C_R   0.485886 0.527154 0.097550 -0.121138
C20   C     C_R   0.387647 0.602971 0.896625 -0.126006
C21   C     C_R   0.434153 0.415503 0.121323 -0.177383
C22   C     C_R   0.444262 0.709650 0.871981 -0.167726
C23   C     C_R   0.371935 0.312982 0.093015 0.258569
C24   C     C_R   0.497602 0.818527 0.899997 0.260025
C25   C     C_R   0.562542 0.620985 0.124351 -0.123906
C26   C     C_R   0.319485 0.502802 0.869792 -0.146244
C27   C     C_R   0.503046 0.495648 0.352633 -0.252512
C28   C     C_R   0.475865 0.508857 0.646104 -0.276984
H1    H     H_    0.329789 0.590021 0.254500 0.190265
H2    H     H_    0.619424 0.610567 0.753070 0.200688
C29   C     C_R   0.347261 0.482464 0.971520 0.061123
C30   C     C_R   0.512182 0.659392 0.023819 0.063386
C31   C     C_R   0.477165 0.687765 0.974666 -0.063688
C32   C     C_R   0.382537 0.453033 0.020437 -0.067016
C33   C     C_R   0.403431 0.591937 0.947856 0.071163
C34   C     C_R   0.459622 0.546687 0.047193 0.069847
C35   C     C_R   0.252308 0.410239 0.945781 -0.174364
C36   C     C_R   0.607656 0.732395 0.048887 -0.171959
C37   C     C_R   0.240790 0.414910 0.894852 0.346449
C38   C     C_R   0.631052 0.717751 0.098843 0.344096
O11   O     O_2   0.304136 0.374289 0.795224 -0.444292
O12   O     O_2   0.616523 0.718234 0.203129 -0.492161
C39   C     C_R   0.351622 0.328483 0.042379 0.171627
C40   C     C_R   0.509266 0.810299 0.951507 0.165720
H3    H     H_    0.186758 0.348892 0.964902 0.207348
H4    H     H_    0.668312 0.799149 0.029659 0.206059
C41   C     C_R   0.060913 0.374200 0.497047 0.150042
C42   C     C_R   0.941456 0.618697 0.516061 0.164939
C43   C     C_R   0.934383 0.375012 0.498211 0.192474
C44   C     C_R   0.068521 0.614072 0.520750 0.213309
C45   C     C_R   0.873400 0.499189 0.503991 -0.380224
C46   C     C_R   0.128698 0.494671 0.507361 -0.363704
C47   C     C_R   0.538741 0.075133 0.540685 0.250194
C48   C     C_R   0.459924 0.924582 0.459534 0.231210
C49   C     C_R   0.460934 0.067893 0.459299 0.248209
C50   C     C_R   0.534698 0.932225 0.541144 0.251126
N3    N     N_R   0.500000 0.857200 0.500000 -0.216703
N4    N     N_R   0.500000 0.142800 0.500000 -0.209945
O13   O     O_3   0.301142 0.594651 0.350146 -0.537179
C51   C     C_3   0.204313 0.497750 0.346943 0.083848
H5    H     H_    0.230320 0.405693 0.366772 0.193748
H6    H     H_    0.179362 0.469955 0.308046 0.145645
C52   C     C_3   0.091138 0.555952 0.370736 -0.695968
H7    H     H_    0.059222 0.644082 0.350068 0.268949
H8    H     H_    0.015940 0.478761 0.370674 0.198800
H9    H     H_    0.113369 0.588518 0.409210 0.268515
O14   O     O_3   0.685517 0.585048 0.659905 -0.555548
C53   C     C_3   0.773240 0.494312 0.677392 0.095428
H10   H     H_    0.742610 0.387728 0.670107 0.192965
H11   H     H_    0.791149 0.511139 0.717433 0.147530
C54   C     C_3   0.892988 0.518473 0.650964 -0.683064
H12   H     H_    0.919103 0.627089 0.653075 0.286564
H13   H     H_    0.967406 0.461010 0.668553 0.230063
H14   H     H_    0.882237 0.485577 0.611843 0.241260
N5    N     N_R   0.584431 0.147613 0.583546 0.250407
O15   O     O_R   0.528939 0.136471 0.625082 -0.370238
O16   O     O_R   0.689187 0.212764 0.582609 -0.330072
N6    N     N_R   0.402306 0.851446 0.419255 0.274008
O17   O     O_R   0.457102 0.841374 0.377414 -0.300988
O18   O     O_R   0.288068 0.811788 0.422261 -0.282459
N7    N     N_R   0.415042 0.133344 0.416686 0.247777
O19   O     O_R   0.318119 0.206701 0.419475 -0.323221
O20   O     O_R   0.461156 0.108735 0.373876 -0.380353
N8    N     N_R   0.558480 0.867852 0.586436 0.262704
O21   O     O_R   0.671090 0.858811 0.602793 -0.244540
O22   O     O_R   0.468965 0.854040 0.616935 -0.311296
N9    N     N_R   0.338826 0.187323 0.114270 0.281482
O23   O     O_R   0.422139 0.097527 0.121838 -0.248358
O24   O     O_R   0.226062 0.164087 0.127211 -0.275258
N10   N     N_R   0.533320 0.940805 0.877029 0.281142
O25   O     O_R   0.450699 0.028229 0.865526 -0.257072
O26   O     O_R   0.647926 0.963213 0.866477 -0.270222
O27   O     O_3   0.260027 0.447353 0.631529 -0.606234
C55   C     C_3   0.258430 0.304592 0.629857 0.131703
H15   H     H_    0.309571 0.257836 0.660929 0.179088
H16   H     H_    0.299850 0.269337 0.595155 0.213259
C56   C     C_3   0.126193 0.251824 0.630556 -0.624946
H17   H     H_    0.068930 0.302661 0.602633 0.256766
H18   H     H_    0.123376 0.141693 0.622385 0.261244
H19   H     H_    0.088038 0.269962 0.667497 0.250349
O28   O     O_3   0.704719 0.396599 0.354658 -0.641629
C57   C     C_3   0.712240 0.255919 0.345572 0.219636
H20   H     H_    0.657194 0.216177 0.313031 0.181311
H21   H     H_    0.677972 0.203657 0.378113 0.226077
C58   C     C_3   0.845896 0.218123 0.338481 -0.679171
H22   H     H_    0.905186 0.261641 0.368776 0.279935
H23   H     H_    0.853740 0.106839 0.337947 0.245694
H24   H     H_    0.878993 0.256126 0.303164 0.242677
O29   O     O_3   0.206924 0.533610 0.725141 -0.561530
C59   C     C_3   0.163447 0.666778 0.725291 0.092168
H25   H     H_    0.129212 0.690422 0.687807 0.201868
H26   H     H_    0.234839 0.744183 0.737023 0.168194
C60   C     C_3   0.058298 0.678161 0.760913 -0.684358
H27   H     H_    0.093317 0.663784 0.798990 0.265158
H28   H     H_    0.017248 0.779316 0.758717 0.235845
H29   H     H_    0.986202 0.600344 0.751879 0.259832
O30   O     O_3   0.715744 0.420540 0.251412 -0.593233
C61   C     C_3   0.814146 0.513935 0.260440 0.094151
H30   H     H_    0.852107 0.506027 0.298410 0.176122
H31   H     H_    0.785346 0.619448 0.255042 0.208617
C62   C     C_3   0.916756 0.483854 0.225013 -0.679045
H32   H     H_    0.881948 0.490987 0.186562 0.293025
H33   H     H_    0.994038 0.557553 0.231408 0.215193
H34   H     H_    0.951317 0.380873 0.230635 0.251244
N11   N     N_R   0.145503 0.335400 0.869815 0.251969
O31   O     O_R   0.113127 0.218404 0.886274 -0.281156
O32   O     O_R   0.078725 0.387765 0.835253 -0.334438
N12   N     N_R   0.729980 0.795926 0.121914 0.255003
O33   O     O_R   0.746371 0.921613 0.110923 -0.272939
O34   O     O_R   0.815969 0.736217 0.146623 -0.352467
N13   N     N_R   0.318114 0.210889 0.012679 0.228428
O35   O     O_R   0.381018 0.180447 0.974013 -0.276812
O36   O     O_R   0.224017 0.135150 0.023494 -0.274483
N14   N     N_R   0.536658 0.931325 0.980241 0.229821
O37   O     O_R   0.627145 0.011723 0.969038 -0.274276
O38   O     O_R   0.473023 0.959241 0.018947 -0.274572
N15   N     N_R   0.117349 0.249335 0.483619 0.283883
O39   O     O_R   0.169833 0.178878 0.517476 -0.329821
O40   O     O_R   0.083973 0.188981 0.442330 -0.287604
N16   N     N_R   0.883079 0.743889 0.526792 0.268369
O41   O     O_R   0.847421 0.818305 0.490748 -0.286743
O42   O     O_R   0.896193 0.798399 0.570551 -0.280255
N17   N     N_R   0.870680 0.246512 0.494962 0.281179
O43   O     O_R   0.816334 0.207146 0.453965 -0.369235
O44   O     O_R   0.893233 0.157416 0.527982 -0.250128
N18   N     N_R   0.135539 0.731070 0.539823 0.260789
O45   O     O_R   0.199134 0.724800 0.580712 -0.346624
O46   O     O_R   0.129799 0.844849 0.517360 -0.243096

loop_
_geom_bond_atom_site_label_1
_geom_bond_atom_site_label_2
_geom_bond_distance
_ccdc_geom_bond_type
C62   H34   1.110220 S    
C16   C18   1.403585 A    
C43   C45   1.419277 A    
N17   O43   1.299157 A    
C39   N13   1.439745 S    
C13   C15   1.392140 A    
O29   C59   1.413910 S    
O13   C51   1.411446 S    
N7    O19   1.295707 A    
O3    C2    1.302514 A    
N1    C17   1.427046 S    
N10   O26   1.300921 A    
O14   C53   1.409043 S    
C57   C58   1.523195 S    
C62   H32   1.110427 S    
C31   C33   1.410121 A    
C52   H7    1.110555 S    
C55   H15   1.118566 S    
O5    C3    1.297269 A    
C19   C25   1.414823 A    
C51   H6    1.114505 S    
O1    C1    1.298234 A    
N1    C7    1.362368 A    
C10   C12   1.395251 A    
C11   O28   1.385269 S    
C40   N14   1.439970 S    
C54   H14   1.109897 S    
C25   C38   1.411146 A    
C29   C35   1.408015 A    
O28   C57   1.417460 S    
C30   C36   1.407353 A    
C47   N5    1.429964 S    
C57   H20   1.117237 S    
C62   H33   1.110690 S    
C47   N4    1.373877 A    
C14   C28   1.400333 A    
C41   C43   1.376534 A    
O7    Zn1   1.988545 S    
C42   C44   1.385842 A    
C36   H4    1.079446 S    
C48   N6    1.426079 S    
C24   C40   1.411310 A    
C41   C46   1.411195 A    
C2    C45   1.448593 S    
C56   H17   1.110233 S    
C57   H21   1.107260 S    
C61   H30   1.110502 S    
C51   C52   1.521268 S    
C4    C28   1.447962 S    
O27   C55   1.417660 S    
C50   N3    1.371477 A    
N5    O16   1.299291 A    
N16   O42   1.300544 A    
O3    Zn1   2.035580 S    
O6    C4    1.297917 A    
C52   H8    1.109275 S    
N15   O39   1.300946 A    
N17   O44   1.301386 A    
C15   H1    1.083391 S    
N15   O40   1.301828 A    
C16   H2    1.082472 S    
O2    C2    1.289778 A    
Zn2   N4    2.027602 S    
C60   H28   1.110355 S    
C5    C21   1.409188 A    
N10   O25   1.300831 A    
N13   O36   1.301192 A    
C36   C38   1.391166 A    
N13   O35   1.301706 A    
C54   H13   1.106889 S    
C51   H5    1.112507 S    
N9    O23   1.300924 A    
C32   C39   1.425646 A    
N14   O37   1.301138 A    
O8    Zn2   1.988550 S    
C11   C27   1.409502 A    
C48   C49   1.423843 A    
Zn1   N3    2.027602 S    
C19   C34   1.414500 A    
C54   H12   1.109927 S    
C10   O29   1.382166 S    
C42   N16   1.434256 S    
C35   C37   1.392828 A    
C9    C17   1.402446 A    
C49   N4    1.373756 A    
C5    N1    1.364193 A    
C10   C18   1.408883 A    
C13   C27   1.405276 A    
C7    C25   1.402704 A    
C29   C33   1.413895 A    
C6    N2    1.370749 A    
C8    C26   1.396927 A    
C44   N18   1.438282 S    
N6    O18   1.300015 A    
C9    O30   1.385011 S    
C56   H18   1.110604 S    
C58   H22   1.108871 S    
C41   N15   1.437716 S    
C44   C46   1.410111 A    
N16   O41   1.301431 A    
C58   H23   1.110409 S    
C59   C60   1.520547 S    
C6    O10   1.348264 S    
C38   N12   1.436754 S    
N2    C8    1.369125 A    
C53   H10   1.115034 S    
C53   H11   1.111827 S    
C20   C26   1.407609 A    
O1    Zn1   2.020250 S    
C43   N17   1.439587 S    
C60   H27   1.110853 S    
C12   C28   1.407386 A    
C59   H26   1.116806 S    
N2    C18   1.439015 S    
C29   C32   1.418160 A    
C5    O9    1.349112 S    
C30   C31   1.421074 A    
C20   C33   1.410171 A    
O6    Zn2   1.969078 S    
C42   C45   1.413455 A    
C21   C23   1.413209 A    
C14   O14   1.383248 S    
C37   N11   1.438195 S    
C58   H24   1.107999 S    
N14   O38   1.301635 A    
O4    C1    1.290766 A    
C49   N7    1.430487 S    
C12   O27   1.383013 S    
C7    O12   1.348352 S    
C24   N10   1.431729 S    
N11   O31   1.301476 A    
N7    O20   1.299741 A    
C48   N3    1.371979 A    
C8    O11   1.349677 S    
C53   C54   1.519790 S    
C30   C34   1.419036 A    
N8    O22   1.301539 A    
C55   C56   1.520535 S    
C47   C50   1.420007 A    
N18   O45   1.301342 A    
C22   C24   1.414354 A    
C60   H29   1.108567 S    
C14   C16   1.398728 A    
C15   C17   1.395253 A    
C1    C46   1.442757 S    
C31   C40   1.426492 A    
C23   N9    1.432663 S    
N11   O32   1.301595 A    
C52   H9    1.109099 S    
C61   C62   1.521016 S    
C61   H31   1.112586 S    
C32   C34   1.415758 A    
N6    O17   1.301067 A    
C19   C21   1.412478 A    
C20   C22   1.408000 A    
C55   H16   1.108466 S    
C3    C27   1.453817 S    
C56   H19   1.109476 S    
N12   O34   1.301289 A    
C9    C11   1.410566 A    
O4    Zn2   2.035580 S    
O2    Zn2   2.020250 S    
O7    C4    1.293720 A    
C23   C39   1.405457 A    
O8    C3    1.297753 A    
C26   C37   1.409949 A    
C50   N8    1.425703 S    
O5    Zn1   1.969084 S    
C35   H3    1.080047 S    
N9    O24   1.300928 A    
N8    O21   1.298596 A    
N12   O33   1.301390 A    
N5    O15   1.301036 A    
C13   O13   1.382814 S    
C6    C22   1.412632 A    
O30   C61   1.414571 S    
N18   O46   1.301381 A    
C59   H25   1.111668 S    
