data_mof_unit_52296.cif
_audit_creation_date              2012-10-26T18:54:56-0400
_audit_creation_method            fapswitch 2.2
_symmetry_space_group_name_H-M    P1
_symmetry_Int_Tables_number       1
_space_group_crystal_system       triclinic
_cell_length_a                    10.83371
_cell_length_b                    9.513184
_cell_length_c                    10.821239
_cell_angle_alpha                 90.04284
_cell_angle_beta                  90.164963
_cell_angle_gamma                 90.018256
_cell_volume                      1115.26519268

loop_
_atom_site_label
_atom_site_type_symbol
_atom_type_description
_atom_site_fract_x
_atom_site_fract_y
_atom_site_fract_z
_atom_type_partial_charge
C1    C     C_R   0.262047 0.499949 0.499916 0.539037
C2    C     C_R   0.494083 0.622172 0.936890 -0.037319
C3    C     C_R   0.521053 0.500129 0.129241 0.013549
C4    C     C_R   0.520254 0.500405 0.870705 0.014540
C5    C     C_R   0.566443 0.381029 0.065195 0.206147
C6    C     C_R   0.570870 0.383834 0.933895 0.206955
C7    C     C_3   0.385801 0.718860 0.930235 -0.258926
C8    C     C_3   0.387365 0.719583 0.070635 -0.265247
C9    C     C_R   0.063807 0.372221 0.500149 -0.137720
C10   C     C_R   0.936110 0.372235 0.500299 -0.128638
C11   C     C_R   0.871791 0.499985 0.500154 0.026335
C12   C     C_R   0.737958 0.499972 0.500114 0.556082
C13   C     C_R   0.128210 0.499957 0.499927 0.020206
C14   C     C_R   0.936190 0.627724 0.499952 -0.138450
C15   C     C_R   0.063891 0.627711 0.499806 -0.141257
C16   C     C_R   0.422658 0.074345 0.423705 0.025019
C17   C     C_R   0.577503 0.074514 0.576107 0.024300
C18   C     C_R   0.422675 0.925464 0.423683 0.013160
C19   C     C_R   0.577405 0.925648 0.576217 0.010998
C20   C     C_R   0.504486 0.499815 0.262236 0.580107
C21   C     C_R   0.504554 0.499986 0.737697 0.582032
C22   C     C_R   0.495660 0.622561 0.063492 -0.029972
Cu1   Cu    Cu3+1 0.500000 0.640660 0.500000 0.935444
Cu2   Cu    Cu3+1 0.500000 0.359340 0.500000 0.998119
H1    H     H_    0.410333 0.822232 0.889203 0.154834
H2    H     H_    0.639756 0.130689 0.636868 0.148956
H3    H     H_    0.360747 0.869229 0.362572 0.103287
H4    H     H_    0.639389 0.869569 0.637268 0.112934
H5    H     H_    0.586128 0.178633 0.080132 0.326218
H6    H     H_    0.687816 0.230408 0.916708 0.325372
H7    H     H_    0.304789 0.669125 0.112393 0.132044
H8    H     H_    0.302477 0.667668 0.890175 0.137533
H9    H     H_    0.412695 0.823439 0.110507 0.144684
H10   H     H_    0.111803 0.272343 0.500221 0.127951
H11   H     H_    0.888048 0.272361 0.500513 0.133498
H12   H     H_    0.888189 0.727599 0.499880 0.129955
H13   H     H_    0.111955 0.727582 0.499598 0.127810
H14   H     H_    0.360729 0.130416 0.362595 0.111710
N1    N     N_R   0.500000 0.852070 0.500000 -0.226330
N2    N     N_R   0.500000 0.147940 0.500000 -0.224877
O1    O     O_R   0.319640 0.618740 0.499990 -0.515868
O2    O     O_3   0.622485 0.275588 0.866383 -0.714894
O3    O     O_R   0.680360 0.618740 0.500010 -0.514734
O4    O     O_R   0.319620 0.381170 0.499990 -0.520830
O5    O     O_R   0.680380 0.381170 0.500010 -0.500649
O6    O     O_R   0.499990 0.618810 0.319660 -0.513221
O7    O     O_R   0.500010 0.618810 0.680340 -0.516169
O8    O     O_R   0.499960 0.381240 0.319650 -0.446432
O9    O     O_R   0.500040 0.381240 0.680350 -0.447751
O10   O     O_3   0.600825 0.263222 0.131505 -0.689533

loop_
_geom_bond_atom_site_label_1
_geom_bond_atom_site_label_2
_ccdc_geom_bond_type
C2    C22   A    
C2    C4    A    
C11   C12   S    
C10   H11   S    
C19   H4    S    
C9    C10   A    
C1    O4    A    
C8    C22   S    
C2    C7    S    
C7    H1    S    
C18   N1    A    
C21   O9    A    
Cu1   O3    S    
C7    C8    S    
Cu1   O6    S    
C4    C21   S    
C20   O8    A    
C19   N1    A    
C16   N2    A    
Cu1   N1    S    
C17   H2    S    
C4    C6    A    
Cu2   N2    S    
C9    H10   S    
C12   O3    A    
H5    O10   S    
C13   C15   A    
C14   H12   S    
C5    C6    A    
Cu2   O4    S    
C11   C14   A    
C20   O6    A    
C5    O10   S    
Cu1   O7    S    
C10   C11   A    
Cu2   O5    S    
Cu1   Cu2   S    
Cu2   O8    S    
C3    C5    A    
C3    C20   S    
C1    C13   S    
C16   C18   A    
C6    O2    S    
C1    O1    A    
Cu2   O9    S    
C12   O5    A    
C9    C13   A    
C14   C15   A    
H6    O2    S    
C3    C22   A    
C7    H8    S    
C17   C19   A    
C8    H7    S    
C15   H13   S    
C18   H3    S    
C16   H14   S    
C8    H9    S    
C21   O7    A    
C17   N2    A    
Cu1   O1    S    
