data_mof_unit_5338.cif
_audit_creation_date              2013-03-05T16:12:28-0500
_audit_creation_method            fapswitch 2.2
_symmetry_space_group_name_H-M    P1
_symmetry_Int_Tables_number       1
_space_group_crystal_system       triclinic
_cell_length_a                    10.692466
_cell_length_b                    9.896634
_cell_length_c                    23.288481
_cell_angle_alpha                 89.94001
_cell_angle_beta                  90.885725
_cell_angle_gamma                 89.877017
_cell_volume                      2464.07204139

loop_
_atom_site_label
_atom_site_type_symbol
_atom_site_description
_atom_site_fract_x
_atom_site_fract_y
_atom_site_fract_z
_atom_type_partial_charge
O1    O     O_R   0.316770 0.614620 0.500000 -0.586389
O2    O     O_R   0.683230 0.385380 0.500000 -0.575488
O3    O     O_R   0.683230 0.614620 0.500000 -0.586082
O4    O     O_R   0.316770 0.385380 0.500000 -0.575468
C1    C     C_R   0.260439 0.500121 0.506184 0.947927
C2    C     C_R   0.739541 0.499909 0.493785 0.945111
O5    O     O_R   0.499970 0.614690 0.416160 -0.608000
O6    O     O_R   0.500030 0.385310 0.583840 -0.549899
O7    O     O_R   0.500030 0.614690 0.583840 -0.607599
O8    O     O_R   0.499970 0.385310 0.416160 -0.548251
C3    C     C_R   0.500490 0.499295 0.389335 0.925104
C4    C     C_R   0.499616 0.499262 0.610618 0.927017
Zn1   Zn    Zn3+2 0.500000 0.653120 0.500000 1.062873
Zn2   Zn    Zn3+2 0.500000 0.346880 0.500000 1.101097
C5    C     C_R   0.591984 0.390589 0.877641 0.659104
C6    C     C_R   0.397084 0.402496 0.122098 0.659701
N1    N     N_R   0.481905 0.431127 0.852290 -0.335260
N2    N     N_R   0.510529 0.430210 0.147375 -0.334018
C7    C     C_R   0.374153 0.440457 0.882828 0.604228
C8    C     C_R   0.618335 0.426282 0.116614 0.601358
C9    C     C_R   0.374206 0.406848 0.941432 -0.154906
C10   C     C_R   0.614540 0.391124 0.058214 -0.154853
C11   C     C_R   0.490883 0.390364 0.969708 -0.125501
C12   C     C_R   0.496970 0.390035 0.029954 -0.125282
C13   C     C_R   0.601738 0.379979 0.937720 -0.113124
C14   C     C_R   0.385950 0.394610 0.062001 -0.111748
C15   C     C_R   0.262315 0.397553 0.973040 0.358979
C16   C     C_R   0.724447 0.365341 0.026775 0.359892
C17   C     C_R   0.268062 0.393835 0.033565 0.476669
C18   C     C_R   0.718373 0.361465 0.966247 0.482695
O9    O     O_2   0.691542 0.363876 0.844557 -0.424883
O10   O     O_2   0.295871 0.385531 0.155235 -0.425410
O11   O     O_2   0.269160 0.488157 0.856984 -0.472399
O12   O     O_2   0.727595 0.462494 0.141923 -0.475006
C19   C     C_R   0.593296 0.383593 0.243524 -0.210591
C20   C     C_R   0.398972 0.389583 0.756003 -0.210992
H1    H     H_    0.652516 0.306545 0.225102 0.189990
H2    H     H_    0.335174 0.317093 0.774385 0.188070
C21   C     C_R   0.593711 0.402735 0.302790 0.445142
C22   C     C_R   0.401194 0.407877 0.696711 0.443298
C23   C     C_R   0.507221 0.493197 0.326811 -0.250178
C24   C     C_R   0.491918 0.493451 0.673028 -0.245172
C25   C     C_R   0.424615 0.568512 0.290987 0.307959
C26   C     C_R   0.577042 0.564458 0.709049 0.309849
C27   C     C_R   0.437501 0.561583 0.231141 0.327366
C28   C     C_R   0.564044 0.556661 0.768878 0.328556
C29   C     C_R   0.516233 0.461626 0.207599 0.037985
C30   C     C_R   0.479462 0.462398 0.792081 0.038632
C31   C     C_R   0.061435 0.376462 0.509848 0.452635
C32   C     C_R   0.938435 0.623794 0.490142 0.449645
C33   C     C_R   0.939056 0.376086 0.490977 0.452010
C34   C     C_R   0.060984 0.624178 0.508765 0.448827
C35   C     C_R   0.873664 0.499827 0.487155 -0.520740
C36   C     C_R   0.126292 0.500374 0.512743 -0.519486
C37   C     C_R   0.560461 0.071940 0.542597 0.236840
C38   C     C_R   0.440054 0.928885 0.457299 0.222586
C39   C     C_R   0.439377 0.072490 0.457471 0.238955
C40   C     C_R   0.559950 0.928305 0.542722 0.224225
N3    N     N_R   0.500000 0.857200 0.500000 -0.224762
N4    N     N_R   0.500000 0.142800 0.500000 -0.225785
O13   O     O_3   0.146784 0.388647 0.946115 -0.707524
H3    H     H_    0.155628 0.329019 0.912236 0.379997
O14   O     O_3   0.837849 0.340320 0.053875 -0.713463
H4    H     H_    0.821794 0.285142 0.088524 0.381075
O15   O     O_3   0.160230 0.392373 0.065752 -0.630863
H5    H     H_    0.085307 0.400939 0.040577 0.410942
O16   O     O_3   0.824893 0.342171 0.934144 -0.637181
H6    H     H_    0.899351 0.331893 0.959484 0.403440
O17   O     O_3   0.675432 0.331619 0.338243 -0.733582
H7    H     H_    0.729606 0.273209 0.314538 0.360155
O18   O     O_3   0.317534 0.340997 0.660907 -0.739436
H8    H     H_    0.260389 0.285652 0.684391 0.359838
O19   O     O_3   0.327768 0.644443 0.312568 -0.602395
H9    H     H_    0.305010 0.608598 0.350676 0.358147
O20   O     O_3   0.675709 0.637792 0.687695 -0.604800
H10   H     H_    0.695876 0.604505 0.648875 0.357784
N5    N     N_R   0.368648 0.652811 0.194112 0.259467
O21   O     O_R   0.420824 0.702341 0.148589 -0.350558
O22   O     O_R   0.254924 0.689146 0.205995 -0.209474
N6    N     N_R   0.638586 0.641237 0.806231 0.260048
O23   O     O_R   0.589767 0.694007 0.851908 -0.346764
O24   O     O_R   0.754769 0.667380 0.794711 -0.211008
O25   O     O_3   0.115380 0.253747 0.523787 -0.597726
H11   H     H_    0.172248 0.268615 0.557214 0.364454
O26   O     O_3   0.884227 0.746578 0.476528 -0.597491
H12   H     H_    0.827553 0.732042 0.442997 0.347562
O27   O     O_3   0.885667 0.252880 0.477945 -0.596296
H13   H     H_    0.829140 0.266466 0.444260 0.363597
O28   O     O_3   0.114610 0.747477 0.521421 -0.595974
H14   H     H_    0.170780 0.734358 0.555267 0.348735
N7    N     N_R   0.626356 0.142609 0.587089 0.260211
O29   O     O_R   0.742624 0.175708 0.579879 -0.276824
O30   O     O_R   0.579556 0.148822 0.638250 -0.303223
N8    N     N_R   0.378086 0.859634 0.411564 0.258784
O31   O     O_R   0.263547 0.819462 0.418173 -0.277163
O32   O     O_R   0.422274 0.869876 0.360038 -0.279196
N9    N     N_R   0.372453 0.143713 0.413302 0.260545
O33   O     O_R   0.418829 0.151384 0.362093 -0.303194
O34   O     O_R   0.255578 0.174676 0.420656 -0.277431
N10   N     N_R   0.622586 0.858355 0.588257 0.258437
O35   O     O_R   0.577712 0.865875 0.639746 -0.281426
O36   O     O_R   0.737758 0.819685 0.581644 -0.277276

loop_
_geom_bond_atom_site_label_1
_geom_bond_atom_site_label_2
_geom_bond_distance
_ccdc_geom_bond_type
C25   O19   1.379542 S    
O27   H13   0.991741 S    
C22   O18   1.383539 S    
C15   C17   1.410374 A    
O19   H9    0.989485 S    
N1    C30   1.435441 S    
O3    C2    1.293211 A    
C19   C29   1.396399 A    
N2    C29   1.437280 S    
N9    O33   1.300838 A    
C21   C23   1.408259 A    
N5    O21   1.301480 A    
C38   N8    1.422973 S    
O1    C1    1.293385 A    
C7    C9    1.404402 A    
C12   C14   1.412597 A    
O17   H7    0.991766 S    
C5    C13   1.405235 A    
C31   C36   1.411264 A    
C38   C39   1.421224 A    
C27   C29   1.414116 A    
O7    Zn1   1.988808 S    
C37   N7    1.428367 S    
C15   O13   1.379711 S    
C32   O26   1.379690 S    
C34   C36   1.411210 A    
C31   C33   1.373919 A    
C32   C34   1.373893 A    
C11   C12   1.403539 A    
C3    C23   1.460272 S    
C18   O16   1.385042 S    
O3    Zn1   1.995083 S    
C8    O12   1.349678 S    
O13   H3    0.991321 S    
C22   C24   1.407675 A    
C9    C15   1.417458 A    
C10   C16   1.417008 A    
C37   N4    1.367696 A    
C23   C25   1.415925 A    
C34   O28   1.379559 S    
O2    C2    1.293626 A    
C24   C26   1.416453 A    
N9    O34   1.300001 A    
C26   C28   1.404422 A    
O5    C3    1.302340 A    
N5    O22   1.301257 A    
C6    C14   1.405059 A    
C28   C30   1.413461 A    
C32   C35   1.411374 A    
C4    C24   1.458121 S    
O16   H6    0.988661 S    
C1    C36   1.444818 S    
C20   C22   1.393020 A    
C40   N10   1.423658 S    
N6    O24   1.301426 A    
C7    O11   1.349677 S    
C33   O27   1.379552 S    
N7    O29   1.299655 A    
N6    O23   1.301509 A    
C39   N4    1.367067 A    
C40   N3    1.371012 A    
O26   H12   0.991806 S    
C33   C35   1.410913 A    
C26   O20   1.380507 S    
C19   C21   1.393290 A    
O20   H10   0.989296 S    
N7    O30   1.300853 A    
O25   H11   0.991662 S    
O6    C4    1.289288 A    
C39   N9    1.428468 S    
N10   O36   1.300251 A    
C21   O17   1.383622 S    
N8    O32   1.300347 A    
C25   C27   1.404376 A    
C17   O15   1.385000 S    
C8    C10   1.404203 A    
C9    C11   1.410728 A    
O8    Zn2   1.988810 S    
C10   C12   1.409993 A    
O1    Zn1   1.996690 S    
C2    C35   1.444763 S    
C13   C18   1.415412 A    
C5    N1    1.367787 A    
O6    Zn2   1.989589 S    
C19   H1    1.083265 S    
O4    C1    1.293479 A    
C5    O9    1.349554 S    
Zn1   N3    2.019705 S    
C6    O10   1.349533 S    
Zn2   N4    2.019705 S    
C38   N3    1.371096 A    
C31   O25   1.379640 S    
C16   C18   1.410644 A    
O18   H8    0.991767 S    
C28   N6    1.440670 S    
C20   H2    1.083399 S    
N10   O35   1.300552 A    
N1    C7    1.366289 A    
C20   C30   1.395533 A    
N2    C8    1.367067 A    
C11   C13   1.413301 A    
O4    Zn2   1.995084 S    
N8    O31   1.299782 A    
O2    Zn2   1.996689 S    
O7    C4    1.300958 A    
O8    C3    1.288988 A    
O14   H4    0.991246 S    
C16   O14   1.380089 S    
O5    Zn1   1.989592 S    
C14   C17   1.414829 A    
C6    N2    1.368516 A    
O15   H5    0.988828 S    
C37   C40   1.421529 A    
C27   N5    1.441072 S    
O28   H14   0.991805 S    
