data_mof_unit_8201.cif
_audit_creation_date              2012-12-10T18:09:37-0500
_audit_creation_method            fapswitch 2.2
_symmetry_space_group_name_H-M    P1
_symmetry_Int_Tables_number       1
_space_group_crystal_system       triclinic
_cell_length_a                    15.894306
_cell_length_b                    16.152933
_cell_length_c                    9.887094
_cell_angle_alpha                 89.278182
_cell_angle_beta                  89.587242
_cell_angle_gamma                 89.129768
_cell_volume                      2537.85252628

loop_
_atom_site_label
_atom_site_type_symbol
_atom_type_description
_atom_site_fract_x
_atom_site_fract_y
_atom_site_fract_z
_atom_type_partial_charge
C1    C     C_R   0.121664 0.383168 0.500608 0.899127
C2    C     C_R   0.118158 0.620707 0.499548 0.864184
C3    C     C_R   0.621662 0.883166 0.500608 0.899124
C4    C     C_R   0.618157 0.120708 0.499549 0.864181
C5    C     C_3   0.089449 0.509783 0.080738 0.223287
C6    C     C_3   0.086250 0.525942 0.915864 0.170685
C7    C     C_3   0.589450 0.009777 0.080738 0.223320
C8    C     C_3   0.586251 0.025937 0.915868 0.170674
C9    C     C_R   0.881439 0.378658 0.500968 0.833284
C10   C     C_R   0.883548 0.623084 0.499750 0.807708
C11   C     C_R   0.381439 0.878658 0.500968 0.833277
C12   C     C_R   0.383549 0.123085 0.499750 0.807708
C13   C     C_3   0.846390 0.219182 0.564642 0.172674
C14   C     C_3   0.781435 0.289179 0.349673 0.216617
C15   C     C_3   0.816860 0.746800 0.640311 0.242075
C16   C     C_3   0.826084 0.759532 0.374327 0.132321
C17   C     C_3   0.346387 0.719184 0.564651 0.172672
C18   C     C_3   0.281440 0.789173 0.349671 0.216614
C19   C     C_3   0.316863 0.246801 0.640314 0.242068
C20   C     C_3   0.326087 0.259534 0.374331 0.132325
C21   C     C_3   0.268220 0.655967 0.578458 0.641817
C22   C     C_3   0.216242 0.714866 0.349950 0.665281
C23   C     C_3   0.255178 0.325762 0.627047 0.585382
C24   C     C_3   0.246528 0.322442 0.367178 0.665830
C25   C     C_3   0.768222 0.155966 0.578451 0.641829
C26   C     C_3   0.716236 0.214873 0.349951 0.665272
C27   C     C_3   0.755175 0.825759 0.627043 0.585380
C28   C     C_3   0.746523 0.822439 0.367174 0.665838
C29   C     C_3   0.730409 0.335499 0.593020 0.261170
C30   C     C_3   0.721345 0.654035 0.492642 0.209741
C31   C     C_3   0.230405 0.835502 0.593008 0.261153
C32   C     C_3   0.221347 0.154038 0.492644 0.209744
C33   C     C_3   0.811892 0.307589 0.502216 -0.065143
C34   C     C_3   0.813834 0.694331 0.500534 -0.041283
C35   C     C_3   0.311892 0.807588 0.502215 -0.065135
C36   C     C_3   0.313836 0.194333 0.500536 -0.041276
C37   C     C_3   0.186333 0.690984 0.500572 -0.131591
C38   C     C_3   0.191131 0.314598 0.501884 -0.133906
C39   C     C_3   0.686333 0.190985 0.500573 -0.131589
C40   C     C_3   0.691128 0.814596 0.501881 -0.133908
C41   C     C_3   0.152330 0.774437 0.570306 0.126582
C42   C     C_3   0.148778 0.225019 0.505597 0.144544
C43   C     C_3   0.652332 0.274437 0.570315 0.126578
C44   C     C_3   0.648775 0.725016 0.505594 0.144557
C45   C     C_3   0.943470 0.566096 0.080529 0.713353
C46   C     C_3   0.933432 0.555796 0.918739 0.662062
C47   C     C_3   0.970482 0.418984 0.081550 0.604658
C48   C     C_3   0.985802 0.414570 0.917940 0.735318
C49   C     C_3   0.443474 0.066101 0.080528 0.713335
C50   C     C_3   0.433436 0.055802 0.918738 0.662063
C51   C     C_3   0.470477 0.918985 0.081552 0.604650
C52   C     C_3   0.485795 0.914571 0.917939 0.735279
Cu1   Cu    Cu3+1 0.000100 0.500000 0.642410 1.010986
Cu2   Cu    Cu3+1 0.000100 0.500000 0.357590 1.044256
Cu3   Cu    Cu3+1 0.500100 0.000000 0.642410 1.010973
Cu4   Cu    Cu3+1 0.500100 0.000000 0.357590 1.044258
N1    N     N_3   0.001260 0.500000 0.143650 -0.270450
N2    N     N_3   0.001260 0.500000 0.856350 -0.284426
N3    N     N_3   0.501260 0.000000 0.143650 -0.270465
N4    N     N_3   0.501260 0.000000 0.856350 -0.284439
O1    O     O_R   0.091250 0.408820 0.620260 -0.549876
O2    O     O_R   0.091250 0.408820 0.379740 -0.460415
O3    O     O_R   0.091250 0.591180 0.620260 -0.578474
O4    O     O_R   0.091250 0.591180 0.379740 -0.559968
O5    O     O_R   0.591250 0.908820 0.620260 -0.549903
O6    O     O_R   0.591250 0.908820 0.379740 -0.460404
O7    O     O_R   0.591250 0.091180 0.620260 -0.578481
O8    O     O_R   0.591250 0.091180 0.379740 -0.559971
O9    O     O_R   0.908940 0.408800 0.620260 -0.532676
O10   O     O_R   0.908940 0.408800 0.379740 -0.594912
O11   O     O_R   0.908940 0.591200 0.620260 -0.607096
O12   O     O_R   0.908940 0.591200 0.379740 -0.558735
O13   O     O_R   0.408940 0.908800 0.620260 -0.532676
O14   O     O_R   0.408940 0.908800 0.379740 -0.594905
O15   O     O_R   0.408940 0.091200 0.620260 -0.607101
O16   O     O_R   0.408940 0.091200 0.379740 -0.558737
N5    N     N_3   0.889635 0.232281 0.695499 -0.537092
H1    H     H_    0.851588 0.232469 0.780481 0.239619
H2    H     H_    0.930004 0.182790 0.719572 0.196605
N6    N     N_3   0.743832 0.364939 0.286656 -0.567783
H3    H     H_    0.679653 0.370871 0.303892 0.261388
H4    H     H_    0.743759 0.359703 0.181425 0.271325
N7    N     N_3   0.791006 0.694970 0.758490 -0.474796
H5    H     H_    0.726698 0.687583 0.769103 0.250379
H6    H     H_    0.805247 0.724279 0.849077 0.263785
N8    N     N_3   0.836508 0.717699 0.244171 -0.517999
H7    H     H_    0.785786 0.683725 0.216894 0.253117
H8    H     H_    0.843749 0.761766 0.166482 0.239693
N9    N     N_3   0.389628 0.732288 0.695510 -0.537090
H9    H     H_    0.351578 0.732476 0.780490 0.239612
H10   H     H_    0.430000 0.682801 0.719589 0.196605
N10   N     N_3   0.243837 0.864931 0.286645 -0.567770
H11   H     H_    0.179658 0.870862 0.303874 0.261383
H12   H     H_    0.243768 0.859691 0.181414 0.271333
N11   N     N_3   0.291008 0.194970 0.758493 -0.474792
H13   H     H_    0.226700 0.187584 0.769106 0.250379
H14   H     H_    0.305249 0.224279 0.849081 0.263780
N12   N     N_3   0.336511 0.217701 0.244175 -0.517999
H15   H     H_    0.285786 0.183731 0.216897 0.253115
H16   H     H_    0.343755 0.261768 0.166487 0.239694
N13   N     N_3   0.911731 0.182118 0.475759 -0.631753
H17   H     H_    0.944120 0.134510 0.526397 0.187025
H18   H     H_    0.887939 0.150054 0.394558 0.298687
N14   N     N_3   0.853235 0.263952 0.262766 -0.617636
H19   H     H_    0.843072 0.270371 0.158849 0.243053
H20   H     H_    0.912094 0.282863 0.291589 0.296380
N15   N     N_3   0.904563 0.771091 0.669725 -0.586160
H21   H     H_    0.910452 0.787965 0.770898 0.233914
H22   H     H_    0.925829 0.823579 0.620540 0.222314
N16   N     N_3   0.905920 0.803797 0.392111 -0.627781
H23   H     H_    0.943119 0.805578 0.304299 0.238045
H24   H     H_    0.900735 0.865168 0.421777 0.270082
N17   N     N_3   0.411731 0.682118 0.475777 -0.631755
H25   H     H_    0.444118 0.634510 0.526422 0.187026
H26   H     H_    0.387942 0.650052 0.394577 0.298685
N18   N     N_3   0.353242 0.763944 0.262772 -0.617629
H27   H     H_    0.343083 0.770363 0.158853 0.243047
H28   H     H_    0.412099 0.782860 0.291597 0.296383
N19   N     N_3   0.404565 0.271092 0.669729 -0.586151
H29   H     H_    0.410454 0.287967 0.770903 0.233920
H30   H     H_    0.425832 0.323579 0.620544 0.222312
N20   N     N_3   0.405925 0.303797 0.392116 -0.627786
H31   H     H_    0.443124 0.305576 0.304305 0.238048
H32   H     H_    0.400740 0.365168 0.421781 0.270081
O17   O     O_3   0.289767 0.578556 0.522373 -0.639202
H33   H     H_    0.333589 0.552433 0.580568 0.348027
O18   O     O_3   0.254297 0.643076 0.296385 -0.674115
H34   H     H_    0.271363 0.654746 0.201776 0.330791
O19   O     O_3   0.301553 0.397918 0.601193 -0.706732
H35   H     H_    0.326362 0.417036 0.687204 0.334803
O20   O     O_3   0.272786 0.405204 0.354090 -0.636263
H36   H     H_    0.305112 0.410164 0.268083 0.321071
O21   O     O_3   0.789766 0.078556 0.522359 -0.639202
H37   H     H_    0.833590 0.052432 0.580547 0.348029
O22   O     O_3   0.754292 0.143086 0.296377 -0.674119
H38   H     H_    0.771352 0.154761 0.201767 0.330789
O23   O     O_3   0.801549 0.897916 0.601189 -0.706742
H39   H     H_    0.826357 0.917035 0.687200 0.334807
O24   O     O_3   0.772780 0.905201 0.354083 -0.636250
H40   H     H_    0.805102 0.910162 0.268072 0.321080
O25   O     O_3   0.249198 0.638082 0.714056 -0.772416
H41   H     H_    0.233044 0.689456 0.759038 0.349849
O26   O     O_3   0.150495 0.738452 0.260922 -0.778783
H42   H     H_    0.095110 0.720860 0.293323 0.333974
O27   O     O_3   0.215076 0.340049 0.752396 -0.735491
H43   H     H_    0.168028 0.303111 0.766928 0.373809
O28   O     O_3   0.196890 0.309977 0.251391 -0.722846
H44   H     H_    0.182624 0.252188 0.236307 0.352603
O29   O     O_3   0.749206 0.138079 0.714049 -0.772397
H45   H     H_    0.733049 0.189451 0.759036 0.349846
O30   O     O_3   0.650487 0.238462 0.260930 -0.778778
H46   H     H_    0.595103 0.220860 0.293327 0.333970
O31   O     O_3   0.715073 0.840045 0.752392 -0.735505
H47   H     H_    0.668024 0.803106 0.766925 0.373808
O32   O     O_3   0.696884 0.809972 0.251388 -0.722835
H48   H     H_    0.682624 0.752181 0.236303 0.352595
N21   N     N_3   0.754828 0.335359 0.736850 -0.585045
H49   H     H_    0.704701 0.344832 0.803440 0.226615
H50   H     H_    0.788293 0.388725 0.753826 0.312288
N22   N     N_3   0.704803 0.421341 0.565594 -0.645954
H51   H     H_    0.657864 0.436181 0.636378 0.206446
H52   H     H_    0.679139 0.435827 0.472933 0.231976
N23   N     N_3   0.710883 0.594073 0.603516 -0.586685
H53   H     H_    0.760102 0.551121 0.604556 0.253874
H54   H     H_    0.653917 0.564107 0.592821 0.216650
N24   N     N_3   0.712400 0.607195 0.366195 -0.608069
H55   H     H_    0.759301 0.561472 0.360334 0.266963
H56   H     H_    0.657106 0.573143 0.366646 0.212479
N25   N     N_3   0.254819 0.835369 0.736840 -0.585027
H57   H     H_    0.204688 0.844856 0.803411 0.226614
H58   H     H_    0.288284 0.888737 0.753807 0.312269
N26   N     N_3   0.204799 0.921342 0.565568 -0.645955
H59   H     H_    0.157860 0.936185 0.636351 0.206431
H60   H     H_    0.179130 0.935824 0.472907 0.231980
N27   N     N_3   0.210885 0.094075 0.603517 -0.586678
H61   H     H_    0.260103 0.051120 0.604553 0.253871
H62   H     H_    0.153918 0.064111 0.592823 0.216651
N28   N     N_3   0.212402 0.107198 0.366196 -0.608064
H63   H     H_    0.259302 0.061475 0.360334 0.266963
H64   H     H_    0.157108 0.073146 0.366647 0.212477
N29   N     N_3   0.108881 0.756985 0.699791 -0.584590
H65   H     H_    0.055103 0.723780 0.681414 0.256956
H66   H     H_    0.083846 0.812058 0.738830 0.206647
N30   N     N_3   0.089078 0.813691 0.481652 -0.630535
H67   H     H_    0.041337 0.771017 0.471885 0.224265
H68   H     H_    0.059717 0.864189 0.528414 0.215626
N31   N     N_3   0.100124 0.214681 0.632360 -0.638740
H69   H     H_    0.066173 0.160067 0.632055 0.220830
H70   H     H_    0.053895 0.261022 0.639148 0.258919
N32   N     N_3   0.087819 0.218460 0.394502 -0.566699
H71   H     H_    0.058964 0.161047 0.397329 0.230542
H72   H     H_    0.039840 0.262686 0.404417 0.258203
N33   N     N_3   0.608884 0.256982 0.699800 -0.584597
H73   H     H_    0.555105 0.223780 0.681419 0.256953
H74   H     H_    0.583852 0.312054 0.738845 0.206652
N34   N     N_3   0.589081 0.313695 0.481666 -0.630524
H75   H     H_    0.541340 0.271021 0.471895 0.224268
H76   H     H_    0.559720 0.364191 0.528434 0.215625
N35   N     N_3   0.600120 0.714678 0.632356 -0.638742
H77   H     H_    0.566172 0.660063 0.632054 0.220831
H78   H     H_    0.553890 0.761019 0.639142 0.258916
N36   N     N_3   0.587817 0.718456 0.394498 -0.566696
H79   H     H_    0.558960 0.661044 0.397329 0.230544
H80   H     H_    0.539840 0.762684 0.404409 0.258201
O33   O     O_3   0.972560 0.646002 0.106026 -0.763900
H81   H     H_    0.982566 0.650557 0.203875 0.371346
O34   O     O_3   0.932423 0.636329 0.864363 -0.708718
H82   H     H_    0.973746 0.641060 0.791360 0.375757
O35   O     O_3   0.009096 0.351130 0.148111 -0.685880
H83   H     H_    0.989495 0.299717 0.105623 0.292895
O36   O     O_3   0.052444 0.360578 0.882982 -0.730498
H84   H     H_    0.036036 0.302058 0.896835 0.296964
O37   O     O_3   0.472570 0.146005 0.106027 -0.763893
H85   H     H_    0.482573 0.150559 0.203879 0.371342
O38   O     O_3   0.432434 0.136336 0.864361 -0.708709
H86   H     H_    0.473756 0.141060 0.791353 0.375754
O39   O     O_3   0.509090 0.851130 0.148111 -0.685897
H87   H     H_    0.489491 0.799718 0.105616 0.292896
O40   O     O_3   0.552431 0.860572 0.882971 -0.730508
H88   H     H_    0.536014 0.802052 0.896810 0.296965
O41   O     O_3   0.863226 0.562793 0.140742 -0.693544
H89   H     H_    0.822916 0.594196 0.083137 0.362784
O42   O     O_3   0.853205 0.523137 0.893067 -0.689331
H90   H     H_    0.845966 0.519222 0.794545 0.381649
O43   O     O_3   0.882887 0.409889 0.096309 -0.754425
H91   H     H_    0.863476 0.430586 0.182212 0.421662
O44   O     O_3   0.914210 0.381014 0.860388 -0.671608
H92   H     H_    0.902489 0.327545 0.906602 0.312024
O45   O     O_3   0.363229 0.062803 0.140738 -0.693547
H93   H     H_    0.322922 0.094212 0.083133 0.362787
O46   O     O_3   0.353205 0.023150 0.893067 -0.689318
H94   H     H_    0.345972 0.019227 0.794542 0.381651
O47   O     O_3   0.382882 0.909894 0.096317 -0.754406
H95   H     H_    0.363472 0.930601 0.182217 0.421664
O48   O     O_3   0.414195 0.881024 0.860393 -0.671610
H96   H     H_    0.402468 0.827555 0.906608 0.312034
N37   N     N_3   0.134519 0.576554 0.143200 -0.450495
H97   H     H_    0.194736 0.576408 0.101219 0.186164
H98   H     H_    0.111139 0.634555 0.122225 0.261803
N38   N     N_3   0.104416 0.613292 0.881416 -0.559417
H99   H     H_    0.069016 0.657830 0.931289 0.256871
H100  H     H_    0.165530 0.626336 0.909306 0.226837
N39   N     N_3   0.141620 0.435733 0.115560 -0.378596
H101  H     H_    0.140066 0.387828 0.047489 0.296654
H102  H     H_    0.205737 0.448348 0.119698 0.222905
N40   N     N_3   0.155528 0.478395 0.852754 -0.417030
H103  H     H_    0.166610 0.499100 0.754538 0.347538
H104  H     H_    0.212250 0.490738 0.900887 0.189153
N41   N     N_3   0.634526 0.076543 0.143204 -0.450467
H105  H     H_    0.694742 0.076392 0.101222 0.186167
H106  H     H_    0.611151 0.134548 0.122232 0.261794
N42   N     N_3   0.604422 0.113288 0.881420 -0.559404
H107  H     H_    0.665538 0.126328 0.909307 0.226839
H108  H     H_    0.569025 0.157828 0.931295 0.256879
N43   N     N_3   0.641620 0.935723 0.115551 -0.378543
H109  H     H_    0.640039 0.887809 0.047491 0.296664
H110  H     H_    0.705745 0.948330 0.119623 0.222822
N44   N     N_3   0.655527 0.978387 0.852765 -0.417069
H111  H     H_    0.712257 0.990722 0.900911 0.189164
H112  H     H_    0.666596 0.999074 0.754527 0.347567

loop_
_geom_bond_atom_site_label_1
_geom_bond_atom_site_label_2
_ccdc_geom_bond_type
C42   N31   S    
C27   O31   S    
C9    C33   S    
Cu3   Cu4   S    
N43   H110  S    
C16   C28   S    
N32   H71   S    
Cu4   O16   S    
O21   H37   S    
C29   C33   S    
N25   H58   S    
N25   H57   S    
C6    N2    S    
N44   H112  S    
N11   H13   S    
C2    C37   S    
Cu1   O9    S    
C1    O2    A    
C14   C33   S    
N14   H20   S    
O27   H43   S    
C16   N16   S    
C7    C8    S    
N27   H62   S    
N29   H65   S    
C51   O39   S    
C23   O27   S    
C45   N1    S    
N41   H105  S    
N13   H17   S    
C5    N37   S    
C7    N41   S    
N7    H5    S    
C32   C36   S    
C26   O30   S    
N23   H54   S    
C9    O9    A    
C38   C42   S    
C19   C36   S    
C5    C6    S    
N30   H68   S    
N9    H10   S    
N8    H8    S    
C26   C39   S    
C31   N26   S    
C28   C40   S    
N39   H101  S    
C49   O37   S    
N18   H27   S    
C23   O19   S    
C25   O29   S    
Cu4   O8    S    
C15   N15   S    
C49   C50   S    
N16   H23   S    
N38   H99   S    
C26   O22   S    
C52   N4    S    
O28   H44   S    
C16   C34   S    
Cu1   O1    S    
N21   H49   S    
O44   H92   S    
Cu1   Cu2   S    
C2    O4    A    
N39   H102  S    
C47   O43   S    
C22   O26   S    
C28   O32   S    
C24   C38   S    
O48   H96   S    
C48   O36   S    
C41   N30   S    
C14   N6    S    
C12   C36   S    
C20   N12   S    
C25   O21   S    
O47   H95   S    
C15   C34   S    
C20   N20   S    
O26   H42   S    
Cu3   O15   S    
C10   O11   A    
N5    H2    S    
C19   N19   S    
N35   H77   S    
N21   H50   S    
Cu3   N4    S    
C46   N2    S    
C16   N8    S    
N38   H100  S    
N15   H22   S    
C32   N28   S    
N24   H55   S    
C3    O5    A    
C28   O24   S    
C7    N43   S    
C30   N23   S    
C7    N3    S    
N14   H19   S    
Cu3   O5    S    
N26   H60   S    
N28   H63   S    
C29   N22   S    
N40   H104  S    
N19   H30   S    
C39   C43   S    
C46   O34   S    
C32   N27   S    
C13   N5    S    
N41   H106  S    
Cu4   O14   S    
N36   H79   S    
C30   C34   S    
C17   N17   S    
C51   C52   S    
C20   C24   S    
O22   H38   S    
N24   H56   S    
C17   N9    S    
C9    O10   A    
C30   N24   S    
O42   H90   S    
N34   H76   S    
C11   O13   A    
N29   H66   S    
C18   N18   S    
O40   H88   S    
C4    O8    A    
C48   O44   S    
N8    H7    S    
N6    H3    S    
C20   C36   S    
C15   N7    S    
Cu2   O2    S    
N33   H74   S    
O39   H87   S    
N5    H1    S    
C22   C37   S    
C6    N38   S    
C24   O28   S    
C5    N39   S    
C46   O42   S    
O34   H82   S    
C13   N13   S    
C43   N34   S    
N22   H52   S    
C49   O45   S    
C19   C23   S    
O38   H86   S    
O36   H84   S    
C13   C33   S    
O45   H93   S    
C47   N1    S    
O41   H89   S    
C42   N32   S    
C15   C27   S    
C47   C48   S    
Cu2   O10   S    
C4    C39   S    
O37   H85   S    
C27   C40   S    
O30   H46   S    
N10   H12   S    
O35   H83   S    
C21   C37   S    
C50   O46   S    
C10   C34   S    
C27   O23   S    
C14   C26   S    
N19   H29   S    
C41   N29   S    
N35   H78   S    
N36   H80   S    
C1    C38   S    
C29   C43   S    
N6    H4    S    
N7    H6    S    
C3    C40   S    
N12   H15   S    
N12   H16   S    
N37   H98   S    
O17   H33   S    
C31   C35   S    
C3    O6    A    
C51   N3    S    
N15   H21   S    
C21   O17   S    
N43   H109  S    
Cu1   O11   S    
C43   N33   S    
O32   H48   S    
C19   N11   S    
N26   H59   S    
O24   H40   S    
C8    N44   S    
N42   H108  S    
N17   H25   S    
C18   C35   S    
C44   N36   S    
O33   H81   S    
N40   H103  S    
C8    N42   S    
C52   O40   S    
N32   H72   S    
C31   C41   S    
O43   H91   S    
C18   C22   S    
C6    N40   S    
C47   O35   S    
C29   N21   S    
N34   H75   S    
C13   C25   S    
C11   O14   A    
C1    O1    A    
C4    O7    A    
Cu3   O7    S    
Cu1   N2    S    
N11   H14   S    
C48   N2    S    
O18   H34   S    
C23   C38   S    
C31   N25   S    
O23   H39   S    
C49   N3    S    
Cu4   N3    S    
C5    N1    S    
C51   O47   S    
C50   N4    S    
N22   H51   S    
C12   O16   A    
N44   H111  S    
O19   H35   S    
C2    O3    A    
C18   N10   S    
N31   H69   S    
N27   H61   S    
C45   O33   S    
O25   H41   S    
C25   C39   S    
Cu1   O3    S    
C24   O20   S    
C22   O18   S    
C14   N14   S    
Cu2   O4    S    
C50   O38   S    
Cu4   O6    S    
N37   H97   S    
C11   C35   S    
N10   H11   S    
N18   H28   S    
C30   C44   S    
C37   C41   S    
N16   H24   S    
C45   O41   S    
N31   H70   S    
N23   H53   S    
C21   O25   S    
Cu3   O13   S    
C45   C46   S    
C40   C44   S    
Cu2   O12   S    
C44   N35   S    
N13   H18   S    
N33   H73   S    
C12   O15   A    
O46   H94   S    
N20   H31   S    
C32   C42   S    
N30   H67   S    
C17   C35   S    
N17   H26   S    
N9    H9    S    
O29   H45   S    
N28   H64   S    
N20   H32   S    
C8    N4    S    
O20   H36   S    
C52   O48   S    
C10   O12   A    
N42   H107  S    
O31   H47   S    
Cu2   N1    S    
C17   C21   S    
