data_mof_unit_54277.cif
_audit_creation_date              2012-12-11T15:36:03-0500
_audit_creation_method            fapswitch 2.2
_symmetry_space_group_name_H-M    P1
_symmetry_Int_Tables_number       1
_space_group_crystal_system       triclinic
_cell_length_a                    7.097081
_cell_length_b                    12.81263
_cell_length_c                    34.146679
_cell_angle_alpha                 89.999226
_cell_angle_beta                  87.846463
_cell_angle_gamma                 90.002386
_cell_volume                      3102.84210037

loop_
_atom_site_label
_atom_site_type_symbol
_atom_type_description
_atom_site_fract_x
_atom_site_fract_y
_atom_site_fract_z
_atom_type_partial_charge
O1    O     O_R   0.379730 0.148600 0.662710 -0.536474
O2    O     O_R   0.620270 0.851400 0.337290 -0.537882
O3    O     O_R   0.120270 0.648600 0.337290 -0.536467
O4    O     O_R   0.879730 0.351400 0.662710 -0.537840
O5    O     O_R   0.722480 0.134490 0.741330 -0.547600
O6    O     O_R   0.277520 0.865510 0.258670 -0.547888
O7    O     O_R   0.777520 0.634490 0.258670 -0.547592
O8    O     O_R   0.222480 0.365510 0.741330 -0.547875
O9    O     O_R   0.892880 0.345890 0.741600 -0.545304
O10   O     O_R   0.107120 0.654110 0.258400 -0.545184
O11   O     O_R   0.607120 0.845890 0.258400 -0.545307
O12   O     O_R   0.392880 0.154110 0.741600 -0.545216
C1    C     C_R   0.550466 0.122072 0.757094 0.696568
C2    C     C_R   0.449532 0.877920 0.242904 0.696001
C3    C     C_R   0.949533 0.622067 0.242907 0.696666
C4    C     C_R   0.050468 0.377924 0.757095 0.696034
O13   O     O_R   0.709490 0.135560 0.662990 -0.539947
O14   O     O_R   0.290510 0.864440 0.337010 -0.539483
O15   O     O_R   0.790510 0.635560 0.337010 -0.540007
O16   O     O_R   0.209490 0.364440 0.662990 -0.539413
C5    C     C_R   0.541573 0.103925 0.653735 0.709114
C6    C     C_R   0.458462 0.896393 0.346132 0.710404
C7    C     C_R   0.958423 0.603944 0.346283 0.709122
C8    C     C_R   0.041572 0.396331 0.653832 0.710398
O17   O     O_3   0.552800 0.316610 0.702160 -0.372658
O18   O     O_3   0.447200 0.683390 0.297840 -0.372062
O19   O     O_3   0.947200 0.816610 0.297840 -0.372658
O20   O     O_3   0.052800 0.183390 0.702160 -0.372074
V1    V     V_3+5 0.827630 0.234380 0.702160 1.397663
V2    V     V_3+5 0.172370 0.765620 0.297840 1.397768
V3    V     V_3+5 0.672370 0.734380 0.297840 1.397518
V4    V     V_3+5 0.327630 0.265620 0.702160 1.397881
C9    C     C_R   0.008933 0.648604 0.926686 0.563151
C10   C     C_R   0.991074 0.351390 0.073315 0.563147
C11   C     C_R   0.491064 0.148602 0.073314 0.563153
C12   C     C_R   0.508927 0.851393 0.926686 0.563148
O21   O     O_2   0.053293 0.551141 0.937696 -0.556569
O22   O     O_2   0.946729 0.448854 0.062303 -0.556570
O23   O     O_2   0.446698 0.051138 0.062304 -0.556568
O24   O     O_2   0.553279 0.948858 0.937697 -0.556569
N1    N     N_R   0.962070 0.669711 0.888490 -0.523149
N2    N     N_R   0.037929 0.330282 0.111511 -0.523147
N3    N     N_R   0.537929 0.169709 0.111509 -0.523154
N4    N     N_R   0.462070 0.830285 0.888490 -0.523152
C13   C     C_R   0.911335 0.769855 0.879901 0.568032
C14   C     C_R   0.088659 0.230137 0.120100 0.568055
C15   C     C_R   0.588667 0.269853 0.120098 0.568037
C16   C     C_R   0.411337 0.730140 0.879901 0.568060
C17   C     C_R   0.012762 0.624695 0.816341 -0.034173
C18   C     C_R   0.987244 0.375297 0.183661 -0.034261
C19   C     C_R   0.487238 0.124690 0.183658 -0.034170
C20   C     C_R   0.512757 0.875303 0.816341 -0.034261
C21   C     C_R   0.034352 0.553967 0.785511 -0.291504
C22   C     C_R   0.965660 0.446024 0.214491 -0.291253
C23   C     C_R   0.465648 0.053961 0.214487 -0.291510
C24   C     C_R   0.534340 0.946031 0.785511 -0.291263
C25   C     C_R   0.996211 0.411614 0.831721 0.082897
C26   C     C_R   0.003786 0.588379 0.168281 0.082823
C27   C     C_R   0.503788 0.911611 0.168278 0.082893
C28   C     C_R   0.496216 0.088383 0.831719 0.082817
C29   C     C_R   0.954190 0.485009 0.861855 -0.197069
C30   C     C_R   0.045803 0.514985 0.138146 -0.197048
C31   C     C_R   0.545806 0.985007 0.138144 -0.197072
C32   C     C_R   0.454199 0.014987 0.861855 -0.197055
C33   C     C_R   0.973844 0.592860 0.855869 0.369505
C34   C     C_R   0.026155 0.407133 0.144132 0.369522
C35   C     C_R   0.526154 0.092857 0.144130 0.369491
C36   C     C_R   0.473846 0.907137 0.855869 0.369513
C37   C     C_R   0.991004 0.834483 0.943802 -0.106375
C38   C     C_R   0.008983 0.165509 0.056199 -0.106379
C39   C     C_R   0.508996 0.334482 0.056197 -0.106379
C40   C     C_R   0.491015 0.665511 0.943802 -0.106385
C41   C     C_R   0.014270 0.729716 0.955179 -0.034078
C42   C     C_R   0.985731 0.270277 0.044821 -0.034079
C43   C     C_R   0.485728 0.229715 0.044820 -0.034075
C44   C     C_R   0.514269 0.770279 0.955179 -0.034075
C45   C     C_R   0.046967 0.708237 0.994546 -0.107416
C46   C     C_R   0.953043 0.291757 0.005454 -0.107417
C47   C     C_R   0.453029 0.208237 0.005453 -0.107418
C48   C     C_R   0.546960 0.791757 0.994547 -0.107418
C49   C     C_R   0.951868 0.855090 0.904529 -0.039318
C50   C     C_R   0.048120 0.144903 0.095472 -0.039312
C51   C     C_R   0.548134 0.355087 0.095471 -0.039308
C52   C     C_R   0.451875 0.644906 0.904529 -0.039302
C53   C     C_R   0.029000 0.446889 0.792187 -0.013735
C54   C     C_R   0.971003 0.553102 0.207815 -0.013943
C55   C     C_R   0.471000 0.946884 0.207812 -0.013724
C56   C     C_R   0.528997 0.053108 0.792186 -0.013909
H1    H     H_    0.911185 0.455509 0.890411 0.167534
H2    H     H_    0.088806 0.544486 0.109591 0.167538
H3    H     H_    0.588810 0.955510 0.109588 0.167536
H4    H     H_    0.411198 0.044487 0.890410 0.167540
H5    H     H_    0.068125 0.628757 0.004289 0.180686
H6    H     H_    0.931903 0.371237 0.995711 0.180687
H7    H     H_    0.431868 0.128758 0.995711 0.180684
H8    H     H_    0.568104 0.871237 0.004290 0.180684
C57   C     C_R   0.023499 0.977244 0.040467 0.032093
C58   C     C_R   0.976472 0.022748 0.959534 0.032091
C59   C     C_R   0.476498 0.477246 0.959533 0.032095
C60   C     C_R   0.523529 0.522747 0.040466 0.032092
C61   C     C_R   0.975911 0.105666 0.987895 0.050847
C62   C     C_R   0.024068 0.894326 0.012107 0.050848
C63   C     C_R   0.524090 0.605666 0.012106 0.050849
C64   C     C_R   0.475929 0.394327 0.987893 0.050851
C65   C     C_R   0.001593 0.082401 0.028119 0.074403
C66   C     C_R   0.998385 0.917591 0.971883 0.074400
C67   C     C_R   0.498406 0.582402 0.971882 0.074403
C68   C     C_R   0.501615 0.417590 0.028117 0.074401
C69   C     C_R   0.043073 0.958771 0.081080 -0.207796
C70   C     C_R   0.956891 0.041221 0.918921 -0.207763
C71   C     C_R   0.456922 0.458774 0.918920 -0.207805
C72   C     C_R   0.543112 0.541218 0.081079 -0.207773
C73   C     C_R   0.055622 0.040109 0.108505 0.338630
C74   C     C_R   0.944358 0.959883 0.891497 0.338608
C75   C     C_R   0.444373 0.540114 0.891496 0.338633
C76   C     C_R   0.555646 0.459880 0.108503 0.338609
O25   O     O_2   0.186831 0.213403 0.151963 -0.565813
O26   O     O_2   0.813163 0.786588 0.848037 -0.565814
O27   O     O_2   0.313164 0.713405 0.848038 -0.565810
O28   O     O_2   0.686840 0.286587 0.151962 -0.565810
C77   C     C_R   0.051129 0.788139 0.022349 -0.173194
C78   C     C_R   0.948870 0.211854 0.977652 -0.173198
C79   C     C_R   0.448866 0.288141 0.977651 -0.173199
C80   C     C_R   0.551133 0.711853 0.022348 -0.173202
H9    H     H_    0.938983 0.416348 0.243912 0.115957
H10   H     H_    0.061041 0.583641 0.756091 0.115903
H11   H     H_    0.561016 0.916356 0.756090 0.115919
H12   H     H_    0.438960 0.083633 0.243908 0.115920
H13   H     H_    0.965252 0.294703 0.191655 0.172869
H14   H     H_    0.034754 0.705289 0.808346 0.172899
H15   H     H_    0.534745 0.794711 0.808347 0.172872
H16   H     H_    0.465249 0.205282 0.191652 0.172908
H17   H     H_    0.050637 0.880993 0.092709 0.099804
H18   H     H_    0.949309 0.118998 0.907293 0.099801
H19   H     H_    0.449358 0.380997 0.907290 0.099801
H20   H     H_    0.550694 0.618995 0.092708 0.099799
H21   H     H_    0.077853 0.763348 0.051736 0.114699
H22   H     H_    0.922160 0.236648 0.948264 0.114698
H23   H     H_    0.422140 0.263350 0.948263 0.114699
H24   H     H_    0.577846 0.736646 0.051736 0.114697
C81   C     C_R   0.960956 0.525902 0.376500 -0.035047
C82   C     C_R   0.041629 0.475415 0.623927 -0.039280
C83   C     C_R   0.539238 0.026091 0.623457 -0.034613
C84   C     C_R   0.458698 0.975674 0.375963 -0.039386
C85   C     C_R   0.867280 0.359156 0.403079 -0.170246
C86   C     C_R   0.171057 0.634024 0.596418 -0.168527
C87   C     C_R   0.633133 0.859485 0.596816 -0.170270
C88   C     C_R   0.330588 0.134644 0.403422 -0.168617
C89   C     C_R   0.884044 0.426864 0.371303 -0.181545
C90   C     C_R   0.136764 0.569714 0.628670 -0.177802
C91   C     C_R   0.615330 0.926875 0.628666 -0.181738
C92   C     C_R   0.363331 0.069903 0.371233 -0.177876
C93   C     C_R   0.021914 0.557652 0.412570 -0.212121
C94   C     C_R   0.978871 0.445653 0.587740 -0.219966
C95   C     C_R   0.480074 0.058336 0.587309 -0.212071
C96   C     C_R   0.523061 0.946377 0.412069 -0.219964
C97   C     C_R   0.000727 0.492978 0.445351 0.079979
C98   C     C_R   0.030661 0.502666 0.554151 0.078003
C99   C     C_R   0.502176 0.993949 0.554471 0.080119
C100  C     C_R   0.472447 0.003697 0.445647 0.077910
C101  C     C_R   0.920745 0.392413 0.440223 0.133422
C102  C     C_R   0.122819 0.600028 0.559057 0.135393
C103  C     C_R   0.581397 0.893200 0.559612 0.133771
C104  C     C_R   0.380306 0.101057 0.440742 0.135259
C105  C     C_R   0.046171 0.528112 0.483224 0.055389
C106  C     C_R   0.998801 0.464069 0.516031 0.057913
C107  C     C_R   0.457813 0.029371 0.516566 0.055379
C108  C     C_R   0.504939 0.965262 0.483763 0.058058
C109  C     C_R   0.926893 0.362381 0.509574 -0.199239
C110  C     C_R   0.136554 0.625258 0.489366 -0.193854
C111  C     C_R   0.576770 0.863551 0.490223 -0.198925
C112  C     C_R   0.368296 0.126758 0.510402 -0.193988
C113  C     C_R   0.889356 0.327480 0.472309 -0.214425
C114  C     C_R   0.172938 0.660359 0.526622 -0.206273
C115  C     C_R   0.613547 0.828473 0.527499 -0.214765
C116  C     C_R   0.331488 0.161735 0.473153 -0.206249
H25   H     H_    0.831848 0.249765 0.468718 0.139994
H26   H     H_    0.243456 0.734661 0.530002 0.143591
H27   H     H_    0.670765 0.750693 0.531090 0.139745
H28   H     H_    0.261329 0.236139 0.469767 0.143809
H29   H     H_    0.901095 0.373625 0.586632 0.111400
H30   H     H_    0.071189 0.636910 0.414433 0.105118
H31   H     H_    0.601038 0.874421 0.413146 0.111604
H32   H     H_    0.431275 0.137679 0.585480 0.104849
H33   H     H_    0.187822 0.591929 0.656991 0.109136
H34   H     H_    0.834500 0.403102 0.343030 0.108592
H35   H     H_    0.311138 0.091804 0.342973 0.109337
H36   H     H_    0.663578 0.902769 0.657002 0.108341
H37   H     H_    0.805970 0.282595 0.399003 0.124919
H38   H     H_    0.244353 0.707333 0.600298 0.124978
H39   H     H_    0.693824 0.782785 0.600906 0.124811
H40   H     H_    0.257219 0.207937 0.399555 0.125059
H41   H     H_    0.900419 0.306222 0.532542 0.127124
H42   H     H_    0.187147 0.675551 0.466033 0.127780
H43   H     H_    0.603630 0.807445 0.467256 0.126921
H44   H     H_    0.318512 0.177336 0.533704 0.127903
C117  C     C_3   0.022941 0.301866 0.847027 -0.415865
C118  C     C_3   0.087156 0.216969 0.818580 -0.758836
H45   H     H_    0.976131 0.189198 0.799441 0.224258
H46   H     H_    0.208454 0.241013 0.800185 0.241661
H47   H     H_    0.132628 0.151191 0.836649 0.223135
H48   H     H_    0.128694 0.307182 0.870040 0.178366
H49   H     H_    0.894350 0.275656 0.863108 0.185044
C119  C     C_3   0.977060 0.698128 0.152975 -0.415870
C120  C     C_3   0.912843 0.783023 0.181423 -0.758913
H50   H     H_    0.791541 0.758981 0.199817 0.241658
H51   H     H_    0.023865 0.810791 0.200563 0.224251
H52   H     H_    0.867374 0.848803 0.163355 0.223157
H53   H     H_    0.871311 0.692816 0.129962 0.178373
H54   H     H_    0.105653 0.724338 0.136896 0.185055
C121  C     C_3   0.477062 0.801862 0.152972 -0.415875
C122  C     C_3   0.412843 0.716964 0.181420 -0.758822
H55   H     H_    0.523867 0.689197 0.200560 0.224262
H56   H     H_    0.291544 0.741006 0.199815 0.241666
H57   H     H_    0.367371 0.651185 0.163352 0.223133
H58   H     H_    0.371312 0.807175 0.129959 0.178367
H59   H     H_    0.605654 0.775657 0.136893 0.185045
C123  C     C_3   0.522939 0.198133 0.847025 -0.415876
C124  C     C_3   0.587162 0.283028 0.818576 -0.758908
H60   H     H_    0.708465 0.258987 0.800183 0.241659
H61   H     H_    0.476142 0.310792 0.799436 0.224249
H62   H     H_    0.632630 0.348809 0.836644 0.223155
H63   H     H_    0.628686 0.192823 0.870039 0.178375
H64   H     H_    0.394345 0.224338 0.863104 0.185056
N5    N     N_2   0.087634 0.013744 0.148518 -0.497472
H65   H     H_    0.140236 0.940542 0.153620 0.262864
C125  C     C_3   0.966259 0.055642 0.179997 -0.463160
H66   H     H_    0.876925 0.994697 0.193932 0.171561
H67   H     H_    0.873362 0.117874 0.169545 0.212590
H68   H     H_    0.054534 0.087925 0.203224 0.221144
N6    N     N_2   0.912352 0.986250 0.851484 -0.497520
H69   H     H_    0.859746 0.059451 0.846381 0.262862
C126  C     C_3   0.033730 0.944353 0.820005 -0.462983
H70   H     H_    0.123070 0.005298 0.806071 0.171575
H71   H     H_    0.945457 0.912075 0.796776 0.221249
H72   H     H_    0.126622 0.882119 0.830457 0.212552
N7    N     N_2   0.412360 0.513750 0.851482 -0.497467
H73   H     H_    0.359766 0.440543 0.846380 0.262863
C127  C     C_3   0.533738 0.555652 0.820003 -0.463186
H74   H     H_    0.623070 0.494710 0.806069 0.171561
H75   H     H_    0.626636 0.617886 0.830455 0.212600
H76   H     H_    0.445464 0.587935 0.796776 0.221146
N8    N     N_2   0.587653 0.486245 0.148516 -0.497518
H77   H     H_    0.640255 0.559449 0.153619 0.262861
C128  C     C_3   0.466273 0.444344 0.179995 -0.462997
H78   H     H_    0.376935 0.505287 0.193928 0.171579
H79   H     H_    0.554545 0.412066 0.203224 0.221250
H80   H     H_    0.373378 0.382109 0.169543 0.212561

loop_
_geom_bond_atom_site_label_1
_geom_bond_atom_site_label_2
_ccdc_geom_bond_type
C13   O26   S    
C88   H40   S    
C26   C30   A    
C105  C106  A    
C58   C70   A    
C6    C84   S    
O13   V1    S    
O3    C7    A    
C127  H74   S    
C10   N2    A    
C72   C76   A    
C40   C44   A    
C103  C115  A    
C90   H33   S    
C28   C56   A    
C81   C89   A    
C123  H63   S    
C64   C79   A    
C120  H50   S    
C100  C108  A    
O1    C5    A    
O12   C1    A    
C86   C102  A    
O18   V3    S    
C11   C43   A    
C18   C22   A    
C17   C33   A    
C100  C104  A    
O20   V1    S    
O9    C4    A    
C2    C55   S    
C94   C98   A    
O10   C3    A    
C32   C36   A    
C93   C97   A    
C48   C80   A    
C63   C67   A    
O4    C8    A    
O11   C2    A    
C24   C56   A    
C124  H61   S    
C81   C93   A    
N8    H77   S    
C94   H29   S    
C79   H23   S    
C57   C69   A    
C122  H55   S    
N2    C14   A    
C24   H11   S    
C77   H21   S    
C93   H30   S    
C125  H66   S    
C12   C44   A    
C112  H44   S    
C14   C50   A    
C83   C95   A    
C108  C111  A    
C111  C115  A    
O16   C8    A    
C8    C82   S    
N8    C128  S    
C119  H53   S    
C38   C42   A    
C40   C67   A    
C37   C41   A    
C118  H45   S    
O14   V2    S    
C15   C51   A    
C48   H8    S    
C62   C77   A    
C11   N3    A    
C126  H70   S    
C70   C74   A    
O5    C1    A    
C57   C62   A    
C20   C36   A    
C12   N4    A    
O9    V1    S    
C25   C117  S    
O17   V4    S    
C83   C91   A    
C121  H58   S    
C76   N8    S    
O15   V3    S    
C89   H34   S    
O8    C4    A    
C86   C90   A    
N7    H73   S    
O12   V4    S    
O19   V2    S    
C61   C65   A    
O14   C6    A    
C72   H20   S    
C92   H35   S    
C46   C78   A    
C63   C80   A    
C26   C54   A    
C59   C64   A    
C128  H80   S    
C96   H31   S    
C29   H1    S    
C16   O27   S    
O5    V1    S    
C120  H51   S    
O17   V1    S    
C91   H36   S    
C121  H59   S    
C22   H9    S    
C31   C35   A    
C88   C92   A    
C60   C68   A    
O7    V3    S    
C30   C34   A    
C95   C99   A    
C88   C104  A    
C44   C48   A    
C12   O24   S    
C37   C49   A    
C78   H22   S    
C111  H43   S    
C87   H39   S    
C107  C108  A    
C22   C54   A    
C98   C102  A    
C95   H32   S    
C27   C121  S    
C109  H41   S    
O7    C3    A    
C19   C23   A    
C110  C114  A    
C69   H17   S    
C60   C63   A    
O13   C5    A    
C16   C52   A    
C14   O25   S    
O2    V3    S    
O8    V4    S    
C84   C96   A    
O3    V2    S    
C11   O23   S    
C47   H7    S    
C18   H13   S    
C28   C123  S    
O6    C2    A    
C101  C113  A    
O10   V2    S    
C73   N5    S    
C121  C122  S    
C122  H57   S    
O20   V4    S    
C19   H16   S    
C59   C71   A    
C110  H42   S    
C118  H47   S    
N5    H65   S    
C117  H48   S    
C127  H75   S    
C19   C35   A    
C119  C120  S    
C123  H64   S    
C126  H71   S    
C5    C83   S    
C40   C52   A    
C10   C42   A    
C3    C54   S    
C71   C75   A    
C9    C41   A    
C15   O28   S    
O6    V2    S    
C122  H56   S    
C60   C72   A    
C52   C75   A    
N7    C127  S    
O19   V3    S    
C115  H27   S    
C4    C53   S    
C99   C103  A    
N4    C36   S    
C32   H4    S    
C97   C105  A    
C97   C101  A    
C64   C68   A    
O15   C7    A    
C75   N7    S    
O16   V4    S    
C120  H52   S    
C105  C110  A    
C124  H60   S    
C70   H18   S    
C114  H26   S    
N1    C13   A    
C85   H37   S    
C10   O22   S    
C20   H15   S    
C27   C31   A    
C51   C76   A    
C80   H24   S    
C47   C79   A    
O4    V1    S    
C50   C73   A    
C118  H46   S    
C38   C65   A    
C21   C53   A    
C37   C66   A    
C18   C34   A    
C25   C29   A    
C107  C112  A    
C102  C114  A    
C96   C100  A    
C69   C73   A    
C58   C61   A    
C59   C67   A    
C17   H14   S    
C104  C116  A    
C119  H54   S    
C61   C78   A    
C58   C66   A    
C28   C32   A    
C49   C74   A    
C9    N1    A    
C82   C90   A    
C128  H79   S    
C57   C65   A    
N1    C33   S    
C84   C92   A    
C125  H67   S    
C87   C103  A    
O2    C6    A    
C124  H62   S    
C39   C43   A    
C26   C119  S    
C109  C113  A    
C71   H19   S    
C123  C124  S    
C85   C101  A    
C46   H6    S    
C17   C21   A    
C87   C91   A    
C30   H2    S    
C1    C56   S    
C45   H5    S    
N5    C125  S    
C99   C107  A    
C9    O21   S    
C117  H49   S    
C127  H76   S    
C13   C49   A    
C86   H38   S    
O1    V4    S    
C29   C33   A    
C23   C55   A    
C117  C118  S    
C38   C50   A    
C126  H72   S    
C27   C55   A    
N3    C15   A    
C45   C77   A    
C21   H10   S    
N6    C126  S    
O11   V3    S    
C74   N6    S    
C98   C106  A    
N4    C16   A    
C116  H28   S    
C125  H68   S    
C23   H12   S    
C106  C109  A    
N3    C35   S    
C42   C46   A    
C62   C66   A    
C31   H3    S    
N6    H69   S    
N2    C34   S    
C41   C45   A    
C7    C81   S    
C39   C51   A    
C82   C94   A    
C113  H25   S    
C128  H78   S    
C43   C47   A    
C25   C53   A    
C85   C89   A    
C20   C24   A    
C39   C68   A    
C112  C116  A    
O18   V2    S    
