data_mof_unit_54680.cif
_audit_creation_date              2012-12-10T17:19:53-0500
_audit_creation_method            fapswitch 2.2
_symmetry_space_group_name_H-M    P1
_symmetry_Int_Tables_number       1
_space_group_crystal_system       triclinic
_cell_length_a                    9.642754
_cell_length_b                    10.83996
_cell_length_c                    15.652533
_cell_angle_alpha                 85.942209
_cell_angle_beta                  73.645189
_cell_angle_gamma                 92.87722
_cell_volume                      1561.76656924

loop_
_atom_site_label
_atom_site_type_symbol
_atom_type_description
_atom_site_fract_x
_atom_site_fract_y
_atom_site_fract_z
_atom_type_partial_charge
C1    C     C_R   0.998883 0.263443 0.495357 0.770347
C2    C     C_R   0.678056 0.495634 0.909820 -0.019789
C3    C     C_R   0.780210 0.477225 0.957979 0.107922
C4    C     C_R   0.534180 0.520064 0.956000 0.066979
C5    C     C_R   0.485994 0.500773 0.050758 0.057871
C6    C     C_R   0.589303 0.473259 0.096906 -0.218022
C7    C     C_R   0.734399 0.465396 0.051120 -0.206354
C8    C     C_R   0.439950 0.569516 0.910023 -0.159798
C9    C     C_R   0.296225 0.583376 0.953850 -0.267669
C10   C     C_R   0.242555 0.551478 0.045344 0.170117
C11   C     C_R   0.336864 0.511918 0.095382 0.090409
C12   C     C_R   0.917033 0.494908 0.671988 0.811801
C13   C     C_R   0.095293 0.560889 0.087586 -0.207980
C14   C     C_R   0.039381 0.531218 0.179022 -0.166354
C15   C     C_R   0.278130 0.486417 0.188310 -0.260344
C16   C     C_R   0.248168 0.149314 0.388342 -0.184079
C17   C     C_R   0.385303 0.106528 0.371940 -0.155367
C18   C     C_R   0.401892 0.991529 0.411130 0.207616
C19   C     C_R   0.280826 0.911468 0.455338 -0.230837
C20   C     C_R   0.139327 0.950883 0.467969 0.069153
C21   C     C_R   0.127188 0.077440 0.445826 0.110886
C22   C     C_R   0.997437 0.130790 0.486285 -0.093167
C23   C     C_R   0.002218 0.737693 0.504285 0.825506
C24   C     C_R   0.872906 0.055561 0.531112 -0.174867
C25   C     C_R   0.877756 0.927841 0.537517 -0.146581
C26   C     C_R   0.009494 0.873347 0.506045 -0.098456
C27   C     C_R   0.710229 0.632055 0.348607 0.214148
C28   C     C_R   0.660821 0.663379 0.274284 -0.227398
C29   C     C_R   0.516343 0.677006 0.285459 -0.220638
C30   C     C_R   0.418872 0.643049 0.367528 -0.128544
C31   C     C_R   0.458238 0.570569 0.433675 0.164000
C32   C     C_R   0.609712 0.568991 0.430026 0.162776
C33   C     C_R   0.540836 0.433042 0.563551 -0.028671
C34   C     C_R   0.082512 0.496255 0.328589 0.805289
C35   C     C_R   0.393564 0.432490 0.563297 -0.048816
C36   C     C_R   0.869934 0.486524 0.770539 -0.143524
C37   C     C_R   0.131901 0.500947 0.230555 -0.034604
C38   C     C_R   0.926283 0.467823 0.912088 -0.216763
C39   C     C_R   0.971915 0.479620 0.818998 -0.269710
C40   C     C_R   0.721284 0.480993 0.817268 0.421074
Cu1   Cu    Cu3+1 0.140660 0.499990 0.500010 0.929320
Cu2   Cu    Cu3+1 0.859340 0.500010 0.499990 0.986331
H1    H     H_    0.810315 0.446711 0.089047 0.145628
H2    H     H_    0.023641 0.593689 0.050131 0.137026
H3    H     H_    0.772147 0.095549 0.562162 0.162611
H4    H     H_    0.238519 0.241290 0.359828 0.154895
H5    H     H_    0.479050 0.166533 0.334501 0.158472
H6    H     H_    0.301383 0.825500 0.486554 0.184402
H7    H     H_    0.778153 0.871281 0.569266 0.176498
H8    H     H_    0.569034 0.376655 0.614824 0.156008
H9    H     H_    0.734428 0.698327 0.210004 0.179915
H10   H     H_    0.343805 0.455762 0.229832 0.152988
H11   H     H_    0.480680 0.720684 0.231707 0.179068
H12   H     H_    0.312271 0.672057 0.375872 0.210260
H13   H     H_    0.312050 0.376427 0.615230 0.133134
H14   H     H_    0.925065 0.537724 0.209658 0.156919
H15   H     H_    0.226643 0.619236 0.915752 0.151569
H16   H     H_    0.005625 0.452391 0.947907 0.153987
H17   H     H_    0.086373 0.477904 0.785166 0.180587
H18   H     H_    0.563217 0.461165 0.168637 0.150307
H19   H     H_    0.476910 0.602175 0.839996 0.198548
N1    N     N_R   0.648320 0.501210 0.499140 -0.197127
N2    N     N_R   0.352470 0.501290 0.499110 -0.198685
O1    O     O_R   0.118810 0.319640 0.500010 -0.580705
O2    O     O_R   0.881240 0.319660 0.500000 -0.579816
O3    O     O_R   0.055570 0.499980 0.629840 -0.593290
O4    O     O_R   0.818000 0.500010 0.629830 -0.530287
O5    O     O_R   0.118760 0.680340 0.500000 -0.617739
O6    O     O_R   0.881190 0.680360 0.499990 -0.541529
O7    O     O_R   0.182000 0.499990 0.370170 -0.611674
O8    O     O_R   0.944430 0.500020 0.370160 -0.570383
I1    I     I_    0.608598 0.949319 0.414705 -0.408170
I2    I     I_    0.902737 0.757484 0.318550 -0.340518
O9    O     O_3   0.618978 0.449308 0.774209 -0.587219
C41   C     C_3   0.579593 0.320920 0.793621 -0.329432
H20   H     H_    0.539856 0.293874 0.866832 0.171108
H21   H     H_    0.671927 0.265999 0.762039 0.158447
H22   H     H_    0.489026 0.296916 0.765721 0.170982

loop_
_geom_bond_atom_site_label_1
_geom_bond_atom_site_label_2
_ccdc_geom_bond_type
C8    C9    A    
C14   H14   S    
C16   C21   A    
C34   C37   S    
Cu1   Cu2   S    
C23   O6    A    
C19   C20   A    
C4    C8    A    
C30   H12   S    
C29   H11   S    
C24   H3    S    
C28   C29   A    
C5    C11   A    
C3    C7    A    
C30   C31   A    
C28   H9    S    
C18   C19   A    
C23   C26   S    
C15   C37   A    
C38   H16   S    
C11   C15   A    
C3    C38   A    
C16   C17   A    
Cu2   O2    S    
C1    O2    A    
C7    H1    S    
C12   C36   S    
C9    C10   A    
Cu2   N1    S    
C8    H19   S    
C1    C22   S    
C13   C14   A    
Cu1   O5    S    
C18   I1    S    
C38   C39   A    
C12   O4    A    
O9    C41   S    
C35   H13   S    
C31   N2    A    
C36   C40   A    
C24   C25   A    
C16   H4    S    
C19   H6    S    
C33   N1    A    
C25   C26   A    
C12   O3    A    
Cu2   O6    S    
C23   O5    A    
C2    C4    A    
C41   H20   S    
C29   C30   A    
C6    H18   S    
C31   C32   A    
C39   H17   S    
C17   C18   A    
C15   H10   S    
C41   H21   S    
Cu1   O3    S    
Cu2   O4    S    
C22   C24   A    
Cu1   N2    S    
C1    O1    A    
C34   O7    A    
C27   C32   A    
C36   C39   A    
C17   H5    S    
C4    C5    A    
C10   C13   A    
C6    C7    A    
C2    C3    A    
C33   H8    S    
C32   N1    A    
C27   I2    S    
C14   C37   A    
C5    C6    A    
C20   C26   A    
Cu2   O8    S    
C33   C35   A    
C40   O9    S    
C9    H15   S    
C41   H22   S    
C25   H7    S    
C10   C11   A    
C2    C40   A    
C20   C21   A    
C27   C28   A    
C35   N2    A    
Cu1   O1    S    
C21   C22   A    
C34   O8    A    
C13   H2    S    
Cu1   O7    S    
