data_mof_unit_63233.cif
_audit_creation_date              2012-12-10T18:08:39-0500
_audit_creation_method            fapswitch 2.2
_symmetry_space_group_name_H-M    P1
_symmetry_Int_Tables_number       1
_space_group_crystal_system       triclinic
_cell_length_a                    18.372868
_cell_length_b                    18.372944
_cell_length_c                    51.414622
_cell_angle_alpha                 90.000514
_cell_angle_beta                  90.000507
_cell_angle_gamma                 89.994251
_cell_volume                      17355.7086563

loop_
_atom_site_label
_atom_site_type_symbol
_atom_type_description
_atom_site_fract_x
_atom_site_fract_y
_atom_site_fract_z
_atom_type_partial_charge
C1    C     C_R   0.000002 0.500000 0.820213 0.795601
C2    C     C_R   0.065971 0.499610 0.362884 -0.210968
C3    C     C_R   0.196376 0.696376 0.750000 0.004699
C4    C     C_R   0.303625 0.196375 0.250000 0.004301
C5    C     C_R   0.696375 0.803625 0.750000 0.004257
C6    C     C_R   0.196376 0.696375 0.250000 0.004826
C7    C     C_R   0.803624 0.303624 0.750000 0.004724
C8    C     C_R   0.473824 0.059017 0.944824 0.525918
C9    C     C_R   0.526042 0.939990 0.055278 0.502904
C10   C     C_R   0.940697 0.526101 0.944800 0.524056
C11   C     C_R   0.059382 0.473851 0.055200 0.523886
C12   C     C_R   0.526125 0.940400 0.944755 0.521413
C13   C     C_R   0.499578 0.934026 0.637116 -0.210664
C14   C     C_R   0.473950 0.058769 0.055199 0.525819
C15   C     C_R   0.059382 0.473853 0.944800 0.524080
C16   C     C_R   0.940696 0.526096 0.055200 0.523849
C17   C     C_R   0.976739 0.560175 0.444820 0.525754
C18   C     C_R   0.023170 0.438777 0.555282 0.502895
C19   C     C_R   0.438760 0.976902 0.444718 0.503090
C20   C     C_R   0.560222 0.023156 0.555180 0.525834
C21   C     C_R   0.023242 0.439173 0.444751 0.521372
C22   C     C_R   0.976852 0.559920 0.555203 0.526062
C23   C     C_R   0.559969 0.023035 0.444797 0.525878
C24   C     C_R   0.499990 0.065968 0.362887 -0.211174
C25   C     C_R   0.439153 0.976838 0.555249 0.521307
C26   C     C_R   0.527373 0.938757 0.972292 -0.052480
C27   C     C_R   0.472598 0.060215 0.027673 -0.030872
C28   C     C_R   0.060932 0.472550 0.972348 -0.029663
C29   C     C_R   0.939142 0.527388 0.027651 -0.029376
C30   C     C_R   0.472521 0.060423 0.972379 -0.029754
C31   C     C_R   0.527456 0.938173 0.027685 -0.056489
C32   C     C_R   0.939142 0.527391 0.972348 -0.029482
C33   C     C_R   0.060932 0.472548 0.027652 -0.029670
C34   C     C_R   0.024295 0.437424 0.472289 -0.052712
C35   C     C_R   0.934029 0.499942 0.637115 -0.211162
C36   C     C_R   0.975719 0.561489 0.527675 -0.030921
C37   C     C_R   0.561544 0.024151 0.472326 -0.030991
C38   C     C_R   0.437404 0.975781 0.527710 -0.052627
C39   C     C_R   0.975650 0.561700 0.472377 -0.029805
C40   C     C_R   0.024373 0.436845 0.527687 -0.057186
C41   C     C_R   0.436827 0.975698 0.472313 -0.057167
C42   C     C_R   0.561753 0.024227 0.527624 -0.029933
C43   C     C_R   0.499961 0.999481 0.986191 -0.099904
C44   C     C_R   0.500010 0.999267 0.013847 -0.080987
C45   C     C_R   0.000038 0.499970 0.986185 -0.100020
C46   C     C_R   0.934027 0.500281 0.362884 -0.210585
C47   C     C_R   0.000037 0.499969 0.013815 -0.100040
C48   C     C_R   0.999987 0.499454 0.486191 -0.099893
C49   C     C_R   0.000031 0.499240 0.513848 -0.080855
C50   C     C_R   0.499258 0.999943 0.486152 -0.080840
C51   C     C_R   0.499471 0.999990 0.513810 -0.099886
C52   C     C_R   0.555062 0.878268 0.986154 0.132788
C53   C     C_R   0.444796 0.120754 0.013766 0.068992
C54   C     C_R   0.121451 0.444812 0.986274 0.071383
C55   C     C_R   0.878618 0.555114 0.013726 0.070899
C56   C     C_R   0.444756 0.120845 0.986325 0.070437
C57   C     C_R   0.500321 0.065972 0.637115 -0.210859
C58   C     C_R   0.555168 0.877715 0.013466 0.047357
C59   C     C_R   0.878618 0.555116 0.986274 0.070913
C60   C     C_R   0.121451 0.444811 0.013726 0.071376
C61   C     C_R   0.048774 0.375572 0.486153 0.131826
C62   C     C_R   0.951153 0.623405 0.513766 0.068383
C63   C     C_R   0.623504 0.048597 0.486235 0.068085
C64   C     C_R   0.375518 0.951392 0.513846 0.131983
C65   C     C_R   0.951117 0.623498 0.486324 0.069823
C66   C     C_R   0.048876 0.375022 0.513466 0.047081
C67   C     C_R   0.374969 0.951287 0.486533 0.047402
C68   C     C_R   0.499775 0.934019 0.362882 -0.212781
C69   C     C_R   0.623595 0.048641 0.513677 0.069698
C70   C     C_R   0.065909 0.499678 0.609941 -0.105495
C71   C     C_R   0.065901 0.499538 0.390061 -0.106195
C72   C     C_R   0.499509 0.934094 0.609939 -0.105880
C73   C     C_R   0.499860 0.065893 0.390063 -0.108996
C74   C     C_R   0.934100 0.499806 0.609938 -0.109250
C75   C     C_R   0.934095 0.500222 0.390060 -0.106285
C76   C     C_R   0.500267 0.065902 0.609939 -0.106646
C77   C     C_R   0.499645 0.934081 0.390059 -0.105783
C78   C     C_R   0.565877 0.001573 0.109950 -0.105167
C79   C     C_R   0.565946 0.001644 0.137125 -0.213183
C80   C     C_R   0.565877 0.001455 0.890051 -0.105154
C81   C     C_R   0.998532 0.434099 0.109943 -0.105453
C82   C     C_R   0.998516 0.434102 0.890057 -0.105245
C83   C     C_R   0.434116 0.997977 0.109951 -0.108744
C84   C     C_R   0.434104 0.998369 0.890048 -0.105619
C85   C     C_R   0.001538 0.565874 0.109940 -0.105831
C86   C     C_R   0.001552 0.565878 0.890060 -0.105183
C87   C     C_R   0.565949 0.001465 0.862877 -0.210769
C88   C     C_R   0.998562 0.434037 0.137119 -0.210901
C89   C     C_R   0.000002 0.499999 0.179787 0.795373
C90   C     C_R   0.998546 0.434039 0.862880 -0.210638
C91   C     C_R   0.434048 0.998151 0.137126 -0.211470
C92   C     C_R   0.434040 0.998466 0.862873 -0.210653
C93   C     C_R   0.001481 0.565947 0.137117 -0.211184
C94   C     C_R   0.001496 0.565950 0.862883 -0.210617
C95   C     C_R   0.000001 0.499932 0.651006 -0.014085
C96   C     C_R   1.000000 0.499971 0.348994 -0.014276
C97   C     C_R   0.499974 0.999999 0.651006 -0.014262
C98   C     C_R   0.499935 0.999997 0.348994 -0.014096
C99   C     C_R   0.499997 0.999945 0.151012 -0.014066
C100  C     C_R   0.500000 0.000001 0.820211 0.795651
C101  C     C_R   0.499997 0.999983 0.848988 -0.014446
C102  C     C_R   0.000013 0.499995 0.151007 -0.014315
C103  C     C_R   0.000013 0.499997 0.848993 -0.014502
C104  C     C_R   0.000006 0.499662 0.596207 0.318968
C105  C     C_R   0.999997 0.499840 0.403794 0.309127
C106  C     C_R   0.499850 0.999998 0.596206 0.309173
C107  C     C_R   0.499675 0.999983 0.403793 0.319011
C108  C     C_R   0.499997 0.999700 0.096213 0.317519
C109  C     C_R   0.499988 0.999878 0.903788 0.307383
C110  C     C_R   0.000040 0.499984 0.096201 0.307203
C111  C     C_R   0.499999 0.999998 0.179789 0.795568
C112  C     C_R   0.000040 0.499987 0.903799 0.306861
C113  C     C_R   0.859644 0.640356 0.750000 0.801019
C114  C     C_R   0.140356 0.359644 0.250000 0.800929
C115  C     C_R   0.359643 0.859642 0.750000 0.800427
C116  C     C_R   0.640357 0.140357 0.250000 0.800444
C117  C     C_R   0.140356 0.359644 0.750000 0.800839
C118  C     C_R   0.859644 0.640356 0.250000 0.800814
C119  C     C_R   0.640358 0.140357 0.750000 0.800406
C120  C     C_R   0.359642 0.859643 0.250000 0.800169
C121  C     C_R   0.859642 0.359642 0.250000 0.800217
C122  C     C_R   0.499997 1.000000 0.320213 0.795582
C123  C     C_R   0.140357 0.640358 0.750000 0.800324
C124  C     C_R   0.359644 0.140356 0.250000 0.800720
C125  C     C_R   0.640356 0.859644 0.750000 0.800831
C126  C     C_R   0.140358 0.640357 0.250000 0.800157
C127  C     C_R   0.859642 0.359643 0.750000 0.800185
C128  C     C_R   0.640356 0.859644 0.250000 0.800674
C129  C     C_R   0.359644 0.140356 0.750000 0.800761
C130  C     C_R   0.743235 0.310130 0.733504 -0.185881
C131  C     C_R   0.256766 0.689870 0.266496 -0.186054
C132  C     C_R   0.689869 0.743237 0.733504 -0.185701
C133  C     C_R   0.499999 1.000000 0.679787 0.795404
C134  C     C_R   0.310129 0.256761 0.266496 -0.185888
C135  C     C_R   0.256764 0.689869 0.733504 -0.185729
C136  C     C_R   0.743235 0.310132 0.266496 -0.185796
C137  C     C_R   0.310130 0.256761 0.733504 -0.185928
C138  C     C_R   0.689871 0.743239 0.266496 -0.185869
C139  C     C_R   0.743239 0.689871 0.266496 -0.185486
C140  C     C_R   0.256761 0.310130 0.733504 -0.185641
C141  C     C_R   0.689869 0.256766 0.266496 -0.185412
C142  C     C_R   0.310130 0.743235 0.733504 -0.185356
C143  C     C_R   0.256761 0.310129 0.266496 -0.185479
C144  C     C_R   0.000000 0.499999 0.320213 0.795442
C145  C     C_R   0.743238 0.689869 0.733504 -0.185318
C146  C     C_R   0.310131 0.743235 0.266496 -0.185767
C147  C     C_R   0.689870 0.256764 0.733504 -0.185464
C148  C     C_R   0.243234 0.810130 0.233504 -0.186575
C149  C     C_R   0.756765 0.189870 0.766496 -0.186316
C150  C     C_R   0.189870 0.243239 0.233504 -0.184784
C151  C     C_R   0.810130 0.756762 0.766496 -0.184646
C152  C     C_R   0.756765 0.189869 0.233504 -0.186423
C153  C     C_R   0.243236 0.810131 0.766496 -0.186284
C154  C     C_R   0.810129 0.756761 0.233504 -0.185032
C155  C     C_R   1.000000 0.499996 0.679787 0.795546
C156  C     C_R   0.189871 0.243239 0.766496 -0.184723
C157  C     C_R   0.243239 0.189871 0.766496 -0.184677
C158  C     C_R   0.756761 0.810129 0.233504 -0.185060
C159  C     C_R   0.189870 0.756765 0.766496 -0.186243
C160  C     C_R   0.810130 0.243234 0.233504 -0.186376
C161  C     C_R   0.756762 0.810130 0.766496 -0.184614
C162  C     C_R   0.243239 0.189870 0.233504 -0.184751
C163  C     C_R   0.810130 0.243236 0.766496 -0.186286
C164  C     C_R   0.189869 0.756764 0.233504 -0.186477
C165  C     C_R   0.696376 0.196376 0.750000 0.004712
C166  C     C_R   0.065975 0.499811 0.637117 -0.212826
C167  C     C_R   0.303624 0.803624 0.250000 0.004806
C168  C     C_R   0.803625 0.696375 0.750000 0.004235
C169  C     C_R   0.196375 0.303625 0.250000 0.004296
C170  C     C_R   0.303624 0.803624 0.750000 0.004686
C171  C     C_R   0.696375 0.196376 0.250000 0.004714
C172  C     C_R   0.196375 0.303625 0.750000 0.004324
C173  C     C_R   0.803625 0.696375 0.250000 0.004377
C174  C     C_R   0.696375 0.803625 0.250000 0.004389
C175  C     C_R   0.303625 0.196375 0.750000 0.004341
C176  C     C_R   0.803624 0.303624 0.250000 0.004735
H1    H     H_    0.737177 0.356358 0.720610 0.161072
H2    H     H_    0.262815 0.356358 0.720611 0.161179
H3    H     H_    0.643640 0.262825 0.279389 0.161239
H4    H     H_    0.356358 0.737177 0.720610 0.161238
H5    H     H_    0.262815 0.356358 0.279390 0.161243
H6    H     H_    0.737183 0.643640 0.720611 0.161294
H7    H     H_    0.356361 0.737178 0.279390 0.161114
H8    H     H_    0.643640 0.262821 0.720610 0.161200
H9    H     H_    0.237176 0.856359 0.220610 0.160885
H10   H     H_    0.762823 0.143642 0.779390 0.160977
H11   H     H_    0.143642 0.237185 0.220610 0.161559
H12   H     H_    0.262824 0.643641 0.279390 0.161011
H13   H     H_    0.856360 0.762816 0.779390 0.161617
H14   H     H_    0.762822 0.143639 0.220610 0.160874
H15   H     H_    0.237179 0.856360 0.779390 0.160977
H16   H     H_    0.856357 0.762814 0.220610 0.161456
H17   H     H_    0.143642 0.237185 0.779390 0.161605
H18   H     H_    0.237185 0.143642 0.779390 0.161604
H19   H     H_    0.762814 0.856357 0.220610 0.161428
H20   H     H_    0.143642 0.762823 0.779390 0.160976
H21   H     H_    0.856360 0.237176 0.220610 0.160904
H22   H     H_    0.762816 0.856360 0.779390 0.161614
H23   H     H_    0.643640 0.737183 0.720611 0.161162
H24   H     H_    0.237185 0.143642 0.220610 0.161561
H25   H     H_    0.856360 0.237179 0.779390 0.160974
H26   H     H_    0.143640 0.762822 0.220610 0.160878
H27   H     H_    0.117119 0.499744 0.599517 0.141128
H28   H     H_    0.117113 0.499428 0.400484 0.142050
H29   H     H_    0.499370 0.882881 0.599516 0.142189
H30   H     H_    0.499701 0.117100 0.400489 0.141834
H31   H     H_    0.882892 0.499611 0.599513 0.141739
H32   H     H_    0.882883 0.500270 0.400483 0.142150
H33   H     H_    0.500346 0.117114 0.599516 0.141952
H34   H     H_    0.356358 0.262815 0.279390 0.161118
H35   H     H_    0.499679 0.882869 0.400481 0.140977
H36   H     H_    0.617071 0.003119 0.099530 0.141801
H37   H     H_    0.617077 0.002844 0.900470 0.143172
H38   H     H_    0.997149 0.382893 0.099528 0.143009
H39   H     H_    0.997122 0.382897 0.900472 0.143098
H40   H     H_    0.382923 0.996308 0.099533 0.142622
H41   H     H_    0.382901 0.996923 0.900463 0.143114
H42   H     H_    0.002926 0.617076 0.099523 0.142787
H43   H     H_    0.002953 0.617080 0.900478 0.143134
H44   H     H_    0.117674 0.499835 0.647229 0.165514
H45   H     H_    0.262821 0.643640 0.720610 0.161081
H46   H     H_    0.117671 0.499399 0.352773 0.165400
H47   H     H_    0.499337 0.882326 0.647227 0.165511
H48   H     H_    0.500077 0.117671 0.352777 0.165746
H49   H     H_    0.882328 0.499997 0.647226 0.165730
H50   H     H_    0.882329 0.500530 0.352772 0.165503
H51   H     H_    0.500598 0.117672 0.647227 0.165390
H52   H     H_    0.499764 0.882321 0.352769 0.165484
H53   H     H_    0.617625 0.003122 0.147236 0.165541
H54   H     H_    0.617634 0.002725 0.852766 0.165663
H55   H     H_    0.997343 0.382354 0.147232 0.165559
H56   H     H_    0.737177 0.356362 0.279389 0.161103
H57   H     H_    0.997314 0.382355 0.852768 0.165629
H58   H     H_    0.382370 0.996744 0.147239 0.165815
H59   H     H_    0.382358 0.997234 0.852760 0.165666
H60   H     H_    0.002690 0.617635 0.147228 0.165434
H61   H     H_    0.002717 0.617637 0.852773 0.165633
H62   H     H_    0.638168 0.809043 0.978039 0.197013
H63   H     H_    0.554253 0.770174 0.977954 0.202874
H64   H     H_    0.445703 0.228937 0.022442 0.185515
H65   H     H_    0.361483 0.189812 0.022424 0.179407
H66   H     H_    0.190618 0.361579 0.977640 0.179326
H67   H     H_    0.356359 0.262815 0.720611 0.161071
H68   H     H_    0.229643 0.445838 0.977626 0.185389
H69   H     H_    0.770426 0.554062 0.022374 0.186177
H70   H     H_    0.809432 0.638330 0.022360 0.180934
H71   H     H_    0.361444 0.189957 0.977727 0.179384
H72   H     H_    0.445669 0.229066 0.977716 0.185485
H73   H     H_    0.544059 0.788921 0.036979 0.243304
H74   H     H_    0.629172 0.828917 0.037390 0.237626
H75   H     H_    0.809434 0.638335 0.977641 0.181177
H76   H     H_    0.770426 0.554067 0.977625 0.186275
H77   H     H_    0.229643 0.445837 0.022375 0.185193
H78   H     H_    0.643642 0.737186 0.279390 0.161095
H79   H     H_    0.190619 0.361578 0.022359 0.179292
H80   H     H_    0.128039 0.302000 0.478026 0.199904
H81   H     H_    0.042161 0.267677 0.477961 0.202792
H82   H     H_    0.957899 0.731379 0.522441 0.186195
H83   H     H_    0.871691 0.696848 0.522427 0.182117
H84   H     H_    0.731462 0.041607 0.477564 0.185537
H85   H     H_    0.697108 0.127892 0.477573 0.182338
H86   H     H_    0.301843 0.872233 0.521974 0.200011
H87   H     H_    0.267626 0.958162 0.522037 0.203431
H88   H     H_    0.957865 0.731509 0.477717 0.185945
H89   H     H_    0.737186 0.643642 0.279390 0.161255
H90   H     H_    0.871654 0.696991 0.477725 0.182076
H91   H     H_    0.033083 0.287032 0.537020 0.242479
H92   H     H_    0.120251 0.322331 0.537351 0.238361
H93   H     H_    0.286995 0.967203 0.462979 0.242983
H94   H     H_    0.322187 0.879983 0.462648 0.238169
H95   H     H_    0.731588 0.041661 0.522288 0.185308
H96   H     H_    0.697245 0.127948 0.522273 0.181967
N1    N     N_R   0.499983 0.999765 0.931821 -0.365744
N2    N     N_3   0.416063 0.182517 0.027507 -0.376133
N3    N     N_3   0.183269 0.416145 0.972547 -0.376442
N4    N     N_3   0.816793 0.583765 0.027453 -0.376725
N5    N     N_3   0.416014 0.182676 0.972626 -0.376279
N6    N     N_3   0.584541 0.814228 0.025931 -0.469149
N7    N     N_3   0.816794 0.583770 0.972547 -0.375938
N8    N     N_3   0.183269 0.416145 0.027453 -0.376635
N9    N     N_3   0.074194 0.312199 0.472530 -0.369589
N10   N     N_3   0.925801 0.686626 0.527508 -0.376209
N11   N     N_3   0.686776 0.073804 0.472493 -0.376250
N12   N     N_R   0.500001 0.999484 0.068176 -0.356760
N13   N     N_3   0.312109 0.926065 0.527468 -0.369291
N14   N     N_3   0.925754 0.686786 0.472626 -0.376612
N15   N     N_3   0.074820 0.310062 0.525931 -0.466583
N16   N     N_3   0.309975 0.925433 0.474067 -0.466436
N17   N     N_3   0.686929 0.073874 0.527376 -0.376870
N18   N     N_R   0.000041 0.499982 0.931834 -0.367638
N19   N     N_R   0.000041 0.499978 0.068166 -0.367551
N20   N     N_R   0.999995 0.499728 0.431821 -0.365785
N21   N     N_R   0.000012 0.499449 0.568175 -0.356811
N22   N     N_R   0.499464 0.999972 0.431825 -0.356816
N23   N     N_R   0.499740 0.999997 0.568179 -0.365795
N24   N     N_3   0.583864 0.816353 0.972533 -0.369159
O1    O     O_3   0.000000 0.500000 0.750000 -0.468700
O2    O     O_R   1.000000 0.439150 0.192270 -0.644961
O3    O     O_R   0.439150 0.000000 0.807730 -0.644956
O4    O     O_R   0.560850 0.000000 0.192270 -0.645069
O5    O     O_R   0.500000 0.939150 0.307730 -0.645058
O6    O     O_R   0.500000 0.060850 0.692270 -0.645071
O7    O     O_R   0.060850 0.500000 0.307730 -0.645048
O8    O     O_R   0.939150 0.500000 0.692270 -0.645067
O9    O     O_R   0.500000 0.060850 0.307730 -0.645034
O10   O     O_R   0.500000 0.939150 0.692270 -0.644989
O11   O     O_R   0.939150 0.500000 0.307730 -0.644984
O12   O     O_3   1.000000 0.500000 0.250000 -0.468641
O13   O     O_R   0.060850 0.500000 0.692270 -0.645072
O14   O     O_R   0.914360 0.646040 0.764890 -0.648291
O15   O     O_R   0.085640 0.353960 0.235110 -0.648307
O16   O     O_R   0.353960 0.914360 0.764890 -0.648866
O17   O     O_R   0.646040 0.085640 0.235110 -0.648887
O18   O     O_R   0.085640 0.353960 0.764890 -0.648299
O19   O     O_R   0.914360 0.646040 0.235110 -0.648372
O20   O     O_R   0.646040 0.085640 0.764890 -0.648862
O21   O     O_R   0.353960 0.914360 0.235110 -0.648919
O22   O     O_R   0.914360 0.353960 0.235110 -0.648846
O23   O     O_3   0.500000 0.000000 0.750000 -0.468716
O24   O     O_R   0.085640 0.646040 0.764890 -0.648814
O25   O     O_R   0.353960 0.085640 0.235110 -0.648254
O26   O     O_R   0.646040 0.914360 0.764890 -0.648258
O27   O     O_R   0.085640 0.646040 0.235110 -0.648848
O28   O     O_R   0.914360 0.353960 0.764890 -0.648826
O29   O     O_R   0.646040 0.914360 0.235110 -0.648351
O30   O     O_R   0.353960 0.085640 0.764890 -0.648260
O31   O     O_R   0.414360 0.146040 0.264890 -0.648796
O32   O     O_R   0.585640 0.853960 0.735110 -0.648750
O33   O     O_R   0.853960 0.414360 0.264890 -0.648639
O34   O     O_3   0.500000 0.000000 0.250000 -0.468616
O35   O     O_R   0.146040 0.585640 0.735110 -0.648636
O36   O     O_R   0.585640 0.853960 0.264890 -0.648766
O37   O     O_R   0.414360 0.146040 0.735110 -0.648794
O38   O     O_R   0.146040 0.585640 0.264890 -0.648686
O39   O     O_R   0.853960 0.414360 0.735110 -0.648686
O40   O     O_R   0.414360 0.853960 0.735110 -0.648438
O41   O     O_R   0.585640 0.146040 0.264890 -0.648408
O42   O     O_R   0.853960 0.585640 0.735110 -0.648529
O43   O     O_R   0.146040 0.414360 0.264890 -0.648576
O44   O     O_R   0.585640 0.146040 0.735110 -0.648461
O45   O     O_R   0.000000 0.439150 0.807730 -0.644917
O46   O     O_R   0.414360 0.853960 0.264890 -0.648529
O47   O     O_R   0.146040 0.414360 0.735110 -0.648637
O48   O     O_R   0.853960 0.585640 0.264890 -0.648571
O49   O     O_2   0.449853 0.116484 0.930919 -0.526816
O50   O     O_2   0.549705 0.882916 0.069400 -0.583161
O51   O     O_2   0.883283 0.550053 0.930862 -0.526086
O52   O     O_2   0.116798 0.449905 0.069138 -0.526583
O53   O     O_2   0.550144 0.883040 0.930802 -0.529103
O54   O     O_2   0.450118 0.116259 0.069127 -0.528332
O55   O     O_2   0.116797 0.449906 0.930861 -0.526252
O56   O     O_R   0.000000 0.560850 0.192270 -0.645026
O57   O     O_2   0.883281 0.550045 0.069138 -0.527165
O58   O     O_2   0.955402 0.618657 0.430907 -0.527652
O59   O     O_2   0.044223 0.380705 0.569412 -0.583601
O60   O     O_2   0.380661 0.955937 0.430587 -0.583439
O61   O     O_2   0.618728 0.044413 0.569095 -0.527744
O62   O     O_2   0.044615 0.380791 0.430790 -0.529992
O63   O     O_2   0.955638 0.618409 0.569139 -0.528623
O64   O     O_2   0.618483 0.044171 0.430861 -0.528786
O65   O     O_2   0.380742 0.955557 0.569209 -0.529872
O66   O     O_R   0.560850 0.000000 0.807730 -0.644941
O67   O     O_R   0.439150 0.000000 0.192270 -0.645025
O68   O     O_R   0.000000 0.560850 0.807730 -0.644921
Zn1   Zn    Zn3+2 0.913060 0.500000 0.727930 0.971571
Zn2   Zn    Zn3+2 0.586940 0.000000 0.772070 0.971833
Zn3   Zn    Zn3+2 1.000000 0.413060 0.227930 0.971673
Zn4   Zn    Zn3+2 1.000000 0.586940 0.772070 0.971881
Zn5   Zn    Zn3+2 0.586940 0.000000 0.227930 0.971462
Zn6   Zn    Zn3+2 0.413060 0.000000 0.772070 0.971809
Zn7   Zn    Zn3+2 1.000000 0.586940 0.227930 0.971507
Zn8   Zn    Zn3+2 1.000000 0.413060 0.772070 0.971764
Zn9   Zn    Zn3+2 0.086940 0.500000 0.272070 0.971525
Zn10  Zn    Zn3+2 0.500000 0.913060 0.727930 0.971675
Zn11  Zn    Zn3+2 0.500000 0.086940 0.272070 0.971593
Zn12  Zn    Zn3+2 0.086940 0.500000 0.727930 0.971463
Zn13  Zn    Zn3+2 0.913060 0.500000 0.272070 0.971606
Zn14  Zn    Zn3+2 0.500000 0.086940 0.727930 0.971526
Zn15  Zn    Zn3+2 0.500000 0.913060 0.272070 0.971355
Zn16  Zn    Zn3+2 0.413060 0.000000 0.227930 0.971520

loop_
_geom_bond_atom_site_label_1
_geom_bond_atom_site_label_2
_ccdc_geom_bond_type
C64   N13   S    
H81   N9    S    
C118  O19   A    
C155  O13   A    
C134  H34   S    
C19   N22   A    
C55   C59   A    
C133  O6    A    
C73   H30   S    
H84   N11   S    
O13   Zn12  S    
C121  O33   A    
C41   C67   A    
O34   Zn11  S    
C91   H58   S    
C146  H7    S    
C24   C98   A    
C21   O62   S    
C57   C76   A    
C79   C99   A    
C154  C158  A    
O3    Zn6   S    
C162  H24   S    
C70   H27   S    
C131  C146  A    
C78   C108  A    
C17   C39   A    
C18   C40   A    
C152  H14   S    
C134  C143  A    
O23   Zn6   S    
H62   N24   S    
C158  C174  A    
C135  C142  A    
C118  C173  S    
C151  C161  A    
C138  C174  A    
C122  O9    A    
C140  H2    S    
C19   O60   S    
O56   Zn7   S    
C129  O37   A    
C108  N12   S    
C142  C170  A    
O8    Zn1   S    
C149  H10   S    
C39   C65   A    
C36   C62   A    
C37   C63   A    
C3    C123  S    
C38   C64   A    
O45   Zn8   S    
C137  C140  A    
C85   C110  A    
C28   C54   A    
C29   C55   A    
C104  N21   S    
C23   C37   A    
C30   C56   A    
C34   C61   A    
C116  C171  S    
C5    C161  A    
H65   N2    S    
C12   N1    A    
C43   C44   A    
C136  C141  A    
H77   N8    S    
C96   C144  S    
O12   Zn13  S    
C20   C42   A    
C57   C97   A    
C27   C53   A    
C52   N24   S    
C52   C58   A    
C18   N21   A    
C72   C106  A    
O4    Zn5   S    
C75   C105  A    
O21   Zn16  S    
C15   O55   S    
C33   C47   A    
C30   C43   A    
C34   C48   A    
O1    Zn8   S    
C2    C71   A    
C95   C166  A    
C78   H36   S    
C22   C36   A    
O66   Zn2   S    
C68   C77   A    
C127  O39   A    
C163  H25   S    
C35   H49   S    
C11   O52   S    
C114  O43   A    
C88   C102  A    
C68   H52   S    
C160  H21   S    
C38   C51   A    
C13   C72   A    
C83   C91   A    
C15   N18   A    
H88   N14   S    
O23   Zn2   S    
C2    C96   A    
O47   Zn12  S    
C37   C50   A    
C117  C172  S    
C119  O44   A    
C14   O54   S    
C132  H23   S    
C13   C97   A    
C68   C98   A    
C81   C88   A    
O20   Zn2   S    
C82   H39   S    
C137  H67   S    
O7    Zn9   S    
C46   C96   A    
C81   C110  A    
C111  O4    A    
C20   N23   A    
O16   Zn6   S    
C119  O20   A    
C129  C175  S    
C32   C59   A    
C22   N21   A    
H95   N17   S    
C145  C168  A    
C124  O25   A    
C146  C167  A    
C136  C176  A    
H87   N13   S    
C129  O30   A    
C97   C133  S    
C85   H42   S    
C106  N23   S    
C113  C168  S    
C83   H40   S    
C107  N22   S    
C10   N18   A    
O30   Zn6   S    
C55   N4    S    
C125  O26   A    
C126  O38   A    
C132  C145  A    
H76   N7    S    
H66   N3    S    
C137  C175  A    
H96   N17   S    
O24   Zn4   S    
O44   Zn14  S    
C40   C49   A    
C141  C171  A    
C4    C124  S    
O27   Zn7   S    
C79   H53   S    
C7    C130  A    
C147  C165  A    
C87   C101  A    
C85   C93   A    
C27   C44   A    
C5    C132  A    
C142  H4    S    
C63   C69   A    
O1    Zn4   S    
C153  C170  A    
C118  O48   A    
C23   N22   A    
C1    C103  S    
C144  O11   A    
O34   Zn15  S    
C139  H89   S    
H91   N15   S    
C25   N23   A    
C3    C159  A    
O67   Zn16  S    
C115  C170  S    
C46   C75   A    
C74   H31   S    
C93   H60   S    
C71   H28   S    
C135  H45   S    
O39   Zn1   S    
C1    O68   A    
C25   O65   S    
C148  C164  A    
C11   C33   A    
O38   Zn9   S    
C149  C165  A    
C138  C139  A    
O23   Zn10  S    
H63   N24   S    
O12   Zn3   S    
C156  C172  A    
C90   H57   S    
C12   C26   A    
C80   C109  A    
O2    Zn3   S    
C67   N16   S    
C25   C38   A    
H68   N3    S    
C94   H61   S    
C99   C111  S    
O14   Zn4   S    
C21   N20   A    
C120  O21   A    
O26   Zn2   S    
C100  O3    A    
C144  O7    A    
C53   N2    S    
O33   Zn13  S    
C16   N19   A    
C60   N8    S    
C4    C134  A    
C153  H15   S    
C53   C56   A    
C98   C122  S    
C154  H16   S    
C76   C106  A    
O15   Zn3   S    
C56   N5    S    
C128  O29   A    
O36   Zn15  S    
C80   H37   S    
C17   O58   S    
O41   Zn11  S    
C128  C174  S    
C84   C109  A    
O31   Zn11  S    
O43   Zn9   S    
C100  C101  S    
O1    Zn12  S    
H75   N7    S    
C133  O10   A    
C57   H51   S    
O19   Zn7   S    
O32   Zn10  S    
O46   Zn15  S    
O6    Zn14  S    
O1    Zn1   S    
C84   C92   A    
C7    C127  S    
C147  H8    S    
C114  C169  S    
C35   C74   A    
C59   N7    S    
H79   N8    S    
H93   N16   S    
O34   Zn16  S    
C110  N19   S    
H69   N4    S    
H74   N6    S    
C74   C104  A    
C10   O51   S    
C70   C104  A    
C24   C73   A    
C73   C107  A    
C2    H46   S    
C83   C108  A    
O25   Zn16  S    
C1    O45   A    
O37   Zn14  S    
H80   N9    S    
H85   N11   S    
O22   Zn3   S    
C23   O64   S    
C9    O50   S    
C116  O41   A    
C14   C27   A    
C100  O66   A    
C8    N1    A    
C62   C65   A    
C11   N19   A    
C130  C147  A    
C40   C66   A    
C13   H47   S    
C89   O2    A    
C150  C162  A    
C157  H18   S    
O42   Zn1   S    
C6    C126  S    
O17   Zn5   S    
C21   C34   A    
C14   N12   A    
C148  H9    S    
C126  O27   A    
C9    N12   A    
C65   N14   S    
C82   C112  A    
H71   N5    S    
C116  O17   A    
H90   N14   S    
C123  O35   A    
C50   C51   A    
H82   N10   S    
C92   C101  A    
O28   Zn8   S    
C161  H22   S    
C48   C49   A    
C29   C47   A    
C94   C103  A    
C33   C60   A    
C71   C105  A    
H92   N15   S    
O11   Zn13  S    
C4    C162  A    
C166  H44   S    
C41   C50   A    
O23   Zn14  S    
O12   Zn7   S    
C121  O22   A    
C156  C157  A    
C123  O24   A    
C141  H3    S    
H83   N10   S    
C62   N10   S    
C6    C131  A    
C93   C102  A    
C72   H29   S    
C17   N20   A    
C35   C95   A    
C87   H54   S    
C92   H59   S    
C113  O14   A    
C82   C90   A    
C8    C30   A    
C115  O16   A    
C124  O31   A    
C15   C28   A    
O9    Zn11  S    
C7    C163  A    
H64   N2    S    
C3    C135  A    
C86   H43   S    
C6    C164  A    
C90   C103  A    
C84   H41   S    
C150  C169  A    
C88   H55   S    
C125  O32   A    
C128  O36   A    
C138  H78   S    
C109  N1    S    
C36   C49   A    
C19   C41   A    
C120  C167  S    
C61   N9    S    
C39   C48   A    
C76   H33   S    
C111  O67   A    
C152  C160  A    
C89   C102  S    
C122  O5    A    
C112  N18   S    
C63   N11   S    
C54   C60   A    
C115  O40   A    
O5    Zn15  S    
C136  H56   S    
O29   Zn5   S    
C143  H5    S    
C31   C58   A    
C66   N15   S    
C130  H1    S    
C80   C87   A    
C70   C166  A    
C12   O53   S    
C121  C176  S    
C18   O59   S    
C151  C168  A    
H73   N6    S    
C75   H32   S    
C45   C47   A    
C86   C94   A    
C61   C66   A    
C58   N6    S    
C54   N3    S    
C155  O8    A    
C149  C163  A    
C42   C51   A    
C131  H12   S    
C89   O56   A    
C140  C172  A    
O18   Zn8   S    
C160  C176  A    
C26   C43   A    
C117  O18   A    
C24   H48   S    
C159  H20   S    
O40   Zn10  S    
C28   C45   A    
C31   C44   A    
C114  O15   A    
C64   C67   A    
C77   C107  A    
C143  C169  A    
C150  H11   S    
C117  O47   A    
C152  C171  A    
C77   H35   S    
C78   C79   A    
C8    O49   S    
C16   C29   A    
O34   Zn5   S    
C145  H6    S    
C42   C69   A    
O68   Zn4   S    
C153  C159  A    
C86   C112  A    
C26   C52   A    
C81   H38   S    
C46   H50   S    
C32   C45   A    
C127  O28   A    
H72   N5    S    
C164  H26   S    
C157  C175  A    
C139  C173  A    
C5    C125  S    
C119  C165  S    
C154  C173  A    
O10   Zn10  S    
O35   Zn12  S    
H94   N16   S    
O48   Zn13  S    
C148  C167  A    
C158  H19   S    
C91   C99   A    
H70   N4    S    
C156  H17   S    
C105  N20   S    
O12   Zn9   S    
C69   N17   S    
C95   C155  S    
C16   O57   S    
C9    C31   A    
C120  O46   A    
C10   C32   A    
C151  H13   S    
H86   N13   S    
C20   O61   S    
C22   O63   S    
C113  O42   A    
