data_mof_unit_39339.cif
_audit_creation_date              2012-12-11T16:52:12-0500
_audit_creation_method            fapswitch 2.2
_symmetry_space_group_name_H-M    P1
_symmetry_Int_Tables_number       1
_space_group_crystal_system       triclinic
_cell_length_a                    7.257827
_cell_length_b                    26.265111
_cell_length_c                    28.599714
_cell_angle_alpha                 90.000068
_cell_angle_beta                  89.999989
_cell_angle_gamma                 89.937788
_cell_volume                      5451.89253541

loop_
_atom_site_label
_atom_site_type_symbol
_atom_type_description
_atom_site_fract_x
_atom_site_fract_y
_atom_site_fract_z
_atom_type_partial_charge
O1    O     O_R   0.601030 0.796770 0.202460 -0.517958
O2    O     O_R   0.398970 0.203230 0.797540 -0.538498
O3    O     O_R   0.398970 0.203230 0.702460 -0.517961
O4    O     O_R   0.601030 0.796770 0.297540 -0.538513
O5    O     O_R   0.101030 0.703230 0.297540 -0.532273
O6    O     O_R   0.898970 0.296770 0.702460 -0.524947
O7    O     O_R   0.898970 0.296770 0.797540 -0.532274
O8    O     O_R   0.101030 0.703230 0.202460 -0.524950
O9    O     O_R   0.271290 0.802910 0.297210 -0.534501
O10   O     O_R   0.728710 0.197090 0.702790 -0.543613
O11   O     O_R   0.728710 0.197090 0.797210 -0.534510
O12   O     O_R   0.271290 0.802910 0.202790 -0.543613
O13   O     O_R   0.771290 0.697090 0.202790 -0.540301
O14   O     O_R   0.228710 0.302910 0.797210 -0.541985
O15   O     O_R   0.228710 0.302910 0.702790 -0.540303
O16   O     O_R   0.771290 0.697090 0.297210 -0.541994
C1    C     C_R   0.440317 0.814572 0.312731 0.697307
C2    C     C_R   0.559779 0.185162 0.687377 0.713498
C3    C     C_R   0.559683 0.185427 0.812730 0.697343
C4    C     C_R   0.440221 0.814838 0.187377 0.713503
C5    C     C_R   0.940199 0.685164 0.187325 0.715772
C6    C     C_R   0.060028 0.314803 0.812550 0.720001
C7    C     C_R   0.059801 0.314836 0.687325 0.715768
C8    C     C_R   0.939972 0.685197 0.312550 0.719987
O17   O     O_3   0.434520 0.717290 0.250000 -0.381236
O18   O     O_3   0.565480 0.282710 0.750000 -0.381236
O19   O     O_3   0.934520 0.782710 0.250000 -0.378923
O20   O     O_3   0.065480 0.217290 0.750000 -0.378927
V1    V     V_3+5 0.159680 0.756060 0.250000 1.414504
V2    V     V_3+5 0.840320 0.243940 0.750000 1.414493
V3    V     V_3+5 0.659680 0.743940 0.250000 1.412853
V4    V     V_3+5 0.340320 0.256060 0.750000 1.412865
C9    C     C_R   0.944629 0.343632 0.608144 0.280006
C10   C     C_R   0.015258 0.661183 0.395583 0.275975
C11   C     C_R   0.055364 0.656368 0.108144 0.280009
C12   C     C_R   0.984723 0.338817 0.895582 0.275980
C13   C     C_R   0.451120 0.157879 0.892734 0.279026
C14   C     C_R   0.570124 0.845366 0.110306 0.268074
C15   C     C_R   0.548854 0.842117 0.392738 0.279052
C16   C     C_R   0.429878 0.154635 0.610305 0.268078
C17   C     C_R   0.943486 0.379536 0.571674 -0.215053
C18   C     C_R   0.025392 0.624475 0.431302 -0.223772
C19   C     C_R   0.056509 0.620463 0.071674 -0.215054
C20   C     C_R   0.974592 0.375525 0.931301 -0.223774
C21   C     C_R   0.440182 0.119870 0.927512 -0.179028
C22   C     C_R   0.567309 0.880003 0.072918 -0.211935
C23   C     C_R   0.559793 0.880127 0.427515 -0.179005
C24   C     C_R   0.432695 0.119999 0.572916 -0.211935
H1    H     H_    0.870226 0.370266 0.539814 0.114546
H2    H     H_    0.072215 0.635807 0.465742 0.116602
H3    H     H_    0.129764 0.629733 0.039813 0.114547
H4    H     H_    0.927758 0.364193 0.965740 0.116602
H5    H     H_    0.371130 0.127905 0.960186 0.124371
H6    H     H_    0.650818 0.871514 0.042552 0.112548
H7    H     H_    0.628820 0.872093 0.460193 0.124368
H8    H     H_    0.349187 0.128489 0.542550 0.112548
C25   C     C_R   0.032871 0.426814 0.576190 0.090301
C26   C     C_R   0.974768 0.573688 0.423037 0.095386
C27   C     C_R   0.967131 0.573184 0.076191 0.090301
C28   C     C_R   0.025231 0.426311 0.923038 0.095385
C29   C     C_R   0.517073 0.071295 0.920704 0.073770
C30   C     C_R   0.463228 0.925248 0.075044 0.092160
C31   C     C_R   0.482933 0.928706 0.420703 0.073760
C32   C     C_R   0.536777 0.074754 0.575041 0.092160
C33   C     C_R   0.128122 0.436678 0.618184 -0.099037
C34   C     C_R   0.911725 0.560173 0.378213 -0.083954
C35   C     C_R   0.871885 0.563320 0.118186 -0.099033
C36   C     C_R   0.088286 0.439825 0.878215 -0.083955
C37   C     C_R   0.605650 0.061001 0.878003 -0.093813
C38   C     C_R   0.356469 0.933815 0.115516 -0.105938
C39   C     C_R   0.394383 0.939002 0.377999 -0.093806
C40   C     C_R   0.643534 0.066187 0.615514 -0.105937
H9    H     H_    0.191004 0.473280 0.624478 0.152594
H10   H     H_    0.875212 0.521162 0.370451 0.135809
H11   H     H_    0.809008 0.526717 0.124480 0.152592
H12   H     H_    0.124808 0.478836 0.870454 0.135815
H13   H     H_    0.659077 0.023482 0.870477 0.147485
H14   H     H_    0.283866 0.969177 0.120769 0.158026
H15   H     H_    0.340975 0.976523 0.370471 0.147472
H16   H     H_    0.716138 0.030824 0.620766 0.158025
C41   C     C_R   0.140628 0.399670 0.653392 -0.259483
C42   C     C_R   0.897891 0.596748 0.342668 -0.253005
C43   C     C_R   0.859379 0.600329 0.153393 -0.259481
C44   C     C_R   0.102121 0.403251 0.842669 -0.253014
C45   C     C_R   0.623631 0.098812 0.843888 -0.234387
C46   C     C_R   0.344678 0.897097 0.150885 -0.262924
C47   C     C_R   0.376402 0.901191 0.343884 -0.234364
C48   C     C_R   0.655324 0.102904 0.650884 -0.262924
H17   H     H_    0.217505 0.408221 0.684894 0.124551
H18   H     H_    0.849040 0.585348 0.308443 0.116254
H19   H     H_    0.782508 0.591777 0.184896 0.124550
H20   H     H_    0.150982 0.414650 0.808446 0.116256
H21   H     H_    0.693417 0.089790 0.811432 0.121450
H22   H     H_    0.257379 0.904417 0.180876 0.127391
H23   H     H_    0.306638 0.910215 0.311426 0.121443
H24   H     H_    0.742621 0.095583 0.680875 0.127390
C49   C     C_R   0.048650 0.352958 0.649023 -0.062787
C50   C     C_R   0.950574 0.647355 0.350829 -0.051236
C51   C     C_R   0.951350 0.647041 0.149023 -0.062786
C52   C     C_R   0.049424 0.352645 0.850829 -0.051235
C53   C     C_R   0.546436 0.147198 0.850619 -0.089657
C54   C     C_R   0.451427 0.852652 0.148919 -0.066317
C55   C     C_R   0.453566 0.852801 0.350619 -0.089663
C56   C     C_R   0.548573 0.147349 0.648918 -0.066316
C57   C     C_R   0.170655 0.497169 0.524933 0.302845
C58   C     C_R   0.840310 0.503447 0.473354 0.303093
C59   C     C_R   0.829347 0.502829 0.024934 0.302845
C60   C     C_R   0.159692 0.496551 0.973356 0.303092
C61   C     C_R   0.653732 0.001298 0.971600 0.307385
C62   C     C_R   0.321279 0.993659 0.021966 0.305542
C63   C     C_R   0.346277 0.998705 0.471597 0.307384
C64   C     C_R   0.678728 0.006343 0.521964 0.305541
C65   C     C_R   0.152736 0.531638 0.487396 -0.265159
C66   C     C_R   0.856232 0.469909 0.511557 -0.266895
C67   C     C_R   0.847265 0.468361 0.987398 -0.265160
C68   C     C_R   0.143770 0.530089 0.011559 -0.266894
C69   C     C_R   0.638665 0.968535 0.010322 -0.267293
C70   C     C_R   0.337833 0.027223 0.983792 -0.267233
C71   C     C_R   0.361343 0.031468 0.510318 -0.267294
C72   C     C_R   0.662173 0.972778 0.483790 -0.267234
H25   H     H_    0.268390 0.555276 0.477634 0.136681
H26   H     H_    0.738506 0.447170 0.521292 0.134044
H27   H     H_    0.731611 0.444723 0.977636 0.136680
H28   H     H_    0.261495 0.552828 0.021294 0.134045
H29   H     H_    0.758397 0.947175 0.020921 0.133838
H30   H     H_    0.220049 0.049600 0.973260 0.134881
H31   H     H_    0.241610 0.052828 0.520916 0.133838
H32   H     H_    0.779955 0.950400 0.473259 0.134884
C73   C     C_R   0.989028 0.535318 0.461466 0.001896
C74   C     C_R   0.020709 0.465533 0.537433 0.005723
C75   C     C_R   0.010973 0.464681 0.961468 0.001898
C76   C     C_R   0.979293 0.534466 0.037435 0.005723
C77   C     C_R   0.473369 0.963375 0.035678 0.006892
C78   C     C_R   0.503004 0.032073 0.958615 0.004828
C79   C     C_R   0.526638 0.036628 0.535675 0.006891
C80   C     C_R   0.497004 0.967929 0.458613 0.004825
N1    N     N_2   0.843843 0.297666 0.602890 -0.549790
H33   H     H_    0.868605 0.279900 0.571331 0.242020
C81   C     C_3   0.648545 0.303009 0.611779 -0.489775
H34   H     H_    0.583509 0.327521 0.584712 0.175071
H35   H     H_    0.623832 0.319845 0.646856 0.219891
H36   H     H_    0.583059 0.264966 0.610742 0.192770
N2    N     N_2   0.061411 0.712551 0.405562 -0.549910
H37   H     H_    0.008387 0.724845 0.437034 0.249673
C82   C     C_3   0.255879 0.723411 0.402572 -0.492858
H38   H     H_    0.331929 0.702722 0.430461 0.181119
H39   H     H_    0.276248 0.764892 0.407268 0.214035
H40   H     H_    0.312125 0.712292 0.367968 0.221867
N3    N     N_2   0.156139 0.702335 0.102887 -0.549792
H41   H     H_    0.131367 0.720101 0.071329 0.242022
C83   C     C_3   0.351440 0.696996 0.111775 -0.489787
H42   H     H_    0.416476 0.672484 0.084708 0.175073
H43   H     H_    0.376163 0.680162 0.146852 0.219894
H44   H     H_    0.416917 0.735040 0.110736 0.192766
N4    N     N_2   0.938552 0.287450 0.905559 -0.549910
H45   H     H_    0.991565 0.275154 0.937031 0.249670
C84   C     C_3   0.744082 0.276596 0.902565 -0.492865
H46   H     H_    0.668034 0.297284 0.930454 0.181108
H47   H     H_    0.723699 0.235115 0.907256 0.214025
H48   H     H_    0.687848 0.287722 0.867960 0.221872
N5    N     N_2   0.368808 0.206833 0.899550 -0.529174
H49   H     H_    0.261054 0.215019 0.877312 0.283820
C85   C     C_3   0.344749 0.225842 0.946693 -0.610909
H50   H     H_    0.222994 0.207718 0.963285 0.196249
H51   H     H_    0.322417 0.267628 0.945481 0.205972
H52   H     H_    0.470013 0.218561 0.968017 0.203976
N6    N     N_2   0.695069 0.803691 0.109022 -0.542688
H53   H     H_    0.693677 0.784464 0.077568 0.237691
C86   C     C_3   0.880539 0.817220 0.122905 -0.460723
H54   H     H_    0.945998 0.841610 0.095836 0.171645
H55   H     H_    0.963675 0.782217 0.127294 0.208622
H56   H     H_    0.880070 0.837850 0.156832 0.208976
N7    N     N_2   0.631118 0.793158 0.399562 -0.529209
H57   H     H_    0.738805 0.784946 0.377311 0.283824
C87   C     C_3   0.655223 0.774160 0.446706 -0.610900
H58   H     H_    0.777000 0.792286 0.463286 0.196265
H59   H     H_    0.677544 0.732373 0.445503 0.205952
H60   H     H_    0.529980 0.781448 0.468038 0.203977
N8    N     N_2   0.304934 0.196311 0.609021 -0.542690
H61   H     H_    0.306328 0.215538 0.577568 0.237692
C88   C     C_3   0.119464 0.182782 0.622903 -0.460727
H62   H     H_    0.054006 0.158391 0.595834 0.171647
H63   H     H_    0.036327 0.217784 0.627292 0.208618
H64   H     H_    0.119929 0.162152 0.656830 0.208977
N9    N     N_2   0.344068 0.491085 0.547307 -0.529961
H65   H     H_    0.436554 0.470882 0.527376 0.258113
C89   C     C_3   0.421791 0.536292 0.568475 -0.590686
H66   H     H_    0.543201 0.525406 0.589884 0.208390
H67   H     H_    0.318975 0.554885 0.591671 0.201336
H68   H     H_    0.467627 0.563705 0.541352 0.186897
N10   N     N_2   0.670667 0.507780 0.448825 -0.522156
H69   H     H_    0.570516 0.526224 0.467792 0.258692
C90   C     C_3   0.605301 0.461763 0.426524 -0.579666
H70   H     H_    0.485436 0.471066 0.403959 0.206645
H71   H     H_    0.560775 0.433442 0.453020 0.183532
H72   H     H_    0.715158 0.444960 0.404280 0.199753
N11   N     N_2   0.655935 0.508913 0.047310 -0.529959
H73   H     H_    0.563447 0.529115 0.027379 0.258113
C91   C     C_3   0.578216 0.463706 0.068478 -0.590684
H74   H     H_    0.456807 0.474591 0.089887 0.208390
H75   H     H_    0.681035 0.445113 0.091674 0.201335
H76   H     H_    0.532380 0.436292 0.041355 0.186897
N12   N     N_2   0.329336 0.492218 0.948828 -0.522158
H77   H     H_    0.429484 0.473772 0.967795 0.258692
C92   C     C_3   0.394708 0.538234 0.926527 -0.579672
H78   H     H_    0.514572 0.528930 0.903962 0.206646
H79   H     H_    0.439235 0.566554 0.953023 0.183533
H80   H     H_    0.284853 0.555038 0.904283 0.199754
N13   N     N_2   0.824695 0.005980 0.947829 -0.526597
H81   H     H_    0.922403 0.024839 0.967114 0.260290
C93   C     C_3   0.893227 0.960049 0.925870 -0.587769
H82   H     H_    0.015780 0.969446 0.904314 0.207422
H83   H     H_    0.786272 0.943367 0.902700 0.200757
H84   H     H_    0.934355 0.931499 0.952516 0.185271
N14   N     N_2   0.147523 0.987482 0.044003 -0.533818
H85   H     H_    0.056014 0.967455 0.023777 0.258634
C94   C     C_3   0.069426 0.032673 0.065258 -0.595734
H86   H     H_    0.945629 0.021926 0.085799 0.208482
H87   H     H_    0.027540 0.060746 0.038289 0.188141
H88   H     H_    0.170742 0.050583 0.089274 0.201714
N15   N     N_2   0.175317 0.994024 0.447824 -0.526590
H89   H     H_    0.077604 0.975166 0.467108 0.260289
C95   C     C_3   0.106792 0.039955 0.425864 -0.587759
H90   H     H_    0.984242 0.030558 0.404307 0.207421
H91   H     H_    0.213752 0.056636 0.402695 0.200756
H92   H     H_    0.065660 0.068505 0.452510 0.185268
N16   N     N_2   0.852485 0.012522 0.544000 -0.533817
H93   H     H_    0.943990 0.032549 0.523774 0.258633
C96   C     C_3   0.930588 0.967332 0.565255 -0.595734
H94   H     H_    0.054383 0.978080 0.585795 0.208483
H95   H     H_    0.972479 0.939259 0.538285 0.188141
H96   H     H_    0.829274 0.949420 0.589270 0.201713

loop_
_geom_bond_atom_site_label_1
_geom_bond_atom_site_label_2
_ccdc_geom_bond_type
O17   V3    S    
C58   C73   A    
N12   H77   S    
C48   H24   S    
O18   V4    S    
C84   H46   S    
O12   V1    S    
N4    C84   S    
C86   H55   S    
C86   H54   S    
C37   H13   S    
C85   H50   S    
C10   C18   A    
C15   N7    S    
C69   C77   A    
C62   C70   A    
C39   H15   S    
N5    H49   S    
C95   H92   S    
C61   C69   A    
O15   V4    S    
N6    C86   S    
C67   C75   A    
C92   H78   S    
O16   V3    S    
C35   C43   A    
N12   C92   S    
O11   C3    A    
N15   H89   S    
C65   C73   A    
O12   C4    A    
C58   C66   A    
C8    C50   S    
O8    V1    S    
C30   C77   S    
C57   C65   A    
C85   H51   S    
C20   C28   A    
C96   H96   S    
N14   C94   S    
C23   C31   A    
C5    C51   S    
C81   H36   S    
C61   N13   S    
C63   C80   A    
N9    C89   S    
C38   H14   S    
C26   C73   S    
N2    H37   S    
C34   H10   S    
N2    C82   S    
O1    V3    S    
C33   H9    S    
O19   V1    S    
C30   C38   A    
O3    C2    A    
O2    V4    S    
C63   N15   S    
C83   H44   S    
C57   N9    S    
N11   C91   S    
C16   C24   A    
C89   H68   S    
C46   H22   S    
C27   C35   A    
C19   H3    S    
C45   H21   S    
C26   C34   A    
C68   H28   S    
C95   H90   S    
O11   V2    S    
C9    N1    S    
C60   C75   A    
C47   H23   S    
C91   H76   S    
C83   H42   S    
C11   C19   A    
C94   H87   S    
C70   C78   A    
C19   C27   A    
C41   H17   S    
C20   H4    S    
O15   C7    A    
C40   C48   A    
C32   C79   S    
C21   H5    S    
C91   H74   S    
O16   C8    A    
O7    V2    S    
C43   C51   A    
C83   H43   S    
C66   C74   A    
C18   C26   A    
N11   H73   S    
C58   N10   S    
C11   C51   A    
C28   C75   S    
C17   H1    S    
N5    C85   S    
C29   C78   S    
C82   H38   S    
C87   H60   S    
O5    V1    S    
C92   H79   S    
C14   N6    S    
C27   C76   S    
C10   N2    S    
C67   H27   S    
C82   H39   S    
N10   H69   S    
C44   C52   A    
C25   C74   S    
C85   H52   S    
C6    C52   S    
C87   H59   S    
C88   H63   S    
O14   V4    S    
N6    H53   S    
C64   C72   A    
C90   H71   S    
C94   H86   S    
C88   H62   S    
C15   C23   A    
C71   C79   A    
C64   N16   S    
C94   H88   S    
C36   C44   A    
C84   H47   S    
N14   H85   S    
N10   C90   S    
C93   H82   S    
C96   H94   S    
C87   H58   S    
C16   C56   A    
C16   N8    S    
N1    C81   S    
O10   V2    S    
C33   C41   A    
N16   H93   S    
C68   C76   A    
C90   H72   S    
C22   H6    S    
C95   H91   S    
N13   H81   S    
O13   C5    A    
C12   C52   A    
C2    C56   S    
C81   H35   S    
C44   H20   S    
C59   C67   A    
N7    C87   S    
C18   H2    S    
C47   C55   A    
O4    C1    A    
C63   C71   A    
O9    C1    A    
C7    C49   S    
C31   C39   A    
C84   H48   S    
C59   N11   S    
C39   C47   A    
C96   H95   S    
C86   H56   S    
C93   H83   S    
C12   C20   A    
C35   H11   S    
C64   C79   A    
C13   C21   A    
C89   H67   S    
C38   C46   A    
C82   H40   S    
C37   C45   A    
C13   N5    S    
C23   H7    S    
C92   H80   S    
C29   C37   A    
O2    C3    A    
C24   H8    S    
N13   C93   S    
O1    C4    A    
C88   H64   S    
O6    V2    S    
C61   C78   A    
O13   V3    S    
C22   C30   A    
C25   C33   A    
C59   C76   A    
O8    C5    A    
C81   H34   S    
C72   H32   S    
C15   C55   A    
C57   C74   A    
O9    V1    S    
C36   H12   S    
O7    C6    A    
C43   H19   S    
N1    H33   S    
C42   H18   S    
N15   C95   S    
C9    C17   A    
C31   C80   S    
O14   C6    A    
N3    C83   S    
C62   N14   S    
C1    C55   S    
C17   C25   A    
C89   H66   S    
C14   C54   A    
N16   C96   S    
N3    H41   S    
C13   C53   A    
C3    C53   S    
C4    C54   S    
C60   C68   A    
N9    H65   S    
O5    C8    A    
C41   C49   A    
O10   C2    A    
C21   C29   A    
O6    C7    A    
O20   V2    S    
C10   C50   A    
C9    C49   A    
C32   C40   A    
O3    V4    S    
C70   H30   S    
C42   C50   A    
C14   C22   A    
O4    V3    S    
C24   C32   A    
C45   C53   A    
N7    H57   S    
N8    H61   S    
C66   H26   S    
C93   H84   S    
C65   H25   S    
C28   C36   A    
C40   H16   S    
C90   H70   S    
N4    H45   S    
C91   H75   S    
C62   C77   A    
C11   N3    S    
C72   C80   A    
C69   H29   S    
C48   C56   A    
C34   C42   A    
C12   N4    S    
C71   H31   S    
N8    C88   S    
C60   N12   S    
C46   C54   A    
