data_mof_unit_22065.cif
_audit_creation_date              2012-12-10T16:50:01-0500
_audit_creation_method            fapswitch 2.2
_symmetry_space_group_name_H-M    P1
_symmetry_Int_Tables_number       1
_space_group_crystal_system       triclinic
_cell_length_a                    7.798204
_cell_length_b                    8.562459
_cell_length_c                    10.598377
_cell_angle_alpha                 91.152128
_cell_angle_beta                  85.534078
_cell_angle_gamma                 93.679597
_cell_volume                      703.988495951

loop_
_atom_site_label
_atom_site_type_symbol
_atom_type_description
_atom_site_fract_x
_atom_site_fract_y
_atom_site_fract_z
_atom_type_partial_charge
C1    C     C_R   0.545712 0.794620 0.496915 0.920054
C2    C     C_R   0.454302 0.205370 0.503252 0.939757
C3    C     C_R   0.498990 0.502772 0.260733 0.837728
C4    C     C_R   0.422878 0.788810 0.877396 -0.134817
C5    C     C_R   0.380621 0.922263 0.947769 -0.126524
C6    C     C_R   0.375987 0.920964 0.079312 -0.139487
C7    C     C_R   0.413571 0.786207 0.140886 -0.173451
C8    C     C_R   0.455780 0.649635 0.070866 0.090910
C9    C     C_R   0.460546 0.650997 0.938519 0.093593
C10   C     C_R   0.507184 0.514429 0.871293 -0.071347
C11   C     C_R   0.554021 0.382017 0.930469 -0.198416
C12   C     C_R   0.549443 0.380668 0.059528 -0.210868
C13   C     C_R   0.498222 0.511773 0.128554 -0.076785
C14   C     C_2   0.569685 0.958192 0.495098 -0.374702
C15   C     C_2   0.430307 0.041768 0.505182 -0.392855
C16   C     C_R   0.502259 0.504027 0.739200 0.845821
F1    F     F_    0.970357 0.642131 0.613147 -0.535116
H1    H     H_    0.590272 0.278585 0.876585 0.149349
H2    H     H_    0.428103 0.795402 0.775374 0.146443
H3    H     H_    0.352563 0.027242 0.900072 0.141419
H4    H     H_    0.344291 0.024931 0.133788 0.137115
H5    H     H_    0.411015 0.790827 0.242971 0.147182
H6    H     H_    0.583882 0.276661 0.106038 0.148500
H7    H     H_    0.701312 0.009276 0.485424 0.194494
H8    H     H_    0.298682 0.990661 0.514853 0.201479
H9    H     H_    0.013180 0.381546 0.405373 0.134272
N1    N     N_2   0.950330 0.457950 0.466250 -0.088475
N2    N     N_2   0.049670 0.542050 0.533750 0.204877
O1    O     O_R   0.389250 0.738570 0.508280 -0.612291
O2    O     O_R   0.678390 0.711630 0.486650 -0.562138
O3    O     O_R   0.355400 0.513470 0.694050 -0.601092
O4    O     O_R   0.644540 0.486530 0.672420 -0.555607
O5    O     O_R   0.321610 0.288370 0.513350 -0.642676
O6    O     O_R   0.610750 0.261430 0.491720 -0.623147
O7    O     O_R   0.355460 0.513470 0.327580 -0.647612
O8    O     O_R   0.644600 0.486530 0.305950 -0.618506
Zn1   Zn    Zn3+2 0.306930 0.517990 0.514440 1.020921
Zn2   Zn    Zn3+2 0.693070 0.482010 0.485560 1.031998

loop_
_geom_bond_atom_site_label_1
_geom_bond_atom_site_label_2
_ccdc_geom_bond_type
C11   C12   A    
C11   H1    S    
C6    C7    A    
O4    Zn2   S    
C16   O4    A    
C7    H5    S    
C9    C10   A    
C3    C13   S    
C3    O7    A    
C2    O6    A    
O8    Zn2   S    
C7    C8    A    
C5    H3    S    
C10   C16   S    
C6    H4    S    
C16   O3    A    
C2    C15   S    
C4    H2    S    
C12   H6    S    
H9    N1    S    
C8    C13   A    
C3    O8    A    
N2    Zn1   S    
C2    O5    A    
C1    O1    A    
C1    O2    A    
O7    Zn1   S    
C5    C6    A    
C15   H8    S    
C10   C11   A    
N1    Zn2   S    
O1    Zn1   S    
C12   C13   A    
O2    Zn2   S    
C14   H7    S    
N1    N2    D    
C14   C15   D    
C8    C9    A    
C1    C14   S    
C4    C9    A    
O6    Zn2   S    
F1    N2    S    
O5    Zn1   S    
O3    Zn1   S    
C4    C5    A    
