data_mof_unit_14607.cif
_audit_creation_date              2013-03-05T15:51:40-0500
_audit_creation_method            fapswitch 2.2
_symmetry_space_group_name_H-M    P1
_symmetry_Int_Tables_number       1
_space_group_crystal_system       triclinic
_cell_length_a                    11.684126
_cell_length_b                    11.677517
_cell_length_c                    19.503952
_cell_angle_alpha                 90.141884
_cell_angle_beta                  89.573473
_cell_angle_gamma                 60.236803
_cell_volume                      2309.98068679

loop_
_atom_site_label
_atom_site_type_symbol
_atom_site_description
_atom_site_fract_x
_atom_site_fract_y
_atom_site_fract_z
_atom_type_partial_charge
O1    O     O_R   0.267750 0.231960 0.575440 -0.509427
O2    O     O_R   0.527290 0.186640 0.570530 -0.500796
C1    C     C_R   0.639782 0.116403 0.599224 0.530825
O3    O     O_R   0.728110 0.003450 0.576380 -0.507460
O4    O     O_R   0.682980 0.789190 0.570500 -0.507256
C2    C     C_R   0.611414 0.747002 0.598524 0.527021
O5    O     O_R   0.499300 0.771880 0.575540 -0.503390
O6    O     O_R   0.285350 0.030870 0.569740 -0.506433
C3    C     C_R   0.241583 0.144783 0.598006 0.523350
O7    O     O_R   0.270960 0.227070 0.423890 -0.462677
O8    O     O_R   0.530270 0.182120 0.430040 -0.409445
C4    C     C_R   0.648242 0.112530 0.403750 0.571181
O9    O     O_R   0.731320 0.998570 0.424830 -0.497732
O10   O     O_R   0.685950 0.784660 0.430010 -0.465482
C5    C     C_R   0.618973 0.731676 0.405528 0.565439
O11   O     O_R   0.502510 0.767000 0.423980 -0.440242
O12   O     O_R   0.288320 0.026340 0.429250 -0.419282
C6    C     C_R   0.237154 0.145981 0.403623 0.603108
Cr1   Cr    Cr6+3 0.404720 0.198220 0.499960 1.131367
Cr2   Cr    Cr6+3 0.698290 0.897110 0.500380 1.085489
Cr3   Cr    Cr6+3 0.396970 0.904720 0.499610 1.134496
O13   O     O_3   0.499990 0.000020 0.499980 -0.289278
C7    C     C_1   0.671465 0.646005 0.860256 0.014089
C8    C     C_1   0.653956 0.683831 0.728338 -0.026429
C9    C     C_1   0.663844 0.666486 0.799704 -0.026371
C10   C     C_1   0.639752 0.704411 0.667852 0.012141
C11   C     C_1   0.126471 0.199989 0.859466 0.014800
C12   C     C_1   0.171554 0.170120 0.727699 -0.026667
C13   C     C_1   0.150129 0.182983 0.799035 -0.025702
C14   C     C_1   0.195504 0.160238 0.667240 0.011811
C15   C     C_1   0.679849 0.191243 0.860870 0.012970
C16   C     C_1   0.658680 0.166572 0.728997 -0.026008
C17   C     C_1   0.666563 0.180526 0.800411 -0.025047
C18   C     C_1   0.652540 0.148895 0.668568 0.011405
C19   C     C_R   0.702813 0.574362 0.206479 -0.013488
C20   C     C_R   0.586802 0.604258 0.239156 -0.065135
C21   C     C_R   0.567987 0.628854 0.307746 -0.048555
C22   C     C_R   0.791900 0.580475 0.319612 0.268501
C23   C     C_R   0.809498 0.555920 0.248245 0.238334
C24   C     C_3   0.446180 0.688986 0.218902 0.146613
C25   C     C_3   0.420276 0.701742 0.296323 0.396449
C26   C     C_R   0.662439 0.641330 0.346666 -0.051950
H1    H     H_    0.401132 0.639076 0.190811 0.183983
C27   C     C_R   0.128999 0.195674 0.195282 0.022128
C28   C     C_R   0.145668 0.288559 0.229867 0.079079
C29   C     C_R   0.149122 0.294461 0.299735 -0.002922
C30   C     C_R   0.109752 0.114880 0.309079 -0.111628
C31   C     C_R   0.110049 0.103277 0.236516 0.191657
C32   C     C_3   0.222163 0.355906 0.214174 0.444210
C33   C     C_3   0.215911 0.376188 0.291425 0.215846
C34   C     C_R   0.158043 0.189748 0.339856 -0.012599
H2    H     H_    0.083542 0.056734 0.341324 0.188618
H3    H     H_    0.150811 0.480353 0.308204 0.210604
C35   C     C_R   0.662565 0.188815 0.192281 0.019374
C36   C     C_R   0.712056 0.062094 0.216905 0.007061
C37   C     C_R   0.712129 0.038862 0.286023 0.021211
C38   C     C_R   0.618081 0.269484 0.310403 -0.053729
C39   C     C_R   0.597009 0.293519 0.239901 0.257427
C40   C     C_3   0.836672 0.936840 0.202604 0.116066
C41   C     C_3   0.835428 0.907757 0.278890 0.131197
C42   C     C_R   0.675158 0.140175 0.334529 -0.041839
H4    H     H_    0.577546 0.351305 0.346223 0.194764
H5    H     H_    0.918033 0.952739 0.187188 0.192631
H6    H     H_    0.918532 0.901681 0.308850 0.200974
O14   O     O_R   0.821590 0.119350 0.952850 -0.484014
O15   O     O_R   0.037230 0.162540 0.957390 -0.485348
C43   C     C_R   0.081028 0.232031 0.928752 0.545236
O16   O     O_R   0.056530 0.344750 0.951370 -0.503780
O17   O     O_R   0.798000 0.560370 0.957490 -0.482336
C44   C     C_R   0.684611 0.603670 0.929665 0.570675
O18   O     O_R   0.596230 0.579400 0.952760 -0.487135
O19   O     O_R   0.639160 0.321170 0.958690 -0.499083
C45   C     C_R   0.709539 0.207194 0.930165 0.551233
O20   O     O_R   0.821370 0.124220 0.104400 -0.496378
O21   O     O_R   0.037020 0.167050 0.097880 -0.454902
C46   C     C_R   0.082168 0.234190 0.125311 0.547099
O22   O     O_R   0.056310 0.349620 0.102920 -0.461877
O23   O     O_R   0.797790 0.564880 0.097980 -0.444312
C47   C     C_R   0.709679 0.550462 0.132754 0.585739
O24   O     O_R   0.596000 0.584270 0.104310 -0.462194
O25   O     O_R   0.638950 0.325690 0.099180 -0.520195
C48   C     C_R   0.706908 0.211546 0.126353 0.528335
Cr4   Cr    Cr6+3 0.926290 0.152010 0.028150 1.124399
Cr5   Cr    Cr6+3 0.921440 0.451830 0.027490 1.125308
Cr6   Cr    Cr6+3 0.626370 0.446880 0.028730 1.070549
O26   O     O_3   0.824700 0.350240 0.028120 -0.331169
O27   O     O_3   0.898605 0.560889 0.358184 -0.626935
H7    H     H_    0.876635 0.560030 0.407269 0.317203
O28   O     O_3   0.347609 0.268826 0.186648 -0.650941
H8    H     H_    0.334266 0.255255 0.137765 0.345635
N1    N     N_R   0.343393 0.316364 0.321605 0.101171
O29   O     O_R   0.422039 0.190186 0.312986 -0.290268
O30   O     O_R   0.360023 0.379842 0.371629 -0.277326
O31   O     O_3   0.506129 0.417545 0.219970 -0.702596
H9    H     H_    0.463261 0.410509 0.177817 0.358833
N2    N     N_R   0.820758 0.848565 0.155160 0.090912
O32   O     O_R   0.704094 0.869069 0.139473 -0.263844
O33   O     O_R   0.919999 0.771336 0.115800 -0.293042
O34   O     O_3   0.813642 0.802589 0.292380 -0.597716
H10   H     H_    0.724279 0.826044 0.276067 0.367065
O35   O     O_3   0.926401 0.530905 0.220317 -0.624296
H11   H     H_    0.906153 0.602326 0.187480 0.417433
N3    N     N_R   0.428050 0.807087 0.182142 0.120489
O36   O     O_R   0.496196 0.863539 0.198408 -0.250888
O37   O     O_R   0.379724 0.827237 0.120705 -0.243761
N4    N     N_R   0.346661 0.834875 0.322769 0.121395
O38   O     O_R   0.388566 0.918137 0.313512 -0.304245
O39   O     O_R   0.257119 0.858106 0.369285 -0.282386
N5    N     N_R   0.363841 0.622338 0.321596 0.117022
O40   O     O_R   0.265596 0.624754 0.289381 -0.293831
O41   O     O_R   0.381095 0.588242 0.385813 -0.283560
N6    N     N_R   0.107576 0.988610 0.209627 0.061649
O42   O     O_R   0.132789 0.952142 0.145886 -0.252131
O43   O     O_R   0.107576 0.903095 0.252161 -0.354436
O44   O     O_3   0.155764 0.473668 0.177323 -0.623178
H12   H     H_    0.212365 0.514730 0.178934 0.361474

loop_
_geom_bond_atom_site_label_1
_geom_bond_atom_site_label_2
_geom_bond_distance
_ccdc_geom_bond_type
C36   C37   1.375669 A    
O35   H11   0.985281 S    
C36   C40   1.488197 S    
C11   C13   1.201894 T    
C19   C20   1.371734 A    
O20   Cr4   2.046961 S    
O27   H7    0.990680 S    
C41   O34   1.397577 S    
N6    O43   1.299830 A    
O19   Cr6   1.952599 S    
C38   H4    1.080648 S    
O4    Cr2   1.928544 S    
C2    C10   1.425435 S    
C28   C29   1.366183 A    
O8    Cr1   1.934454 S    
O11   Cr3   2.067637 S    
C12   C13   1.406233 S    
C8    C10   1.200738 T    
C22   C26   1.410873 A    
N5    O41   1.301701 A    
C22   C23   1.413229 A    
C15   C45   1.432323 S    
N4    O38   1.299956 A    
O44   H12   0.991637 S    
O14   C45   1.280461 A    
C21   C26   1.409583 A    
C27   C46   1.460799 S    
O15   Cr4   1.931963 S    
O18   Cr6   2.047519 S    
C24   H1    1.106422 S    
O34   H10   0.993931 S    
O6    C3    1.285198 A    
N2    O33   1.300880 A    
C15   C17   1.204791 T    
C44   O18   1.278238 A    
O15   C43   1.281659 A    
C40   C41   1.528529 S    
C25   N5    1.463553 S    
Cr3   O13   2.004362 S    
C7    C44   1.425370 S    
O17   C44   1.285446 A    
O20   C48   1.283399 A    
N6    O42   1.296557 A    
C6    C34   1.487839 S    
C23   O35   1.356359 S    
O1    Cr1   2.054194 S    
C33   H3    1.113999 S    
C25   N4    1.443832 S    
C43   O16   1.276830 A    
O16   Cr5   2.062879 S    
O10   Cr2   1.952140 S    
C20   C24   1.494045 S    
Cr1   O13   2.009488 S    
O1    C3    1.277792 A    
C8    C9    1.404401 S    
N1    O29   1.302269 A    
O23   C47   1.307849 A    
C30   C34   1.391122 A    
O22   Cr5   2.061085 S    
Cr6   O26   2.011658 S    
C29   C34   1.413434 A    
O25   C48   1.283356 A    
C37   C41   1.498295 S    
C16   C18   1.204829 T    
C19   C23   1.418882 A    
O21   C46   1.261726 A    
O24   Cr6   2.070796 S    
N1    O30   1.296682 A    
C30   C31   1.421210 A    
C28   C32   1.485262 S    
O7    Cr1   2.066776 S    
N2    O32   1.300599 A    
O12   C6    1.318263 A    
N3    O37   1.299853 A    
C11   C43   1.427455 S    
C46   O22   1.303643 A    
C2    O5    1.277843 A    
C3    C14   1.427350 S    
C24   C25   1.530114 S    
C32   O44   1.401266 S    
Cr2   O13   2.012073 S    
C40   N2    1.463415 S    
C1    O3    1.281457 A    
C35   C48   1.456241 S    
C27   C28   1.370229 A    
C35   C39   1.413599 A    
C35   C36   1.383078 A    
C20   C21   1.360689 A    
O9    Cr2   2.044045 S    
C31   N6    1.450521 S    
O2    Cr1   1.949801 S    
C37   C42   1.400824 A    
C5    C26   1.463662 S    
C32   O28   1.405859 S    
O19   C45   1.288444 A    
O6    Cr3   1.948818 S    
O8    C4    1.303298 A    
C38   C42   1.398102 A    
C30   H2    1.075194 S    
C29   C33   1.511417 S    
C40   H5    1.095368 S    
C1    C18   1.432471 S    
C22   O27   1.379999 S    
C41   H6    1.108865 S    
C16   C17   1.410953 S    
C12   C14   1.201862 T    
O2    C1    1.287019 A    
C39   O31   1.363203 S    
O17   Cr5   1.942573 S    
O5    Cr3   2.055571 S    
N5    O40   1.300755 A    
C24   N3    1.475810 S    
C4    C42   1.456877 S    
O21   Cr4   1.950633 S    
C38   C39   1.403038 A    
O4    C2    1.282258 A    
N4    O39   1.301590 A    
O7    C6    1.257273 A    
C5    O11   1.259380 A    
C19   C47   1.458089 S    
C7    C9    1.200718 T    
C21   C25   1.516885 S    
O31   H9    0.990047 S    
O12   Cr3   1.938395 S    
O14   Cr4   2.070290 S    
C47   O24   1.311214 A    
O3    Cr2   2.070938 S    
O23   Cr5   1.946296 S    
C33   N1    1.426592 S    
Cr4   O26   2.009833 S    
C4    O9    1.268215 A    
C32   C33   1.520182 S    
N3    O36   1.301177 A    
O10   C5    1.306930 A    
Cr5   O26   2.004073 S    
O28   H8    0.992172 S    
O25   Cr6   1.928347 S    
C27   C31   1.448739 A    
