data_mof_unit_29112.cif
_audit_creation_date              2013-03-05T16:29:48-0500
_audit_creation_method            fapswitch 2.2
_symmetry_space_group_name_H-M    P1
_symmetry_Int_Tables_number       1
_space_group_crystal_system       triclinic
_cell_length_a                    19.403916
_cell_length_b                    18.287792
_cell_length_c                    9.071362
_cell_angle_alpha                 89.941043
_cell_angle_beta                  92.539288
_cell_angle_gamma                 90.090488
_cell_volume                      3215.8498456

loop_
_atom_site_label
_atom_site_type_symbol
_atom_site_description
_atom_site_fract_x
_atom_site_fract_y
_atom_site_fract_z
_atom_type_partial_charge
O1    O     O_R   0.400190 0.561980 0.499980 -0.613294
O2    O     O_R   0.599810 0.438020 0.500020 -0.608797
O3    O     O_R   0.599810 0.561980 0.500020 -0.610329
O4    O     O_R   0.400190 0.438020 0.499980 -0.600947
C1    C     C_R   0.367732 0.499984 0.499894 0.779605
C2    C     C_R   0.632437 0.500063 0.500882 0.787954
O5    O     O_R   0.500000 0.561940 0.288400 -0.574032
O6    O     O_R   0.500000 0.438060 0.711600 -0.558315
O7    O     O_R   0.500000 0.561940 0.711600 -0.581526
O8    O     O_R   0.500000 0.438060 0.288400 -0.571385
C3    C     C_R   0.499806 0.500022 0.220629 0.844465
C4    C     C_R   0.500182 0.499978 0.779370 0.845639
Cu1   Cu    Cu3+1 0.500000 0.573360 0.500000 0.963574
Cu2   Cu    Cu3+1 0.500000 0.426640 0.500000 0.972922
C5    C     C_1   0.499919 0.500030 0.065545 -0.081941
C6    C     C_1   0.500055 0.499969 0.934453 -0.079156
C7    C     C_R   0.744741 0.434221 0.495067 -0.175302
C8    C     C_R   0.253995 0.442875 0.435170 -0.169847
C9    C     C_R   0.258074 0.557953 0.568646 -0.170393
C10   C     C_R   0.744751 0.566638 0.512978 -0.161467
H1    H     H_    0.717928 0.382302 0.487035 0.151744
H2    H     H_    0.279331 0.397928 0.382326 0.135505
H3    H     H_    0.286810 0.602446 0.620955 0.166996
H4    H     H_    0.717997 0.618378 0.519233 0.158887
C11   C     C_R   0.816555 0.434592 0.496613 -0.048253
C12   C     C_R   0.182214 0.443939 0.434408 -0.033116
C13   C     C_R   0.186350 0.557902 0.571480 -0.036721
C14   C     C_R   0.816544 0.566865 0.515304 -0.036619
H5    H     H_    0.844078 0.383323 0.489300 0.155691
H6    H     H_    0.152990 0.399909 0.381666 0.159521
H7    H     H_    0.160337 0.602260 0.625183 0.164490
H8    H     H_    0.844063 0.618392 0.523486 0.162222
C15   C     C_R   0.852651 0.500897 0.506672 0.212240
C16   C     C_R   0.148371 0.501178 0.503394 0.208005
C17   C     C_R   0.708209 0.500291 0.502862 -0.042528
C18   C     C_R   0.292329 0.500182 0.501242 -0.039528
C19   C     C_R   0.961773 0.534115 0.387912 0.229445
C20   C     C_R   0.039703 0.468543 0.622917 0.239087
C21   C     C_R   0.034227 0.534511 0.387300 0.235984
C22   C     C_R   0.967259 0.468779 0.624262 0.232443
C23   C     C_R   0.072863 0.501544 0.504654 -0.269920
C24   C     C_R   0.928443 0.501333 0.506443 -0.262280
C25   C     C_R   0.459622 0.721955 0.397347 0.126186
C26   C     C_R   0.538729 0.278266 0.605899 0.109712
C27   C     C_R   0.540255 0.721936 0.603032 0.122756
C28   C     C_R   0.461865 0.277644 0.393924 0.109473
C29   C     C_R   0.457719 0.800069 0.397568 -0.095912
C30   C     C_R   0.539256 0.200221 0.609481 -0.133381
C31   C     C_R   0.542239 0.800028 0.602855 -0.094470
C32   C     C_R   0.460780 0.199565 0.393392 -0.127841
C33   C     C_R   0.499980 0.839478 0.500316 -0.088042
C34   C     C_R   0.499894 0.160265 0.502093 -0.012316
N1    N     N_R   0.500000 0.683620 0.500000 -0.265278
N2    N     N_R   0.500000 0.316380 0.500000 -0.228546
C35   C     C_R   0.557513 0.961703 0.455402 -0.152532
C36   C     C_R   0.442440 0.038208 0.547873 -0.073318
C37   C     C_R   0.442429 0.961261 0.547174 -0.152864
C38   C     C_R   0.557593 0.038642 0.456388 -0.074455
H9    H     H_    0.602431 0.932933 0.419034 0.163079
H10   H     H_    0.397478 0.067015 0.583901 0.140121
H11   H     H_    0.397493 0.932144 0.582974 0.163150
H12   H     H_    0.602526 0.067785 0.420646 0.137920
C39   C     C_R   0.500035 0.077814 0.502513 0.211014
C40   C     C_R   0.499938 0.922050 0.500795 0.025614
N3    N     N_R   0.922075 0.567575 0.268527 0.164948
O9    O     O_R   0.934646 0.634649 0.229845 -0.269452
O10   O     O_R   0.873744 0.530914 0.197150 -0.283919
N4    N     N_R   0.079599 0.436695 0.743909 0.166464
O11   O     O_R   0.067993 0.455125 0.878981 -0.231031
O12   O     O_R   0.125892 0.387225 0.720050 -0.330438
N5    N     N_R   0.068379 0.566178 0.264929 0.168294
O13   O     O_R   0.048918 0.549111 0.130276 -0.220922
O14   O     O_R   0.117075 0.614409 0.287177 -0.320793
N6    N     N_R   0.933156 0.435341 0.744725 0.163203
O15   O     O_R   0.948249 0.368732 0.784876 -0.280500
O16   O     O_R   0.887378 0.471545 0.815541 -0.280863
C41   C     C_2   0.419607 0.682333 0.280545 0.548638
H13   H     H_    0.377582 0.646546 0.307067 0.073061
O17   O     O_2   0.432683 0.691064 0.151242 -0.503572
C42   C     C_2   0.579840 0.318090 0.720987 0.396790
H14   H     H_    0.621965 0.353273 0.692472 0.077005
O18   O     O_2   0.567514 0.310342 0.850952 -0.503974
C43   C     C_2   0.579623 0.682390 0.721001 0.547003
H15   H     H_    0.620298 0.644885 0.695644 0.059627
O19   O     O_2   0.567199 0.692704 0.850141 -0.499836
C44   C     C_2   0.423366 0.316774 0.273678 0.389609
H16   H     H_    0.386770 0.358930 0.297020 0.080364
O20   O     O_2   0.433019 0.302234 0.144833 -0.506775
C45   C     C_2   0.412298 0.841623 0.290049 0.428125
H17   H     H_    0.427731 0.895301 0.252404 0.115136
O21   O     O_2   0.356222 0.817788 0.246514 -0.504374
C46   C     C_2   0.582347 0.161429 0.725532 0.435247
H18   H     H_    0.630116 0.185757 0.768637 0.084853
O22   O     O_2   0.564210 0.103226 0.777406 -0.508395
C47   C     C_2   0.587850 0.841495 0.710207 0.429151
H19   H     H_    0.572310 0.894841 0.748977 0.114804
O23   O     O_2   0.644208 0.817958 0.752245 -0.509226
C48   C     C_2   0.417048 0.159981 0.279602 0.442551
H20   H     H_    0.368616 0.183574 0.238663 0.087608
O24   O     O_2   0.435364 0.102077 0.227207 -0.509203

loop_
_geom_bond_atom_site_label_1
_geom_bond_atom_site_label_2
_geom_bond_distance
_ccdc_geom_bond_type
C38   H12   1.082848 S    
O5    Cu1   1.931042 S    
C35   H9    1.082859 S    
C47   H19   1.085093 S    
C8    C12   1.392695 A    
O3    C2    1.298011 A    
C21   C23   1.410033 A    
O2    C2    1.298298 A    
C41   H13   1.080073 S    
C2    C17   1.469577 S    
O5    C3    1.288936 A    
N6    O16   1.301287 A    
O1    C1    1.296074 A    
C15   C24   1.470770 S    
C9    C18   1.404073 A    
C44   O20   1.221505 D    
C5    C6    1.189299 T    
C48   H20   1.085009 S    
C1    C18   1.463717 S    
C36   C37   1.407206 A    
C19   C24   1.411697 A    
O7    Cu1   1.930614 S    
C10   C17   1.405389 A    
C3    C5    1.406928 S    
C12   C16   1.399474 A    
C10   H4    1.082734 S    
N4    O11   1.300455 A    
N3    O10   1.301277 A    
C19   N3    1.437659 S    
C32   C34   1.413803 A    
C45   O21   1.220922 D    
C9    C13   1.393097 A    
O3    Cu1   1.948171 S    
C22   C24   1.411653 A    
C27   N1    1.381882 A    
Cu1   Cu2   2.683183 S    
C29   C45   1.493316 S    
C27   C43   1.476304 S    
C16   C23   1.465736 S    
C14   H8    1.083336 S    
C25   N1    1.381391 A    
Cu1   N1    2.016412 S    
C41   O17   1.221294 D    
C13   C16   1.399731 A    
C11   H5    1.083311 S    
C32   C48   1.493868 S    
N6    O15   1.301172 A    
C13   H7    1.083539 S    
C4    C6    1.406926 S    
C26   C42   1.477372 S    
C20   C23   1.409873 A    
C42   O18   1.221382 D    
O8    Cu2   1.930615 S    
N5    O14   1.300922 A    
C44   H16   1.076478 S    
C42   H14   1.079704 S    
C29   C33   1.411503 A    
C10   C14   1.392294 A    
C31   C33   1.411027 A    
C7    H1    1.082943 S    
C36   H10   1.082837 S    
C9    H3    1.083534 S    
C43   H15   1.079081 S    
C27   C31   1.428599 A    
O6    C4    1.288946 A    
C35   C40   1.407529 A    
C28   N2    1.382742 A    
C46   O22   1.220931 D    
C36   C39   1.407289 A    
C31   C47   1.493230 S    
Cu2   N2    2.016412 S    
C20   N4    1.438051 S    
C14   C15   1.400055 A    
C12   H6    1.083591 S    
C48   O24   1.220957 D    
O1    Cu1   1.947522 S    
C37   C40   1.407544 A    
C38   C39   1.407197 A    
O6    Cu2   1.931041 S    
C43   O19   1.221346 D    
C8    H2    1.081709 S    
C33   C40   1.510083 S    
O4    C1    1.297286 A    
C34   C39   1.507863 S    
C47   O23   1.220967 D    
C37   H11   1.082854 S    
C25   C41   1.475614 S    
C28   C32   1.428022 A    
C7    C11   1.392918 A    
N5    O13   1.300607 A    
C19   C21   1.406140 A    
C20   C22   1.406304 A    
C8    C18   1.403648 A    
C46   H18   1.084867 S    
C22   N6    1.437842 S    
O4    Cu2   1.948175 S    
O2    Cu2   1.947518 S    
O7    C4    1.288549 A    
O8    C3    1.288556 A    
C26   N2    1.381935 A    
C30   C34   1.414221 A    
N4    O12   1.300922 A    
N3    O9    1.301162 A    
C30   C46   1.494331 S    
C35   C38   1.407073 A    
C21   N5    1.438557 S    
C7    C17   1.405250 A    
C45   H17   1.085085 S    
C25   C29   1.429084 A    
C26   C30   1.427637 A    
C11   C15   1.400387 A    
C28   C44   1.479133 S    
