data_mof_unit_27368.cif
_audit_creation_date              2012-12-11T14:44:26-0500
_audit_creation_method            fapswitch 2.2
_symmetry_space_group_name_H-M    P1
_symmetry_Int_Tables_number       1
_space_group_crystal_system       triclinic
_cell_length_a                    24.895215
_cell_length_b                    16.817048
_cell_length_c                    15.656147
_cell_angle_alpha                 90.323269
_cell_angle_beta                  50.592642
_cell_angle_gamma                 89.860808
_cell_volume                      5064.24190479

loop_
_atom_site_label
_atom_site_type_symbol
_atom_type_description
_atom_site_fract_x
_atom_site_fract_y
_atom_site_fract_z
_atom_type_partial_charge
Br1   Br    Br    0.242699 0.066972 0.849005 -0.548884
Br2   Br    Br    0.419922 0.926386 0.257140 -0.425382
Br3   Br    Br    0.429189 0.155524 0.267253 -0.408332
Br4   Br    Br    0.584220 0.938449 0.736628 -0.456419
Br5   Br    Br    0.046688 0.681736 0.740251 -0.426959
Br6   Br    Br    0.919922 0.426385 0.257140 -0.425382
Br7   Br    Br    0.929189 0.655524 0.267253 -0.408332
Br8   Br    Br    0.084220 0.438449 0.736628 -0.456419
Br9   Br    Br    0.802710 0.984007 0.542513 -0.392350
Br10  Br    Br    0.245298 0.119155 0.474845 -0.399354
Br11  Br    Br    0.248082 0.949190 0.335527 -0.333519
Br12  Br    Br    0.744471 0.843798 0.181341 -0.476916
Br13  Br    Br    0.709447 0.162357 0.651115 -0.293143
Br14  Br    Br    0.302709 0.484007 0.542515 -0.392350
Br15  Br    Br    0.745298 0.619155 0.474846 -0.399355
Br16  Br    Br    0.748082 0.449190 0.335527 -0.333518
Br17  Br    Br    0.209447 0.662357 0.651116 -0.293143
Br18  Br    Br    0.427140 0.643008 0.774019 -0.414023
Br19  Br    Br    0.639621 0.248085 0.023870 -0.365704
Br20  Br    Br    0.566527 0.652300 0.226344 -0.440512
Br21  Br    Br    0.342365 0.164496 0.055810 -0.297988
Br22  Br    Br    0.927140 0.143008 0.774019 -0.414023
Br23  Br    Br    0.758573 0.073529 0.143386 -0.524074
Br24  Br    Br    0.139621 0.748085 0.023870 -0.365705
Br25  Br    Br    0.066527 0.152300 0.226344 -0.440512
Br26  Br    Br    0.842365 0.664496 0.055810 -0.297988
Br27  Br    Br    0.278669 0.810071 0.766224 -0.453187
Br28  Br    Br    0.742699 0.566972 0.849005 -0.548884
Br29  Br    Br    0.244471 0.343798 0.181341 -0.476916
Br30  Br    Br    0.258573 0.573529 0.143386 -0.524074
Br31  Br    Br    0.778669 0.310071 0.766224 -0.453187
Br32  Br    Br    0.546688 0.181736 0.740251 -0.426959
C1    C     C_R   0.330835 0.098095 0.807050 0.269594
C2    C     C_3   0.763663 0.806898 0.604337 -0.252890
C3    C     C_1   0.350867 0.730189 0.407932 0.268880
C4    C     C_1   0.912827 0.847002 0.335937 0.297619
C5    C     C_1   0.140872 0.251590 0.679524 0.265860
C6    C     C_1   0.096848 0.872213 0.581717 0.278879
C7    C     C_1   0.850867 0.230189 0.407932 0.268881
C8    C     C_3   0.693519 0.331372 0.598705 -0.242649
C9    C     C_3   0.256894 0.777698 0.391297 -0.286377
C10   C     C_3   0.788490 0.794999 0.409377 -0.229179
C11   C     C_3   0.263662 0.306898 0.604337 -0.252890
C12   C     C_3   0.193519 0.831372 0.598705 -0.242648
C13   C     C_3   0.756894 0.277699 0.391297 -0.286377
C14   C     C_2   0.689057 0.161757 0.028244 0.355775
C15   C     C_2   0.366454 0.734081 0.839139 0.380944
C16   C     C_2   0.300498 0.120291 0.996907 0.337459
C17   C     C_R   0.651874 0.857653 0.232688 0.360019
C18   C     C_2   0.637715 0.731620 0.158479 0.369530
C19   C     C_2   0.189057 0.661757 0.028244 0.355775
C20   C     C_2   0.866454 0.234080 0.839139 0.380944
C21   C     C_2   0.800498 0.620291 0.996907 0.337458
C22   C     C_2   0.137715 0.231620 0.158479 0.369530
C23   C     C_2   0.758454 0.157047 0.961389 -0.079492
C24   C     C_2   0.298316 0.730144 0.922949 -0.149385
C25   C     C_2   0.232170 0.130535 0.054131 -0.079357
C26   C     C_2   0.705053 0.712220 0.083501 -0.155537
C27   C     C_2   0.258454 0.657047 0.961389 -0.079492
C28   C     C_R   0.667428 0.103786 0.195947 0.286052
C29   C     C_2   0.798316 0.230143 0.922949 -0.149385
C30   C     C_2   0.732170 0.630535 0.054131 -0.079357
C31   C     C_2   0.205053 0.212220 0.083501 -0.155538
C32   C     C_R   0.593399 0.146043 0.591674 0.373033
C33   C     C_R   0.383485 0.906156 0.405346 0.281730
C34   C     C_R   0.408261 0.145899 0.407699 0.352641
C35   C     C_R   0.615448 0.902375 0.595146 0.272763
C36   C     C_R   0.093399 0.646043 0.591674 0.373033
C37   C     C_R   0.883485 0.406156 0.405346 0.281730
C38   C     C_R   0.908261 0.645899 0.407699 0.352641
C39   C     C_R   0.356052 0.850536 0.751345 0.360863
C40   C     C_R   0.115448 0.402375 0.595146 0.272763
C41   C     C_R   0.667518 0.143437 0.407515 -0.122786
C42   C     C_R   0.308689 0.913057 0.585862 -0.050683
C43   C     C_R   0.338463 0.148626 0.592101 -0.104258
C44   C     C_R   0.690524 0.904580 0.413395 -0.074434
C45   C     C_R   0.167518 0.643437 0.407515 -0.122786
C46   C     C_R   0.808689 0.413057 0.585862 -0.050683
C47   C     C_R   0.838464 0.648626 0.592101 -0.104257
C48   C     C_R   0.190525 0.404580 0.413395 -0.074434
C49   C     C_R   0.579351 0.101591 0.194222 -0.034402
C50   C     C_R   0.830835 0.598095 0.807050 0.269593
C51   C     C_R   0.445220 0.855337 0.751916 -0.101004
C52   C     C_R   0.417497 0.091986 0.810882 0.005990
C53   C     C_R   0.558371 0.855297 0.243273 -0.075886
C54   C     C_R   0.079351 0.601591 0.194223 -0.034402
C55   C     C_R   0.945220 0.355337 0.751916 -0.101004
C56   C     C_R   0.917496 0.591986 0.810882 0.005990
C57   C     C_R   0.058371 0.355297 0.243273 -0.075886
C58   C     C_R   0.346913 0.105771 0.876443 -0.124141
C59   C     C_R   0.618838 0.813568 0.202982 -0.118073
C60   C     C_R   0.648778 0.118674 0.131430 -0.120434
C61   C     C_R   0.151874 0.357653 0.232688 0.360019
C62   C     C_R   0.389951 0.809683 0.781397 -0.114397
C63   C     C_R   0.846913 0.605771 0.876443 -0.124141
C64   C     C_R   0.118838 0.313568 0.202982 -0.118073
C65   C     C_R   0.148778 0.618674 0.131430 -0.120434
C66   C     C_R   0.889951 0.309683 0.781397 -0.114397
C67   C     C_R   0.646966 0.185794 0.499115 -0.034918
C68   C     C_R   0.314576 0.902559 0.493446 0.041343
C69   C     C_R   0.360552 0.191600 0.500428 -0.042261
C70   C     C_R   0.683476 0.891744 0.506380 0.028835
C71   C     C_R   0.146966 0.685794 0.499115 -0.034918
C72   C     C_R   0.167428 0.603786 0.195947 0.286052
C73   C     C_R   0.814576 0.402559 0.493446 0.041344
C74   C     C_R   0.860552 0.691600 0.500428 -0.042262
C75   C     C_R   0.183476 0.391744 0.506380 0.028835
C76   C     C_3   0.341055 0.322190 0.424628 -0.135480
C77   C     C_3   0.711156 0.779888 0.588938 -0.116679
C78   C     C_3   0.664425 0.337233 0.536066 -0.133098
C79   C     C_3   0.285301 0.771231 0.453821 -0.148053
C80   C     C_3   0.841055 0.822190 0.424627 -0.135480
C81   C     C_3   0.211156 0.279888 0.588938 -0.116678
C82   C     C_3   0.164425 0.837233 0.536066 -0.133098
C83   C     C_R   0.856052 0.350536 0.751345 0.360862
C84   C     C_3   0.785301 0.271231 0.453820 -0.148053
C85   C     C_3   0.785829 0.876210 0.522700 0.409281
C86   C     C_3   0.265498 0.226898 0.491229 0.408061
C87   C     C_3   0.235688 0.865235 0.430649 0.444940
C88   C     C_3   0.715451 0.244409 0.558785 0.442501
C89   C     C_3   0.285828 0.376210 0.522701 0.409281
C90   C     C_3   0.765498 0.726898 0.491230 0.408061
C91   C     C_3   0.735688 0.365235 0.430650 0.444939
C92   C     C_3   0.215451 0.744409 0.558785 0.442501
C93   C     C_3   0.733185 0.848540 0.508514 -0.030802
C94   C     C_3   0.288490 0.294999 0.409376 -0.229178
C95   C     C_3   0.318599 0.253772 0.504787 -0.024528
C96   C     C_3   0.264748 0.858213 0.492609 -0.019724
C97   C     C_3   0.685981 0.250757 0.497604 -0.031827
C98   C     C_3   0.233185 0.348540 0.508514 -0.030802
C99   C     C_3   0.818599 0.753772 0.504787 -0.024528
C100  C     C_3   0.764748 0.358213 0.492609 -0.019725
C101  C     C_3   0.185981 0.750757 0.497604 -0.031827
C102  C     C_1   0.412827 0.347002 0.335938 0.297618
C103  C     C_1   0.640872 0.751590 0.679524 0.265860
C104  C     C_1   0.596848 0.372213 0.581718 0.278879
H1    H     H_    0.708134 0.159243 0.323015 0.176170
H2    H     H_    0.482885 0.839729 0.762067 0.173514
H3    H     H_    0.443140 0.075771 0.843819 0.205860
H4    H     H_    0.519102 0.835525 0.238808 0.177518
H5    H     H_    0.053610 0.592885 0.159981 0.209324
H6    H     H_    0.982885 0.339729 0.762067 0.173515
H7    H     H_    0.943140 0.575771 0.843819 0.205860
H8    H     H_    0.019102 0.335524 0.238808 0.177518
H9    H     H_    0.299169 0.289262 0.329121 0.226151
H10   H     H_    0.754138 0.811372 0.683756 0.184409
H11   H     H_    0.666667 0.353694 0.684058 0.208567
H12   H     H_    0.260388 0.925726 0.667445 0.189392
H13   H     H_    0.284181 0.755997 0.305558 0.192495
H14   H     H_    0.799168 0.789262 0.329121 0.226152
H15   H     H_    0.254138 0.311371 0.683757 0.184409
H16   H     H_    0.166667 0.853694 0.684058 0.208566
H17   H     H_    0.784180 0.255997 0.305558 0.192495
H18   H     H_    0.269143 0.785692 0.957916 0.174396
H19   H     H_    0.784064 0.102071 0.953404 0.201083
H20   H     H_    0.743098 0.759242 0.040782 0.180982
H21   H     H_    0.202715 0.087611 0.047749 0.205007
H22   H     H_    0.769143 0.285692 0.957916 0.174396
H23   H     H_    0.299287 0.166916 0.676873 0.170674
H24   H     H_    0.284064 0.602071 0.953404 0.201083
H25   H     H_    0.243098 0.259242 0.040782 0.180982
H26   H     H_    0.702715 0.587611 0.047749 0.205007
H27   H     H_    0.739668 0.917053 0.333983 0.191508
H28   H     H_    0.208134 0.659243 0.323015 0.176170
H29   H     H_    0.760388 0.425726 0.667445 0.189392
H30   H     H_    0.799287 0.666917 0.676872 0.170674
H31   H     H_    0.239668 0.417053 0.333983 0.191508
H32   H     H_    0.553610 0.092885 0.159981 0.209323
N1    N     N_R   0.389620 0.081040 0.705440 -0.079871
N2    N     N_R   0.417680 0.920160 0.443370 -0.092412
N3    N     N_R   0.417680 0.079840 0.443370 -0.078678
N4    N     N_R   0.582320 0.920160 0.556630 -0.085137
N5    N     N_R   0.082320 0.579840 0.556630 -0.082528
N6    N     N_R   0.917680 0.420160 0.443370 -0.092412
N7    N     N_R   0.917680 0.579840 0.443370 -0.078678
N8    N     N_R   0.082320 0.420160 0.556630 -0.085137
N9    N     N_R   0.627920 0.078930 0.443400 -0.062423
N10   N     N_R   0.372080 0.921070 0.556600 -0.062922
N11   N     N_R   0.372080 0.078930 0.556600 -0.057317
N12   N     N_R   0.610380 0.918960 0.294560 -0.074385
N13   N     N_R   0.627920 0.921070 0.443400 -0.060953
N14   N     N_R   0.127920 0.578930 0.443400 -0.062423
N15   N     N_R   0.872080 0.421070 0.556600 -0.062922
N16   N     N_R   0.872080 0.578930 0.556600 -0.057318
N17   N     N_R   0.127920 0.421070 0.443400 -0.060953
N18   N     N_R   0.555090 0.077730 0.294590 -0.082854
N19   N     N_R   0.444910 0.922270 0.705410 -0.071401
N20   N     N_R   0.444910 0.077730 0.705410 -0.081542
N21   N     N_R   0.555090 0.922270 0.294590 -0.069522
N22   N     N_R   0.055090 0.577730 0.294590 -0.082854
N23   N     N_R   0.610380 0.081040 0.294560 -0.078732
N24   N     N_R   0.944910 0.422270 0.705410 -0.071401
N25   N     N_R   0.944910 0.577730 0.705410 -0.081542
N26   N     N_R   0.055090 0.422270 0.294590 -0.069521
N27   N     N_1   0.469397 0.366602 0.266087 0.015391
N28   N     N_1   0.585634 0.728996 0.750723 -0.008215
N29   N     N_1   0.543522 0.399770 0.617748 -0.005303
N30   N     N_1   0.402296 0.697632 0.372201 0.012236
N31   N     N_1   0.969397 0.866602 0.266085 0.015391
N32   N     N_1   0.085634 0.228995 0.750722 -0.008215
N33   N     N_1   0.043522 0.899770 0.617748 -0.005303
N34   N     N_R   0.389620 0.918960 0.705440 -0.075878
N35   N     N_1   0.902296 0.197632 0.372201 0.012236
N36   N     N_R   0.889620 0.581040 0.705440 -0.079871
N37   N     N_R   0.110380 0.418960 0.294560 -0.074386
N38   N     N_R   0.110380 0.581040 0.294560 -0.078732
N39   N     N_R   0.889620 0.418960 0.705440 -0.075878
N40   N     N_R   0.582320 0.079840 0.556630 -0.082528
Ni1   Ni    Ni4+2 0.382970 0.000000 0.629840 0.276194
Ni2   Ni    Ni4+2 0.617030 0.000000 0.370160 0.279909
Ni3   Ni    Ni4+2 0.882970 0.500000 0.629840 0.276194
Ni4   Ni    Ni4+2 0.117030 0.500000 0.370160 0.279909
Ni5   Ni    Ni4+2 0.514540 0.000000 0.629840 0.275394
Ni6   Ni    Ni4+2 0.485460 0.000000 0.370160 0.280791
Ni7   Ni    Ni4+2 0.014540 0.500000 0.629840 0.275394
Ni8   Ni    Ni4+2 0.985460 0.500000 0.370160 0.280791

loop_
_geom_bond_atom_site_label_1
_geom_bond_atom_site_label_2
_ccdc_geom_bond_type
C26   C30   S    
Br6   C37   S    
Br29  C61   S    
C42   N10   A    
N19   Ni5   S    
C19   C65   S    
N40   Ni5   S    
Br15  C90   S    
C7    N35   T    
C91   C100  S    
C21   C63   S    
Br9   C85   S    
C90   C99   S    
C78   C104  S    
C4    N31   T    
C89   C98   S    
C70   C93   S    
C61   N37   A    
Br18  C15   S    
Br7   C38   S    
C9    C101  S    
Br12  C17   S    
C53   C59   A    
Br19  C14   S    
Br1   C1    S    
C16   C25   D    
C39   C62   A    
C13   C91   S    
C23   H19   S    
C32   N40   A    
N19   N34   A    
N22   Ni8   S    
C12   H16   S    
N25   N36   A    
C82   C101  S    
C92   C101  S    
N2    N10   A    
C46   C73   A    
C42   H12   S    
N5    Ni7   S    
Br16  C91   S    
C83   N39   A    
N12   N21   A    
C75   C98   S    
N26   Ni8   S    
C80   C85   S    
C6    C82   S    
C77   C90   S    
C5    C81   S    
C22   C31   D    
C94   C98   S    
C53   N21   A    
Br21  C16   S    
N18   Ni6   S    
C47   N16   A    
C78   C97   S    
C31   H25   S    
C46   N15   A    
C21   C30   D    
C5    N32   T    
N18   N23   A    
C54   C65   A    
C10   C80   S    
Br20  C18   S    
N8    Ni7   S    
C10   C93   S    
C103  N28   T    
C49   C60   A    
N4    N13   A    
N22   N38   A    
C32   C67   A    
C52   H3    S    
C6    N33   T    
C84   C100  S    
C14   C23   D    
C4    C80   S    
C48   N17   A    
C36   C71   A    
C25   C31   S    
C9    H13   S    
C72   N38   A    
C43   N11   A    
C38   N7    A    
C11   C89   S    
N24   Ni7   S    
C22   C64   S    
C82   C87   S    
C17   N12   A    
C41   N9    A    
C87   C96   S    
Br2   C33   S    
Br24  C19   S    
C8    C100  S    
C56   C63   A    
C1    N1    A    
C47   H30   S    
Br14  C89   S    
C16   C58   S    
C55   H6    S    
C3    C79   S    
N39   Ni3   S    
C86   C95   S    
N3    Ni6   S    
C34   C69   A    
N3    N11   A    
C74   C99   S    
C13   H17   S    
C52   C58   A    
C17   C59   A    
Br5   C36   S    
Br31  C83   S    
C94   H9    S    
N25   Ni7   S    
C73   C100  S    
C28   C60   A    
C44   C70   A    
Br23  C28   S    
C54   N22   A    
Br8   C40   S    
C81   C98   S    
C67   C97   S    
Br28  C50   S    
C88   C97   S    
C18   C26   D    
C34   N3    A    
N8    N17   A    
Br25  C22   S    
Br32  C32   S    
C24   H18   S    
Br11  C87   S    
C38   C74   A    
C11   C95   S    
C37   C73   A    
C42   C68   A    
N37   Ni4   S    
C51   C62   A    
C12   C92   S    
C84   C88   S    
Br27  C39   S    
N13   Ni2   S    
N9    Ni2   S    
C66   C83   A    
C76   C102  S    
Br10  C86   S    
C78   C91   S    
C27   H24   S    
Br17  C92   S    
C48   C75   A    
C40   C75   A    
C36   N5    A    
N1    Ni1   S    
N14   Ni4   S    
C45   N14   A    
N17   Ni4   S    
C9    C87   S    
N12   Ni2   S    
C53   H4    S    
C104  N29   T    
C26   H20   S    
C76   C89   S    
C77   C93   S    
C102  N27   T    
C51   N19   A    
C2    C99   S    
C61   C64   A    
N10   Ni1   S    
N24   N39   A    
N6    Ni8   S    
C45   C71   A    
Br3   C34   S    
C19   C27   D    
C37   N6    A    
N34   Ni1   S    
N4    Ni5   S    
Br26  C21   S    
C77   C103  S    
C49   N18   A    
Br13  C88   S    
C11   H15   S    
C10   C90   S    
N16   Ni3   S    
Br22  C20   S    
C54   H5    S    
C43   H23   S    
C41   C67   A    
N26   N37   A    
C25   H21   S    
C12   C96   S    
C46   H29   S    
C50   C63   A    
C56   H7    S    
C8    H11   S    
C8    C88   S    
C79   C92   S    
C68   C96   S    
C56   N25   A    
N1    N20   A    
C33   C68   A    
C2    C85   S    
N6    N15   A    
N5    N14   A    
Br4   C35   S    
C8    C78   S    
N20   Ni5   S    
C24   C27   S    
C80   C99   S    
N2    Ni6   S    
C35   N4    A    
C57   H8    S    
N11   Ni1   S    
N9    N40   A    
C33   N2    A    
C20   C29   D    
N7    Ni8   S    
C55   C66   A    
C57   C64   A    
C71   C101  S    
C1    C58   A    
C11   C81   S    
C50   N36   A    
C2    H10   S    
C13   C84   S    
C48   H31   S    
C30   H26   S    
C41   H1    S    
C45   H28   S    
C28   N23   A    
C49   H32   S    
C13   C97   S    
C23   C29   S    
N36   Ni3   S    
C20   C66   S    
C69   C95   S    
C15   C62   S    
C57   N26   A    
C40   N8    A    
C76   C95   S    
C10   H14   S    
C65   C72   A    
C52   N20   A    
N21   Ni6   S    
C3    N30   T    
N23   Ni2   S    
C12   C82   S    
C81   C86   S    
N38   Ni4   S    
C18   C59   S    
C14   C60   S    
C47   C74   A    
C7    C84   S    
C9    C79   S    
C39   N34   A    
Br30  C72   S    
C79   C96   S    
C43   C69   A    
C2    C77   S    
C55   N24   A    
C44   H27   S    
C86   C94   S    
C76   C94   S    
C29   H22   S    
C85   C93   S    
N15   Ni3   S    
C51   H2    S    
C44   N13   A    
C35   C70   A    
C15   C24   D    
N7    N16   A    
