data_mof_unit_17211.cif
_audit_creation_date              2012-12-10T21:00:38-0500
_audit_creation_method            fapswitch 2.2
_symmetry_space_group_name_H-M    P1
_symmetry_Int_Tables_number       1
_space_group_crystal_system       triclinic
_cell_length_a                    18.114078
_cell_length_b                    18.196271
_cell_length_c                    18.27454
_cell_angle_alpha                 119.996022
_cell_angle_beta                  89.963314
_cell_angle_gamma                 119.759781
_cell_volume                      4276.2212521

loop_
_atom_site_label
_atom_site_type_symbol
_atom_type_description
_atom_site_fract_x
_atom_site_fract_y
_atom_site_fract_z
_atom_type_partial_charge
C1    C     C_R   0.114090 0.219975 0.609367 0.834620
C2    C     C_3   0.449806 0.897624 0.947731 0.060562
C3    C     C_R   0.329878 0.708172 0.063772 -0.151723
C4    C     C_R   0.740887 0.289086 0.908614 0.066852
C5    C     C_R   0.770734 0.322266 0.853000 -0.148843
C6    C     C_R   0.731564 0.359808 0.828593 -0.128636
C7    C     C_R   0.661383 0.362945 0.858139 -0.120454
C8    C     C_R   0.630309 0.328649 0.912250 -0.137028
C9    C     C_R   0.669881 0.292066 0.937587 -0.150642
C10   C     C_3   0.472974 0.032683 0.071267 -0.179202
C11   C     C_3   0.526987 0.967299 0.928782 -0.180080
C12   C     C_3   0.443484 0.519093 0.479292 -0.191330
C13   C     C_3   0.556261 0.480189 0.520540 -0.187567
C14   C     C_3   0.447009 0.425769 0.413991 -0.131880
C15   C     C_3   0.552741 0.573512 0.585850 -0.126065
C16   C     C_3   0.550237 0.499374 0.448823 0.073527
C17   C     C_3   0.449548 0.499976 0.551039 0.074893
C18   C     C_3   0.547479 0.592536 0.513119 -0.188933
C19   C     C_R   0.891403 0.780144 0.390469 0.830270
C20   C     C_3   0.452254 0.406767 0.486747 -0.199479
C21   C     C_R   0.197902 0.202441 0.829128 -0.112095
C22   C     C_R   0.833923 0.840098 0.183981 -0.147955
C23   C     C_R   0.392752 0.781269 0.888382 0.748822
C24   C     C_R   0.607241 0.218725 0.111649 0.748281
C25   C     C_R   0.168471 0.150960 0.736312 -0.136011
C26   C     C_R   0.869759 0.888808 0.275603 -0.095250
C27   C     C_R   0.078648 0.103358 0.690637 0.250481
C28   C     C_R   0.946116 0.898094 0.308555 0.261411
C29   C     C_R   0.018486 0.106572 0.738660 -0.074163
C30   C     C_3   0.925130 0.403308 0.444125 -0.172823
C31   C     C_R   0.986562 0.858838 0.248964 -0.114177
C32   C     C_R   0.048259 0.158329 0.831491 -0.161855
C33   C     C_R   0.950927 0.811037 0.157573 -0.121892
C34   C     C_R   0.137931 0.206476 0.876716 -0.112371
C35   C     C_R   0.874562 0.801348 0.125046 -0.110532
C36   C     C_R   0.996347 0.944957 0.537548 0.411987
C37   C     C_R   0.043278 0.054735 0.459733 0.412529
C38   C     C_R   0.956783 0.892252 0.444976 -0.252817
C39   C     C_R   0.068073 0.107898 0.553701 -0.255891
C40   C     C_R   0.982721 0.947785 0.405612 -0.195098
C41   C     C_3   0.074452 0.596184 0.555852 -0.180610
C42   C     C_R   0.047842 0.052427 0.592630 -0.194292
C43   C     C_R   0.566621 0.473059 0.717888 -0.131426
C44   C     C_R   0.432343 0.527085 0.281909 -0.129953
C45   C     C_R   0.527771 0.459809 0.780183 -0.140406
C46   C     C_R   0.471172 0.540729 0.219732 -0.142197
C47   C     C_R   0.112122 0.501776 0.890807 0.804871
C48   C     C_R   0.887925 0.498214 0.109203 0.800372
C49   C     C_R   0.572294 0.538336 0.872188 0.151441
C50   C     C_R   0.427747 0.461405 0.127804 0.150865
C51   C     C_R   0.655843 0.630165 0.900762 -0.148139
C52   C     C_3   0.413560 0.964822 0.972329 -0.123645
C53   C     C_R   0.345519 0.368268 0.099185 -0.146804
C54   C     C_R   0.694468 0.643027 0.838293 -0.147467
C55   C     C_R   0.306906 0.354981 0.161515 -0.146216
C56   C     C_R   0.650190 0.564312 0.747004 -0.117428
C57   C     C_R   0.349934 0.434569 0.252717 -0.118855
C58   C     C_R   0.586212 0.526335 0.998673 -0.273203
C59   C     C_R   0.413777 0.473765 0.001507 -0.286432
C60   C     C_R   0.551604 0.503416 0.058378 -0.041112
C61   C     C_R   0.448361 0.496601 0.941717 -0.041802
C62   C     C_R   0.465038 0.477998 0.061136 -0.014128
C63   C     C_3   0.586405 0.035160 0.027718 -0.123868
C64   C     C_R   0.534922 0.521933 0.938922 -0.013792
C65   C     C_R   0.275513 0.851052 0.084650 -0.166382
C66   C     C_R   0.724441 0.149451 0.916418 -0.162782
C67   C     C_R   0.218601 0.752134 0.066525 0.049371
C68   C     C_R   0.781448 0.248346 0.934512 0.051491
C69   C     C_R   0.124577 0.695164 0.024918 0.101394
C70   C     C_R   0.875620 0.304560 0.974892 0.103385
C71   C     C_R   0.392347 0.499839 0.607757 0.763915
C72   C     C_R   0.607607 0.499939 0.392222 0.767903
C73   C     C_R   0.090516 0.738205 0.002124 -0.162980
C74   C     C_3   0.491560 0.035929 0.954117 -0.193739
C75   C     C_R   0.909785 0.260261 0.995564 -0.161183
C76   C     C_R   0.148068 0.836735 0.021152 -0.143172
C77   C     C_R   0.852087 0.161802 0.976625 -0.148368
C78   C     C_R   0.240258 0.893370 0.062989 -0.136465
C79   C     C_R   0.759698 0.106269 0.936637 -0.133051
C80   C     C_R   0.001884 0.587874 0.058557 -0.280797
C81   C     C_R   0.998676 0.412162 0.941841 -0.276527
C82   C     C_R   0.943102 0.496290 0.051416 -0.026450
C83   C     C_R   0.057091 0.503634 0.948667 -0.029403
C84   C     C_R   0.940600 0.406791 0.991660 -0.001021
C85   C     C_3   0.508402 0.964054 0.045933 -0.192379
C86   C     C_R   0.059662 0.593105 0.008440 0.001654
C87   C     C_R   0.393581 0.497924 0.886766 0.784725
C88   C     C_R   0.606413 0.502132 0.113313 0.788617
C89   C     C_R   0.108996 0.500136 0.607614 0.772630
C90   C     C_R   0.890899 0.499744 0.392396 0.765786
C91   C     C_3   0.022547 0.435696 0.447797 -0.128361
C92   C     C_3   0.977028 0.563706 0.552182 -0.138226
C93   C     C_3   0.044948 0.532092 0.452415 -0.189565
C94   C     C_3   0.954677 0.467362 0.547546 -0.181362
C95   C     C_3   0.948389 0.499650 0.449507 0.061168
C96   C     C_3   0.550164 0.102363 0.052318 0.060395
C97   C     C_3   0.051231 0.499885 0.550483 0.060601
C98   C     C_3   0.045882 0.871563 0.575097 0.142087
C99   C     C_3   0.035189 0.825044 0.627278 -0.806956
C100  C     C_3   0.155212 0.125867 0.410040 0.143121
C101  C     C_3   0.184493 0.178644 0.361949 -0.793638
C102  C     C_R   0.259103 0.711674 0.092887 0.068295
C103  C     C_R   0.229120 0.678748 0.148626 -0.151529
C104  C     C_R   0.267944 0.640916 0.173030 -0.129739
C105  C     C_R   0.337851 0.637162 0.143283 -0.118259
C106  C     C_R   0.369060 0.671230 0.089050 -0.135582
H1    H     H_    0.081078 0.558606 0.412460 0.125337
H2    H     H_    0.044873 0.864339 0.273159 0.087595
H3    H     H_    0.001933 0.161553 0.868421 0.129451
H4    H     H_    0.982313 0.781263 0.111881 0.121236
H5    H     H_    0.680920 0.574147 0.698988 0.120381
H6    H     H_    0.319168 0.424389 0.300600 0.119152
H7    H     H_    0.532363 0.412131 0.647135 0.116421
H8    H     H_    0.465688 0.588630 0.352611 0.119167
H9    H     H_    0.463909 0.387905 0.756935 0.090881
H10   H     H_    0.534115 0.613500 0.242968 0.099196
H11   H     H_    0.691088 0.691413 0.971395 0.116607
H12   H     H_    0.918568 0.440909 0.587543 0.127497
H13   H     H_    0.311362 0.306240 0.028667 0.113268
H14   H     H_    0.042020 0.383082 0.405583 0.145868
H15   H     H_    0.957057 0.615453 0.594876 0.139812
H16   H     H_    0.759062 0.713713 0.860699 0.124832
H17   H     H_    0.243295 0.283249 0.139059 0.124036
H18   H     H_    0.652411 0.543805 0.996072 0.173447
H19   H     H_    0.347588 0.456298 0.004160 0.173977
H20   H     H_    0.284373 0.970465 0.078963 0.126123
H21   H     H_    0.715448 0.029214 0.920712 0.126868
H22   H     H_    0.347244 0.896401 0.117568 0.125804
H23   H     H_    0.160832 0.246948 0.948611 0.117234
H24   H     H_    0.652600 0.104677 0.884441 0.125605
H25   H     H_    0.018900 0.695473 0.970182 0.128192
H26   H     H_    0.981571 0.301950 0.025799 0.130913
H27   H     H_    0.121017 0.869595 0.004128 0.128341
H28   H     H_    0.879176 0.128104 0.992217 0.128432
H29   H     H_    0.005482 0.657233 0.106229 0.155319
H30   H     H_    0.995631 0.342937 0.894704 0.164136
H31   H     H_    0.862999 0.324171 0.397391 0.131403
H32   H     H_    0.136525 0.675372 0.602595 0.127174
H33   H     H_    0.485168 0.066476 0.916743 0.124931
H34   H     H_    0.847023 0.763880 0.054195 0.115636
H35   H     H_    0.514783 0.933499 0.083304 0.125378
H36   H     H_    0.342058 0.935052 0.948178 0.144077
H37   H     H_    0.657911 0.064924 0.051837 0.144652
H38   H     H_    0.452104 0.061604 0.130903 0.122343
H39   H     H_    0.547837 0.938357 0.869135 0.123450
H40   H     H_    0.404587 0.364464 0.342623 0.147663
H41   H     H_    0.595081 0.634685 0.657254 0.149243
H42   H     H_    0.396327 0.535596 0.464345 0.122204
H43   H     H_    0.603380 0.463630 0.535455 0.121865
H44   H     H_    0.587492 0.668549 0.522684 0.128939
H45   H     H_    0.267336 0.239791 0.864147 0.124248
H46   H     H_    0.412274 0.330842 0.477342 0.118504
H47   H     H_    0.115445 0.943407 0.606675 0.105306
H48   H     H_    0.037279 0.815205 0.505186 0.123060
H49   H     H_    0.965597 0.754681 0.598848 0.272921
H50   H     H_    0.083658 0.803850 0.623340 0.189841
H51   H     H_    0.048298 0.882034 0.698554 0.246137
H52   H     H_    0.150667 0.052532 0.369994 0.103835
H53   H     H_    0.207946 0.177480 0.476517 0.120429
H54   H     H_    0.190976 0.253080 0.400857 0.277183
H55   H     H_    0.250584 0.194333 0.354469 0.185426
H56   H     H_    0.774671 0.832370 0.158662 0.124271
H57   H     H_    0.133989 0.127821 0.294484 0.244720
H58   H     H_    0.176383 0.683209 0.173899 0.126325
H59   H     H_    0.244288 0.615255 0.215612 0.124995
H60   H     H_    0.368202 0.608513 0.162759 0.134445
H61   H     H_    0.423817 0.669327 0.066779 0.129239
H62   H     H_    0.354436 0.733623 0.021240 0.114591
H63   H     H_    0.823569 0.318118 0.827725 0.129739
H64   H     H_    0.755106 0.385626 0.786089 0.126118
H65   H     H_    0.630692 0.391248 0.838564 0.133790
H66   H     H_    0.575309 0.330024 0.934328 0.127385
H67   H     H_    0.215665 0.149357 0.700158 0.086628
H68   H     H_    0.645348 0.266349 0.979948 0.114393
H69   H     H_    0.837734 0.918429 0.320756 0.110598
H70   H     H_    0.949099 0.070364 0.704332 0.118346
O1    O     O_3   0.251620 0.500000 0.748430 -0.484379
O2    O     O_R   0.570330 0.268390 0.136490 -0.639803
O3    O     O_R   0.134680 0.268390 0.572240 -0.593345
O4    O     O_R   0.865320 0.731610 0.427760 -0.590467
O5    O     O_R   0.306670 0.731630 0.863510 -0.637685
O6    O     O_R   0.693330 0.268370 0.136490 -0.637285
O7    O     O_R   0.135450 0.439270 0.865360 -0.635939
O8    O     O_R   0.864550 0.560730 0.134640 -0.638979
O9    O     O_R   0.429670 0.560710 0.692610 -0.637985
O10   O     O_R   0.570330 0.439290 0.307390 -0.639526
O11   O     O_R   0.308540 0.439240 0.865360 -0.643009
O12   O     O_3   0.748380 0.500000 0.251570 -0.484523
O13   O     O_R   0.691460 0.560760 0.134640 -0.638916
O14   O     O_R   0.133580 0.439310 0.571150 -0.643534
O15   O     O_R   0.866420 0.560690 0.428850 -0.655153
O16   O     O_R   0.430770 0.560690 0.864590 -0.634582
O17   O     O_R   0.569230 0.439310 0.135410 -0.635649
O18   O     O_R   0.133580 0.560760 0.692610 -0.642247
O19   O     O_R   0.866420 0.439240 0.307390 -0.641183
O20   O     O_3   0.980044 0.892158 0.576504 -0.577442
O21   O     O_3   0.071248 0.106987 0.419460 -0.575529
O22   O     O_R   0.134680 0.560740 0.864590 -0.638743
O23   O     O_R   0.865320 0.439260 0.135410 -0.639513
O24   O     O_R   0.306670 0.439270 0.571150 -0.657505
O25   O     O_R   0.693330 0.560730 0.428850 -0.640710
O26   O     O_R   0.135450 0.268370 0.694460 -0.647931
O27   O     O_R   0.864550 0.731630 0.305540 -0.651532
O28   O     O_R   0.429670 0.731610 0.863510 -0.639013
Zn1   Zn    Zn3+2 0.207400 0.586780 0.791530 0.970305
Zn2   Zn    Zn3+2 0.792600 0.413220 0.208470 0.965704
Zn3   Zn    Zn3+2 0.208510 0.413230 0.792630 0.964529
Zn4   Zn    Zn3+2 0.791490 0.586770 0.207370 0.963217
Zn5   Zn    Zn3+2 0.383150 0.586740 0.791530 0.962909
Zn6   Zn    Zn3+2 0.616850 0.413260 0.208470 0.965856
Zn7   Zn    Zn3+2 0.207400 0.413250 0.618010 0.962213
Zn8   Zn    Zn3+2 0.792600 0.586750 0.381990 0.966979

loop_
_geom_bond_atom_site_label_1
_geom_bond_atom_site_label_2
_ccdc_geom_bond_type
C14   H40   S    
C15   C18   S    
C66   C68   A    
C73   H25   S    
C10   C85   S    
C100  H53   S    
C7    H65   S    
C27   C29   A    
C94   H12   S    
C31   H2    S    
C105  C106  A    
C36   C42   A    
C16   C72   S    
C10   C52   S    
C98   H48   S    
C60   C88   S    
C7    C8    A    
C66   C79   A    
O12   Zn2   S    
C103  H58   S    
C80   H29   S    
C26   H69   S    
C76   C78   A    
C23   O5    A    
C29   C32   A    
C52   C74   S    
C24   C96   S    
C5    H63   S    
C5    C6    A    
C22   H56   S    
C57   H6    S    
C1    O26   A    
O13   Zn4   S    
C58   C60   A    
O3    Zn7   S    
C17   C20   S    
O7    Zn3   S    
C105  H60   S    
O2    Zn6   S    
C2    C85   S    
C60   C62   A    
O1    Zn5   S    
O4    Zn8   S    
C100  H52   S    
C15   H41   S    
C41   C97   S    
C80   C86   A    
C61   C87   S    
C51   H11   S    
C104  H59   S    
O12   Zn6   S    
C41   C93   S    
C90   O19   A    
C34   H23   S    
O1    Zn1   S    
C8    C9    A    
C65   C67   A    
C99   H49   S    
C12   C17   S    
O23   Zn2   S    
C89   O14   A    
C31   C33   A    
C47   O22   A    
C69   C73   A    
C65   C78   A    
C47   C83   S    
C70   C84   S    
O25   Zn8   S    
O15   Zn8   S    
C30   C94   S    
C100  O21   S    
C53   C55   A    
C54   H16   S    
C98   H47   S    
C44   H8    S    
C93   C95   S    
C30   H31   S    
C63   C85   S    
O22   Zn1   S    
C71   O9    A    
C2    C11   S    
C88   O17   A    
C92   C94   S    
C104  C105  A    
C81   C83   A    
C44   C46   A    
C3    H62   S    
C39   C42   A    
C54   C56   A    
C90   O15   A    
C77   C79   A    
C3    C106  A    
C58   C64   A    
C88   O13   A    
C55   H17   S    
C59   C61   A    
O24   Zn7   S    
C32   H3    S    
C48   O23   A    
C24   O6    A    
C50   C53   A    
C65   H22   S    
C74   C96   S    
C101  H57   S    
C101  H54   S    
C80   C82   A    
C93   H1    S    
C85   H35   S    
C4    C68   S    
C11   H39   S    
C87   O11   A    
C21   C34   A    
C94   C97   S    
C49   C51   A    
C63   C96   S    
C92   C95   S    
C52   H36   S    
O1    Zn3   S    
C89   C97   S    
O6    Zn2   S    
C32   C34   A    
O28   Zn5   S    
C61   C64   A    
O5    Zn1   S    
O14   Zn7   S    
C36   O20   S    
C30   C95   S    
C22   C35   A    
C19   C38   S    
C14   C20   S    
C35   H34   S    
C91   C93   S    
C75   C77   A    
C45   H9    S    
C10   C96   S    
C44   C57   A    
O12   Zn8   S    
C99   H50   S    
C41   C92   S    
C19   O27   A    
C45   C49   A    
C98   O20   S    
C9    H68   S    
C55   C57   A    
C10   H38   S    
C91   C97   S    
C43   C45   A    
C72   O10   A    
C41   H32   S    
C2    C52   S    
C3    C102  A    
C47   O7    A    
C12   C14   S    
C17   C71   S    
C82   C84   A    
O26   Zn3   S    
C99   H51   S    
C24   O2    A    
C50   C62   S    
C73   C76   A    
C14   C16   S    
C25   C27   A    
C77   H28   S    
C29   H70   S    
O11   Zn3   S    
C37   C40   A    
C78   H20   S    
C70   C75   A    
C81   C84   A    
C75   H26   S    
C81   H30   S    
C48   O8    A    
C6    H64   S    
C15   C17   S    
O18   Zn1   S    
C21   C25   A    
O12   Zn4   S    
C59   C62   A    
C63   H37   S    
C37   O21   S    
C56   H5    S    
C13   C20   S    
C58   H18   S    
C71   O24   A    
C28   C31   A    
C30   C91   S    
C11   C74   S    
C90   C95   S    
C76   H27   S    
C53   H13   S    
C6    C7    A    
C59   H19   S    
C74   H33   S    
C46   C50   A    
C26   C28   A    
O8    Zn4   S    
C46   H10   S    
C23   O28   A    
C51   C54   A    
C106  H61   S    
C12   H42   S    
C13   C15   S    
C79   H21   S    
C37   C39   A    
C92   H15   S    
C43   H7    S    
C36   C38   A    
C38   C40   A    
C1    O3    A    
C27   C42   S    
O1    Zn7   S    
O17   Zn6   S    
O19   Zn2   S    
O10   Zn6   S    
C89   O18   A    
C101  H55   S    
C100  C101  S    
C33   C35   A    
C48   C82   S    
O27   Zn4   S    
O9    Zn5   S    
C21   H45   S    
C102  C103  A    
O16   Zn5   S    
C1    C39   S    
C13   H43   S    
C25   H67   S    
C43   C56   A    
C4    C5    A    
C83   C86   A    
C20   H46   S    
C16   C18   S    
C98   C99   S    
C22   C26   A    
C13   C16   S    
C12   C18   S    
C103  C104  A    
C49   C64   S    
C68   C70   A    
C28   C40   S    
C91   H14   S    
C72   O25   A    
C33   H4    S    
C67   C69   A    
C4    C9    A    
C18   H44   S    
C11   C63   S    
C19   O4    A    
C2    C23   S    
C69   C86   S    
C8    H66   S    
C67   C102  S    
C87   O16   A    
C66   H24   S    
