data_mof_unit_10676.cif
_audit_creation_date              2012-12-10T17:55:54-0500
_audit_creation_method            fapswitch 2.2
_symmetry_space_group_name_H-M    P1
_symmetry_Int_Tables_number       1
_space_group_crystal_system       triclinic
_cell_length_a                    11.102177
_cell_length_b                    10.773274
_cell_length_c                    9.551009
_cell_angle_alpha                 89.279208
_cell_angle_beta                  102.191668
_cell_angle_gamma                 90.919508
_cell_volume                      1116.40820492

loop_
_atom_site_label
_atom_site_type_symbol
_atom_type_description
_atom_site_fract_x
_atom_site_fract_y
_atom_site_fract_z
_atom_type_partial_charge
C1    C     C_R   0.495964 0.262444 0.499624 0.768022
C2    C     C_2   0.869238 0.517507 0.585609 -0.397239
C3    C     C_2   0.062324 0.528960 0.499262 0.257511
C4    C     C_2   0.935906 0.478126 0.492411 0.256352
C5    C     C_R   0.411837 0.061126 0.393348 0.015928
C6    C     C_R   0.587906 0.938891 0.606584 0.013554
C7    C     C_R   0.420477 0.932317 0.394248 -0.167923
C8    C     C_R   0.578887 0.067671 0.606084 -0.161256
C9    C     C_R   0.506397 0.871592 0.499922 -0.147578
C10   C     C_R   0.493217 0.128413 0.500145 -0.149848
C11   C     C_3   0.855448 0.414617 0.242332 -0.644044
C12   C     C_R   0.503856 0.737563 0.500351 0.772233
C13   C     C_3   0.144668 0.616166 0.738708 -0.631302
C14   C     C_3   0.239610 0.292080 0.837184 -0.688429
C15   C     C_3   0.600541 0.804571 0.144314 -0.626473
C16   C     C_2   0.313950 0.122701 0.285620 0.342060
C17   C     C_2   0.686359 0.877387 0.713669 0.332984
C18   C     C_R   0.263672 0.500163 0.442588 0.838147
C19   C     C_R   0.736522 0.500013 0.557296 0.839795
C20   C     C_R   0.433387 0.413611 0.060151 -0.131664
C21   C     C_R   0.568339 0.585062 0.940459 -0.140555
C22   C     C_R   0.431360 0.413900 0.910744 0.354513
C23   C     C_R   0.567042 0.587076 0.088916 0.341073
C24   C     C_2   0.131515 0.481492 0.413453 -0.394846
Cu1   Cu    Cu3+1 0.500000 0.500020 0.640660 0.954397
Cu2   Cu    Cu3+1 0.500000 0.499980 0.359340 0.957412
H1    H     H_    0.381956 0.343584 0.105855 0.161456
H2    H     H_    0.887836 0.509884 0.221590 0.212716
H3    H     H_    0.160167 0.697734 0.543365 0.253079
H4    H     H_    0.246740 0.620102 0.770979 0.250137
H5    H     H_    0.111077 0.525759 0.773008 0.216687
H6    H     H_    0.107116 0.691014 0.795140 0.226790
H7    H     H_    0.416021 0.239931 0.822270 0.259019
H8    H     H_    0.178704 0.290632 0.728897 0.246058
H9    H     H_    0.204827 0.362337 0.902347 0.209891
H10   H     H_    0.234467 0.199697 0.888860 0.247248
H11   H     H_    0.731894 0.667844 0.184069 0.234275
H12   H     H_    0.624010 0.651991 0.896204 0.152649
H13   H     H_    0.622432 0.835189 0.040906 0.227436
H14   H     H_    0.650261 0.866526 0.230130 0.232792
H15   H     H_    0.499962 0.813397 0.138151 0.240838
H16   H     H_    0.291222 0.218954 0.297515 0.071070
H17   H     H_    0.708525 0.780933 0.702088 0.074671
H18   H     H_    0.907384 0.579205 0.672750 0.158387
H19   H     H_    0.095891 0.412199 0.333659 0.161300
H20   H     H_    0.357269 0.878136 0.315261 0.179548
H21   H     H_    0.641843 0.121851 0.685335 0.181992
H22   H     H_    0.831171 0.315799 0.425712 0.257589
H23   H     H_    0.754000 0.408734 0.204100 0.239258
H24   H     H_    0.897777 0.348098 0.179808 0.227056
N1    N     N_R   0.500030 0.500030 0.852080 -0.195914
N2    N     N_R   0.499970 0.499970 0.147920 -0.192474
N3    N     N_2   0.888575 0.381265 0.393034 -0.431276
N4    N     N_2   0.105455 0.635390 0.585481 -0.430990
N5    N     N_2   0.365057 0.318935 0.823496 -0.380553
N6    N     N_2   0.638701 0.677747 0.177437 -0.384246
O1    O     O_R   0.499990 0.319660 0.618740 -0.567658
O2    O     O_2   0.745397 0.934442 0.815841 -0.555648
O3    O     O_R   0.500010 0.680340 0.381260 -0.541039
O4    O     O_R   0.499990 0.319630 0.381170 -0.596910
O5    O     O_R   0.500010 0.680370 0.618830 -0.598544
O6    O     O_R   0.320690 0.500020 0.575130 -0.531885
O7    O     O_R   0.679310 0.499980 0.424870 -0.541698
O8    O     O_R   0.320680 0.499990 0.337560 -0.589287
O9    O     O_R   0.679320 0.500010 0.662440 -0.589073
O10   O     O_2   0.256184 0.065983 0.182423 -0.557569

loop_
_geom_bond_atom_site_label_1
_geom_bond_atom_site_label_2
_ccdc_geom_bond_type
H7    N5    S    
C2    C4    D    
Cu2   O7    S    
Cu1   N1    S    
C14   H8    S    
C22   N5    S    
C11   H23   S    
C20   H1    S    
Cu2   N2    S    
C4    N3    S    
C5    C7    A    
Cu2   O3    S    
C13   H6    S    
C11   N3    S    
C21   N1    A    
C17   O2    D    
C15   H13   S    
C15   N6    S    
C6    C9    A    
C17   H17   S    
C14   N5    S    
C3    C24   D    
C8    H21   S    
C23   N6    S    
C20   N2    A    
C11   H24   S    
Cu1   O5    S    
C12   O5    A    
C12   O3    A    
C18   O8    A    
C23   N2    A    
Cu1   O1    S    
C11   H2    S    
C18   C24   S    
C24   H19   S    
C3    N4    S    
C20   C22   A    
C19   O9    A    
C1    O1    A    
Cu1   O6    S    
C21   C23   A    
C14   H10   S    
H22   N3    S    
C9    C12   S    
C15   H14   S    
C16   O10   D    
H3    N4    S    
C21   H12   S    
C3    C4    S    
C7    H20   S    
C16   H16   S    
C13   H4    S    
C5    C10   A    
Cu1   O9    S    
C15   H15   S    
C8    C10   A    
C13   N4    S    
C1    O4    A    
C19   O7    A    
C14   H9    S    
C7    C9    A    
C6    C17   S    
Cu2   O8    S    
C18   O6    A    
C5    C16   S    
C6    C8    A    
Cu1   Cu2   S    
C2    C19   S    
H11   N6    S    
Cu2   O4    S    
C13   H5    S    
C1    C10   S    
C2    H18   S    
C22   N1    A    
