data_mof_unit_57712.cif
_audit_creation_date              2012-12-11T15:08:32-0500
_audit_creation_method            fapswitch 2.2
_symmetry_space_group_name_H-M    P1
_symmetry_Int_Tables_number       1
_space_group_crystal_system       triclinic
_cell_length_a                    26.776545
_cell_length_b                    7.154847
_cell_length_c                    11.981462
_cell_angle_alpha                 90.00235
_cell_angle_beta                  103.574016
_cell_angle_gamma                 89.995807
_cell_volume                      2231.31633169

loop_
_atom_site_label
_atom_site_type_symbol
_atom_type_description
_atom_site_fract_x
_atom_site_fract_y
_atom_site_fract_z
_atom_type_partial_charge
O1    O     O_R   0.437360 0.505910 0.042120 -0.537551
O2    O     O_R   0.562640 0.005910 0.957880 -0.537547
O3    O     O_R   0.542480 0.176660 0.157100 -0.539571
O4    O     O_R   0.457520 0.676660 0.842900 -0.539568
C1    C     C_R   0.556630 0.343681 0.197469 0.687490
C2    C     C_R   0.443372 0.843684 0.802531 0.687504
O5    O     O_R   0.436520 0.176250 0.054800 -0.541355
O6    O     O_R   0.563480 0.676250 0.945200 -0.541359
O7    O     O_R   0.455920 0.005040 0.854840 -0.538640
O8    O     O_R   0.544080 0.505040 0.145160 -0.538635
C3    C     C_R   0.417508 0.344849 0.062526 0.685596
C4    C     C_R   0.582493 0.844836 0.937475 0.685595
O9    O     O_3   0.506490 0.338900 0.934520 -0.375292
O10   O     O_3   0.493510 0.838900 0.065480 -0.375296
V1    V     V_3+5 0.498800 0.064400 0.012150 1.419362
V2    V     V_3+5 0.501200 0.564400 0.987850 1.419374
C5    C     C_R   0.680747 0.870195 0.760472 -0.183229
C6    C     C_R   0.319253 0.370391 0.239523 -0.183222
H1    H     H_    0.598482 0.858831 0.723487 0.104058
H2    H     H_    0.401518 0.359013 0.276512 0.104063
H3    H     H_    0.774379 0.871211 0.723061 0.142695
H4    H     H_    0.225621 0.371515 0.276938 0.142705
H5    H     H_    0.681307 0.872567 0.670313 0.134120
H6    H     H_    0.318693 0.372844 0.329682 0.134131
C7    C     C_R   0.631928 0.854640 0.905740 -0.024233
C8    C     C_R   0.368072 0.354687 0.094260 -0.024235
C9    C     C_R   0.868661 0.872005 0.212859 -0.183340
C10   C     C_R   0.131336 0.371644 0.787134 -0.183331
C11   C     C_R   0.822913 0.881703 0.248362 -0.117321
C12   C     C_R   0.177084 0.381186 0.751622 -0.117177
C13   C     C_R   0.775887 0.882198 0.168076 -0.174416
C14   C     C_R   0.224110 0.381847 0.831907 -0.174385
C15   C     C_R   0.773482 0.872666 0.048843 0.069505
C16   C     C_R   0.226516 0.372606 0.951150 0.069519
C17   C     C_R   0.820677 0.864993 0.013020 0.074094
C18   C     C_R   0.179322 0.365052 0.986979 0.074074
C19   C     C_R   0.725917 0.869479 0.964012 0.063082
C20   C     C_R   0.274082 0.369516 0.035983 0.063091
C21   C     C_R   0.726758 0.871684 0.845795 0.120956
C22   C     C_R   0.273242 0.371834 0.154201 0.120929
C23   C     C_R   0.773521 0.869991 0.813087 -0.246202
C24   C     C_R   0.226480 0.370211 0.186911 -0.246190
C25   C     C_R   0.819669 0.859200 0.895132 -0.233515
C26   C     C_R   0.180330 0.359411 0.104870 -0.233491
C27   C     C_R   0.677450 0.860276 0.991897 -0.226497
C28   C     C_R   0.322551 0.360276 0.008102 -0.226525
C29   C     C_R   0.633632 0.861424 0.790344 -0.184690
C30   C     C_R   0.366368 0.361567 0.209654 -0.184688
C31   C     C_R   0.868101 0.863754 0.096057 -0.078702
C32   C     C_R   0.131898 0.363691 0.903943 -0.078731
H7    H     H_    0.673654 0.853401 0.079395 0.098211
H8    H     H_    0.326349 0.353355 0.920607 0.098220
H9    H     H_    0.904783 0.873588 0.276783 0.102137
H10   H     H_    0.095214 0.373091 0.723209 0.102133
H11   H     H_    0.742204 0.892693 0.202227 0.117770
H12   H     H_    0.257791 0.392191 0.797742 0.117748
H13   H     H_    0.823866 0.889712 0.339096 0.135758
H14   H     H_    0.176129 0.388942 0.660880 0.135738
H15   H     H_    0.854690 0.852772 0.864934 0.131053
H16   H     H_    0.145310 0.353059 0.135073 0.131053
C33   C     C_R   0.090052 0.865283 0.313290 -0.039128
C34   C     C_R   0.909958 0.365318 0.686696 -0.039188
C35   C     C_R   0.408720 0.845163 0.688188 -0.034099
C36   C     C_R   0.591287 0.345147 0.311809 -0.034125
C37   C     C_R   0.106130 0.951200 0.513334 -0.168908
C38   C     C_R   0.893868 0.451755 0.486732 -0.168908
C39   C     C_R   0.072221 0.931560 0.406471 -0.169942
C40   C     C_R   0.927779 0.431905 0.593575 -0.169899
C41   C     C_R   0.142166 0.823740 0.327147 -0.239397
C42   C     C_R   0.857851 0.323644 0.672791 -0.239416
C43   C     C_R   0.178442 0.868982 0.429481 0.079230
C44   C     C_R   0.821570 0.369084 0.570501 0.079198
C45   C     C_R   0.158913 0.919738 0.525624 0.140596
C46   C     C_R   0.841091 0.420185 0.474411 0.140616
C47   C     C_R   0.233009 0.858996 0.440806 0.013154
C48   C     C_R   0.767005 0.359033 0.559173 0.013157
C49   C     C_R   0.266169 0.870425 0.553972 0.032669
C50   C     C_R   0.733838 0.370690 0.446027 0.032674
C51   C     C_R   0.244113 0.906232 0.648252 -0.185635
C52   C     C_R   0.755885 0.406979 0.351792 -0.185603
C53   C     C_R   0.191896 0.936237 0.633486 -0.207109
C54   C     C_R   0.808100 0.437024 0.366582 -0.207169
C55   C     C_R   0.256274 0.846553 0.344669 0.064757
C56   C     C_R   0.743749 0.346404 0.655312 0.064744
C57   C     C_R   0.308443 0.801456 0.363748 -0.230151
C58   C     C_R   0.691585 0.301265 0.636228 -0.230136
C59   C     C_R   0.340469 0.804176 0.473324 0.104775
C60   C     C_R   0.659553 0.304090 0.526655 0.104779
C61   C     C_R   0.320480 0.849394 0.569358 0.080071
C62   C     C_R   0.679531 0.349483 0.430632 0.080052
C63   C     C_R   0.393366 0.774597 0.486091 -0.157800
C64   C     C_R   0.606660 0.274431 0.513889 -0.157793
C65   C     C_R   0.427129 0.792606 0.593101 -0.172561
C66   C     C_R   0.572890 0.292499 0.406892 -0.172554
C67   C     C_R   0.356019 0.872904 0.676841 -0.210620
C68   C     C_R   0.643986 0.372945 0.323150 -0.210589
H17   H     H_    0.177040 0.968549 0.708039 0.141253
H18   H     H_    0.822949 0.469689 0.292071 0.141321
H19   H     H_    0.344361 0.910146 0.754028 0.096105
H20   H     H_    0.655636 0.410125 0.245948 0.096093
H21   H     H_    0.467691 0.765683 0.601866 0.102008
H22   H     H_    0.532331 0.265520 0.398130 0.102021
H23   H     H_    0.325736 0.786601 0.290913 0.138983
H24   H     H_    0.674300 0.286287 0.709065 0.138993
H25   H     H_    0.091304 0.995397 0.585892 0.114977
H26   H     H_    0.908688 0.496264 0.414228 0.114966
H27   H     H_    0.032029 0.966301 0.396565 0.104386
H28   H     H_    0.967963 0.466782 0.603521 0.104423
H29   H     H_    0.153617 0.759697 0.256485 0.124877
H30   H     H_    0.846401 0.259411 0.743393 0.124913
H31   H     H_    0.266158 0.914140 0.735605 0.127068
H32   H     H_    0.733831 0.415329 0.264465 0.127059
H33   H     H_    0.408699 0.738316 0.412834 0.114669
H34   H     H_    0.591335 0.238037 0.587138 0.114669
O11   O     O_R   0.955980 0.206520 0.854760 -0.538665
O12   O     O_R   0.044020 0.706520 0.145240 -0.538663
O13   O     O_R   0.063490 0.536770 0.945200 -0.538137
O14   O     O_R   0.936510 0.036770 0.054800 -0.538128
C69   C     C_R   0.082473 0.368770 0.937168 0.677355
C70   C     C_R   0.917526 0.868784 0.062831 0.677348
O15   O     O_R   0.957530 0.536190 0.842880 -0.540020
O16   O     O_R   0.042470 0.036190 0.157120 -0.540009
O17   O     O_R   0.937350 0.707210 0.042130 -0.539763
O18   O     O_R   0.062650 0.207210 0.957870 -0.539753
C71   C     C_R   0.943779 0.368088 0.802134 0.689673
C72   C     C_R   0.056221 0.868086 0.197866 0.689670
O19   O     O_3   0.993540 0.373870 0.065440 -0.374360
O20   O     O_3   0.006460 0.873870 0.934560 -0.374367
V3    V     V_3+5 0.001200 0.648440 0.987860 1.411965
V4    V     V_3+5 0.998800 0.148440 0.012140 1.412005
C73   C     C_3   0.233848 0.936876 0.228594 -0.375858
C74   C     C_3   0.225740 0.804299 0.125680 -0.323407
C75   C     C_3   0.208972 0.904586 0.011027 -0.743682
H35   H     H_    0.172677 0.981937 0.006810 0.240315
H36   H     H_    0.239709 0.000265 0.998610 0.235102
H37   H     H_    0.202041 0.800475 0.940291 0.222114
H38   H     H_    0.262036 0.730537 0.125840 0.215702
H39   H     H_    0.195214 0.704992 0.129962 0.218249
H40   H     H_    0.198516 0.017542 0.227768 0.189395
H41   H     H_    0.262882 0.038327 0.215836 0.208273
C76   C     C_3   0.766172 0.436711 0.771391 -0.375890
C77   C     C_3   0.774312 0.304134 0.874297 -0.323415
C78   C     C_3   0.791139 0.404431 0.988939 -0.743570
H42   H     H_    0.827433 0.481722 0.993070 0.240267
H43   H     H_    0.760427 0.500185 0.001428 0.235076
H44   H     H_    0.798093 0.300337 0.059681 0.222195
H45   H     H_    0.738017 0.230435 0.874210 0.215681
H46   H     H_    0.804818 0.204771 0.869936 0.218241
H47   H     H_    0.801495 0.517402 0.772201 0.189437
H48   H     H_    0.737130 0.538125 0.784176 0.208262

loop_
_geom_bond_atom_site_label_1
_geom_bond_atom_site_label_2
_ccdc_geom_bond_type
C78   H44   S    
C38   C40   A    
O16   C72   A    
C59   C63   A    
C61   C67   A    
C9    C11   A    
C23   C25   A    
C60   C62   A    
O1    C3    A    
C44   C48   A    
C58   H24   S    
O20   V3    S    
C48   C56   A    
C2    O7    A    
C76   H47   S    
C21   C23   A    
H4    C24   S    
C69   O18   A    
C50   C62   A    
O5    C3    A    
C49   C61   A    
C5    H5    S    
C68   H20   S    
C6    H6    S    
C10   C32   A    
C20   C22   A    
C48   C50   A    
O13   C69   A    
C67   H19   S    
C31   C70   S    
C27   H7    S    
C74   H39   S    
C78   H42   S    
C38   C46   A    
C35   C67   A    
C58   C60   A    
C34   C42   A    
C5    C21   A    
C45   C53   A    
C41   C43   A    
C6    C22   A    
C73   H41   S    
C42   H30   S    
C41   H29   S    
C47   C55   A    
O12   V3    S    
C60   C64   A    
C18   C32   A    
C74   C75   S    
C37   C39   A    
C17   C31   A    
C75   H37   S    
C13   C15   A    
C33   C72   S    
C17   C25   A    
C7    C29   A    
C16   C18   A    
C57   H23   S    
C70   O17   A    
C25   H15   S    
C22   C24   A    
O2    C4    A    
O6    V2    S    
O12   C72   A    
O17   V3    S    
C54   H18   S    
C24   C26   A    
C46   C54   A    
C37   H25   S    
C76   H48   S    
C49   C51   A    
C43   C47   A    
C77   C78   S    
C57   C59   A    
C32   C69   S    
C77   H46   S    
C36   C68   A    
C44   C46   A    
C37   C45   A    
C65   H21   S    
C51   C53   A    
C10   H10   S    
C3    C8    S    
C74   H38   S    
C15   C19   A    
C63   H33   S    
C1    C36   S    
C6    C30   A    
C14   C16   A    
C2    C35   S    
O4    V2    S    
O19   V3    S    
O15   C71   A    
O14   V4    S    
C63   C65   A    
C33   C39   A    
O6    C4    A    
C52   H32   S    
C64   C66   A    
C50   C52   A    
O18   V4    S    
O1    V2    S    
O2    V1    S    
C47   C49   A    
H2    C30   S    
H3    C23   S    
C52   C54   A    
C55   C57   A    
C11   H13   S    
C59   C61   A    
C75   H35   S    
C18   C26   A    
O4    C2    A    
C19   C27   A    
C73   C74   S    
C7    C27   A    
O13   V3    S    
C43   C45   A    
C33   C41   A    
C78   H43   S    
C16   C20   A    
C77   H45   S    
C5    C29   A    
O15   V3    S    
O3    C1    A    
O20   V4    S    
C34   C71   S    
C9    H9    S    
C62   C68   A    
C8    C30   A    
C35   C65   A    
O11   C71   A    
C51   H31   S    
C4    C7    S    
C10   C12   A    
C55   C73   S    
O7    V1    S    
O19   V4    S    
C36   C66   A    
C1    O8    A    
C11   C13   A    
O8    V2    S    
C76   C77   S    
C28   H8    S    
C12   C14   A    
C39   H27   S    
C38   H26   S    
C53   H17   S    
C56   C76   S    
C26   H16   S    
C12   H14   S    
O5    V1    S    
C15   C17   A    
C14   H12   S    
H1    C29   S    
C34   C40   A    
O14   C70   A    
C20   C28   A    
C73   H40   S    
C8    C28   A    
C66   H22   S    
C19   C21   A    
O9    V2    S    
C75   H36   S    
O10   V1    S    
C56   C58   A    
O3    V1    S    
C42   C44   A    
C40   H28   S    
C13   H11   S    
C64   H34   S    
O16   V4    S    
C9    C31   A    
O11   V4    S    
