data_mof_unit_64585.cif
_audit_creation_date              2012-12-10T16:42:42-0500
_audit_creation_method            fapswitch 2.2
_symmetry_space_group_name_H-M    P1
_symmetry_Int_Tables_number       1
_space_group_crystal_system       triclinic
_cell_length_a                    19.018936
_cell_length_b                    18.896148
_cell_length_c                    19.126612
_cell_angle_alpha                 109.580115
_cell_angle_beta                  110.006834
_cell_angle_gamma                 109.292042
_cell_volume                      5260.69934726

loop_
_atom_site_label
_atom_site_type_symbol
_atom_type_description
_atom_site_fract_x
_atom_site_fract_y
_atom_site_fract_z
_atom_type_partial_charge
C1    C     C_R   0.385994 0.382082 0.502923 0.874571
C2    C     C_R   0.757911 0.580071 0.755147 0.070328
C3    C     C_R   0.811926 0.499853 0.812686 -0.177255
C4    C     C_R   0.741812 0.419856 0.738787 0.065317
C5    C     C_R   0.673979 0.419967 0.678292 0.089095
C6    C     C_R   0.684235 0.500072 0.684716 -0.153003
C7    C     C_R   0.737353 0.339207 0.723514 -0.138278
C8    C     C_R   0.663418 0.260900 0.655761 -0.133274
C9    C     C_R   0.592711 0.261014 0.601890 -0.138187
C10   C     C_R   0.597535 0.339421 0.612658 -0.084648
C11   C     C_2   0.264052 0.241233 0.572520 -0.247865
C12   C     C_R   0.618047 0.500171 0.618032 0.798013
C13   C     C_2   0.182414 0.191140 0.505942 -0.379505
C14   C     C_2   0.327841 0.317002 0.578540 0.421042
C15   C     C_2   0.325305 0.313103 0.505763 -0.431652
C16   C     C_2   0.175208 0.425717 0.180049 -0.156690
C17   C     C_2   0.184757 0.497499 0.175900 -0.296949
C18   C     C_2   0.248483 0.425749 0.240903 -0.135858
C19   C     C_2   0.309860 0.497141 0.317663 -0.259683
C20   C     C_2   0.735841 0.759143 0.427790 -0.221661
C21   C     C_2   0.817629 0.808858 0.494077 -0.373078
C22   C     C_2   0.671674 0.683712 0.421889 0.418979
C23   C     C_R   0.614286 0.617939 0.497355 0.889576
C24   C     C_2   0.675306 0.686888 0.494802 -0.431095
C25   C     C_R   0.994869 0.381881 0.877993 0.836114
C26   C     C_R   0.878737 0.499897 0.878902 0.784895
C27   C     C_R   0.998993 0.618157 0.115799 0.840184
C28   C     C_R   0.115441 0.498568 0.113213 0.842625
C29   C     C_R   0.001367 0.119265 0.617059 0.840613
C30   C     C_R   0.117494 0.119233 0.501685 0.875177
C31   C     C_R   0.998737 0.880906 0.382887 0.845036
C32   C     C_R   0.882518 0.880741 0.498291 0.877317
C33   C     C_2   0.990747 0.249910 0.674826 -0.150947
C34   C     C_R   0.379876 0.498261 0.381897 0.868940
C35   C     C_2   0.007444 0.189513 0.685442 -0.306258
C36   C     C_2   0.002277 0.322785 0.747158 -0.146032
C37   C     C_2   0.987585 0.312465 0.807737 -0.315567
C38   C     C_2   0.009200 0.750298 0.323074 -0.146045
C39   C     C_2   0.992655 0.811259 0.313955 -0.300009
C40   C     C_2   0.995855 0.677411 0.249180 -0.133963
C41   C     C_2   0.007364 0.687477 0.187047 -0.311066
C42   C     C_R   0.773236 0.660776 0.759882 -0.135844
C43   C     C_R   0.840695 0.739049 0.833977 -0.130484
C44   C     C_R   0.894205 0.738853 0.904595 -0.136639
C45   C     C_R   0.883384 0.660402 0.899596 -0.129986
C46   C     C_R   0.818141 0.579919 0.823022 0.078772
Cu1   Cu    Cu3+1 0.500390 0.438990 0.439360 1.030738
Cu2   Cu    Cu3+1 0.499610 0.561010 0.560640 1.039885
Cu3   Cu    Cu3+1 0.935830 0.439030 0.996840 0.973855
Cu4   Cu    Cu3+1 0.057850 0.561040 0.996790 0.967430
Cu5   Cu    Cu3+1 0.061410 0.000010 0.561410 0.974129
Cu6   Cu    Cu3+1 0.938590 0.999990 0.438590 0.971092
H1    H     H_    0.534308 0.200134 0.550754 0.139683
H2    H     H_    0.160591 0.206911 0.455846 0.160766
H3    H     H_    0.280485 0.252437 0.444719 0.128577
H4    H     H_    0.114329 0.364800 0.135010 0.162501
H5    H     H_    0.248077 0.555817 0.214183 0.165444
H6    H     H_    0.248906 0.365069 0.224490 0.161464
H7    H     H_    0.304325 0.555078 0.337972 0.147583
H8    H     H_    0.716765 0.771494 0.374737 0.195937
H9    H     H_    0.839580 0.792937 0.544017 0.157896
H10   H     H_    0.734212 0.664814 0.706618 0.136635
H11   H     H_    0.721227 0.746890 0.556250 0.122196
H12   H     H_    0.973300 0.248875 0.614007 0.166852
H13   H     H_    0.034010 0.195854 0.748754 0.158866
H14   H     H_    0.018603 0.383966 0.748003 0.168204
H15   H     H_    0.961967 0.248787 0.801726 0.153950
H16   H     H_    0.027448 0.750680 0.383635 0.166506
H17   H     H_    0.965270 0.805503 0.250969 0.158007
H18   H     H_    0.980685 0.616295 0.248265 0.167732
H19   H     H_    0.032054 0.751034 0.192735 0.148885
H20   H     H_    0.850688 0.800059 0.836973 0.135460
H21   H     H_    0.945103 0.799703 0.963080 0.135386
H22   H     H_    0.926320 0.664075 0.956729 0.144969
H23   H     H_    0.790697 0.335240 0.762842 0.146364
H24   H     H_    0.660596 0.199923 0.645815 0.140935
H25   H     H_    0.540309 0.335629 0.569409 0.153858
H26   H     H_    0.283200 0.229150 0.625769 0.208330
O1    O     O_R   0.411310 0.359450 0.448800 -0.616860
O2    O     O_R   0.048900 0.462510 0.908320 -0.571256
O3    O     O_R   0.855710 0.448510 0.907250 -0.576083
O4    O     O_R   0.958760 0.551540 0.907200 -0.593392
O5    O     O_R   0.944780 0.537560 0.085320 -0.567949
O6    O     O_R   0.047820 0.640590 0.085270 -0.596133
O7    O     O_R   0.034920 0.448530 0.086440 -0.583542
O8    O     O_R   0.137970 0.551560 0.086390 -0.578519
O9    O     O_R   0.051300 0.089020 0.640330 -0.585105
O10   O     O_R   0.947570 0.089010 0.536620 -0.582163
O11   O     O_R   0.140880 0.089030 0.551840 -0.578254
O12   O     O_R   0.410660 0.462490 0.551220 -0.513255
O13   O     O_R   0.037150 0.089020 0.448130 -0.590532
O14   O     O_R   0.052430 0.910990 0.463380 -0.581266
O15   O     O_R   0.948700 0.910980 0.359670 -0.583494
O16   O     O_R   0.962850 0.910980 0.551870 -0.589537
O17   O     O_R   0.859120 0.910970 0.448160 -0.579994
O18   O     O_R   0.589930 0.448490 0.538390 -0.611164
O19   O     O_R   0.589280 0.551530 0.640800 -0.551188
O20   O     O_R   0.589340 0.537510 0.448780 -0.515700
O21   O     O_R   0.588690 0.640550 0.551200 -0.611151
O22   O     O_R   0.410720 0.448470 0.359200 -0.546756
O23   O     O_R   0.410070 0.551510 0.461610 -0.601038
O24   O     O_R   0.945860 0.359480 0.908360 -0.597792
S1    S     S_3+6 0.409809 0.406359 0.683184 0.037547
O25   O     O_2   0.497226 0.428856 0.692530 -0.273726
O26   O     O_2   0.398093 0.483827 0.696857 -0.266877
O27   O     O_3   0.405338 0.381958 0.759017 -0.499137
H27   H     H_    0.354352 0.383664 0.760537 0.349125
S2    S     S_3+6 0.587577 0.595727 0.317320 0.039400
O28   O     O_2   0.598923 0.517848 0.300968 -0.218748
O29   O     O_2   0.501094 0.573297 0.310553 -0.315133
O30   O     O_3   0.590382 0.621215 0.241687 -0.499385
H28   H     H_    0.564851 0.659332 0.243642 0.343868

loop_
_geom_bond_atom_site_label_1
_geom_bond_atom_site_label_2
_ccdc_geom_bond_type
C32   O16   A    
C43   H20   S    
C25   O2    A    
C23   O21   A    
O30   H28   S    
Cu1   O1    S    
Cu4   O6    S    
C7    C8    A    
C45   C46   A    
C2    C46   A    
Cu2   O19   S    
C1    O12   A    
Cu1   O20   S    
C40   H18   S    
C36   C37   D    
C4    C7    A    
C6    C12   S    
C5    C6    A    
C11   C14   S    
C36   H14   S    
C25   O24   A    
O27   H27   S    
C35   H13   S    
C8    H24   S    
C33   C36   S    
S2    O28   D    
Cu6   O17   S    
C18   C19   D    
Cu3   O3    S    
C29   O10   A    
C25   C37   S    
C18   H6    S    
C31   C39   S    
C16   C17   D    
C34   O22   A    
C23   C24   S    
C1    C15   S    
C20   H8    S    
C9    C10   A    
C42   H10   S    
C21   H9    S    
C41   H19   S    
C26   O4    A    
Cu2   O12   S    
C2    C6    A    
C30   O11   A    
C10   H25   S    
C21   C32   S    
C34   O23   A    
Cu5   Cu6   S    
Cu3   O7    S    
C13   C30   S    
Cu6   O10   S    
Cu5   O9    S    
Cu3   O24   S    
C8    C9    A    
C7    H23   S    
C19   H7    S    
C31   O15   A    
Cu1   O22   S    
C45   H22   S    
C15   H3    S    
C43   C44   A    
C16   H4    S    
C11   H26   S    
Cu5   O14   S    
C27   C41   S    
Cu1   Cu2   S    
Cu1   O18   S    
C23   O20   A    
C39   H17   S    
Cu6   O15   S    
S1    O26   D    
C12   O19   A    
C40   C41   D    
C20   C22   S    
C31   O14   A    
C26   O3    A    
C28   O8    A    
C1    O1    A    
C22   C24   D    
C9    H1    S    
C42   C43   A    
C3    C4    A    
C28   O7    A    
C44   C45   A    
Cu4   O4    S    
C13   H2    S    
Cu2   O21   S    
C27   O6    A    
C17   C28   S    
C3    C26   S    
C38   H16   S    
C30   O13   A    
C19   C34   S    
Cu4   O2    S    
C24   H11   S    
C29   C35   S    
C3    C46   A    
S2    O30   S    
Cu3   O5    S    
C27   O5    A    
C5    C10   A    
Cu5   O11   S    
C38   C40   S    
C11   C13   D    
C14   S1    S    
C38   C39   D    
C2    C42   A    
C33   H12   S    
C22   S2    S    
Cu2   O23   S    
C37   H15   S    
C33   C35   D    
S2    O29   D    
S1    O27   S    
C44   H21   S    
C29   O9    A    
Cu4   O8    S    
Cu5   O16   S    
C4    C5    A    
C32   O17   A    
C20   C21   D    
C16   C18   S    
Cu3   Cu4   S    
S1    O25   D    
C14   C15   D    
C12   O18   A    
Cu6   O13   S    
C17   H5    S    
