data_mof_unit_13394.cif
_audit_creation_date              2012-12-10T18:39:28-0500
_audit_creation_method            fapswitch 2.2
_symmetry_space_group_name_H-M    P1
_symmetry_Int_Tables_number       1
_space_group_crystal_system       triclinic
_cell_length_a                    15.732652
_cell_length_b                    11.569029
_cell_length_c                    10.776173
_cell_angle_alpha                 90.003015
_cell_angle_beta                  90.24203
_cell_angle_gamma                 90.00164
_cell_volume                      1961.36998691

loop_
_atom_site_label
_atom_site_type_symbol
_atom_type_description
_atom_site_fract_x
_atom_site_fract_y
_atom_site_fract_z
_atom_type_partial_charge
C1    C     C_R   0.499999 0.281149 0.499998 0.903947
C2    C     C_R   0.337632 0.499857 0.499667 0.911733
C3    C     C_R   0.662368 0.499865 0.500333 0.911740
C4    C     C_1   0.500001 0.059120 0.499997 -0.006842
C5    C     C_1   0.500000 0.161020 0.499995 -0.193709
C6    C     C_1   0.500000 0.500037 0.069754 0.026188
C7    C     C_1   0.500000 0.500037 0.930246 0.026188
C8    C     C_R   0.500001 0.718837 0.500002 0.911273
C9    C     C_3   0.051877 0.465447 0.607940 -0.405301
C10   C     C_3   0.044767 0.471928 0.379165 -0.465343
C11   C     C_3   0.955228 0.471881 0.620814 -0.465337
C12   C     C_1   0.750914 0.509947 0.501757 -0.187151
C13   C     C_3   0.948117 0.465499 0.392036 -0.405297
C14   C     C_1   0.500002 0.940820 0.500002 -0.012488
C15   C     C_1   0.500002 0.838934 0.500005 -0.199767
C16   C     C_R   0.103301 0.726675 0.608791 0.100066
C17   C     C_R   0.082353 0.704025 0.734773 -0.128767
C18   C     C_R   0.129056 0.750205 0.833494 -0.147119
C19   C     C_R   0.200091 0.818187 0.811030 -0.109068
C20   C     C_R   0.224921 0.839468 0.689607 -0.133724
C21   C     C_R   0.178267 0.794059 0.590329 -0.154195
C22   C     C_R   0.084534 0.739638 0.375167 0.066508
C23   C     C_1   0.249086 0.509936 0.498246 -0.187147
C24   C     C_R   0.057188 0.855343 0.353926 -0.138300
C25   C     C_R   0.086855 0.921625 0.254836 -0.125394
C26   C     C_R   0.146353 0.876542 0.173536 -0.117485
C27   C     C_R   0.176282 0.764941 0.191235 -0.153012
C28   C     C_R   0.146821 0.697934 0.290041 -0.186603
C29   C     C_R   0.915485 0.739593 0.624966 0.066508
C30   C     C_R   0.853191 0.697863 0.710065 -0.186591
C31   C     C_R   0.823733 0.764835 0.808904 -0.153012
C32   C     C_R   0.853674 0.876424 0.826667 -0.117535
C33   C     C_R   0.913180 0.921531 0.745396 -0.125381
C34   C     C_3   0.082800 0.535986 0.493108 0.290847
C35   C     C_R   0.942843 0.855285 0.646272 -0.138304
C36   C     C_R   0.896716 0.726735 0.391337 0.100057
C37   C     C_R   0.821762 0.794130 0.409838 -0.154188
C38   C     C_R   0.775128 0.839621 0.310587 -0.133740
C39   C     C_R   0.799960 0.818398 0.189153 -0.109093
C40   C     C_R   0.870975 0.750390 0.166648 -0.147121
C41   C     C_R   0.917663 0.704139 0.265341 -0.128760
C42   C     C_3   0.917200 0.535992 0.506908 0.290838
C43   C     C_3   0.946656 0.670479 0.505140 -0.019077
C44   C     C_3   0.053356 0.670476 0.494954 -0.019076
C45   C     C_1   0.825764 0.521706 0.504746 -0.109366
C46   C     C_1   0.174236 0.521694 0.495262 -0.109361
H1    H     H_    0.929307 0.382345 0.625958 0.180102
H2    H     H_    0.109998 0.732506 0.928001 0.135083
H3    H     H_    0.236487 0.853275 0.887715 0.118959
H4    H     H_    0.281277 0.890514 0.671959 0.135033
H5    H     H_    0.203822 0.811312 0.499486 0.152701
H6    H     H_    0.008509 0.894916 0.407596 0.122857
H7    H     H_    0.062789 0.008317 0.240633 0.123100
H8    H     H_    0.169169 0.928033 0.096734 0.121288
H9    H     H_    0.223101 0.729892 0.128193 0.133808
H10   H     H_    0.175254 0.614122 0.295385 0.148352
H11   H     H_    0.824751 0.614054 0.704674 0.148353
H12   H     H_    0.930586 0.372754 0.404293 0.178329
H13   H     H_    0.776908 0.729768 0.871924 0.133839
H14   H     H_    0.830863 0.927885 0.903497 0.121271
H15   H     H_    0.937257 0.008213 0.759650 0.123109
H16   H     H_    0.991525 0.894873 0.592622 0.122853
H17   H     H_    0.796205 0.811338 0.500689 0.152706
H18   H     H_    0.718788 0.890689 0.328264 0.135032
H19   H     H_    0.763588 0.853565 0.112494 0.118959
H20   H     H_    0.890034 0.732736 0.072132 0.135107
H21   H     H_    0.971374 0.652349 0.240034 0.138040
H22   H     H_    0.069399 0.372705 0.595626 0.178323
H23   H     H_    0.070680 0.382392 0.373970 0.180099
H24   H     H_    0.060535 0.511069 0.289013 0.167286
H25   H     H_    0.084577 0.489091 0.695503 0.173205
H26   H     H_    0.915419 0.489186 0.304488 0.173201
H27   H     H_    0.939463 0.510985 0.710988 0.167287
H28   H     H_    0.028633 0.652237 0.760050 0.138043
N1    N     N_1   0.500000 0.500010 0.180630 -0.080319
N2    N     N_1   0.500000 0.500010 0.819370 -0.080319
O1    O     O_R   0.500000 0.334450 0.602530 -0.610061
O2    O     O_R   0.500000 0.334450 0.397470 -0.610064
O3    O     O_R   0.377140 0.500000 0.602580 -0.605163
O4    O     O_R   0.377140 0.500000 0.397420 -0.616481
O5    O     O_R   0.622860 0.500000 0.602580 -0.616480
O6    O     O_R   0.622860 0.500000 0.397420 -0.605167
O7    O     O_R   0.500000 0.665550 0.602530 -0.608728
O8    O     O_R   0.500000 0.665550 0.397470 -0.608721
Zn1   Zn    Zn3+2 0.500000 0.500000 0.636920 0.975968
Zn2   Zn    Zn3+2 0.500000 0.500000 0.363080 0.975968

loop_
_geom_bond_atom_site_label_1
_geom_bond_atom_site_label_2
_ccdc_geom_bond_type
C24   H6    S    
C16   C21   A    
C8    O7    A    
C1    O1    A    
C11   H1    S    
C19   C20   A    
O3    Zn1   S    
C28   H10   S    
C6    N1    T    
C41   H21   S    
C26   C27   A    
C29   C30   A    
C1    C5    S    
C36   C37   A    
C25   H7    S    
C30   C31   A    
C27   H9    S    
C30   H11   S    
C11   C42   S    
C18   C19   A    
C31   H13   S    
O4    Zn2   S    
C2    O3    A    
C22   C44   S    
C16   C17   A    
C3    O5    A    
C20   H4    S    
C34   C46   S    
C16   C44   S    
O2    Zn2   S    
C3    C12   S    
O1    Zn1   S    
C23   C46   T    
C22   C28   A    
C29   C43   S    
C1    O2    A    
C39   H19   S    
C36   C41   A    
C26   H8    S    
C13   C42   S    
C37   H17   S    
C38   H18   S    
C38   C39   A    
C34   C44   S    
C24   C25   A    
C11   H27   S    
C39   C40   A    
C12   C45   T    
C13   H12   S    
C25   C26   A    
O6    Zn2   S    
C42   C45   S    
C43   C44   S    
C37   C38   A    
C19   H3    S    
N1    Zn2   S    
C31   C32   A    
C3    O6    A    
C17   C18   A    
C10   C34   S    
C9    C11   S    
C7    N2    T    
C10   H24   S    
C40   C41   A    
O7    Zn1   S    
C8    C15   S    
C17   H28   S    
C22   C24   A    
C42   C43   S    
C32   H14   S    
C21   H5    S    
C8    O8    A    
C9    H25   S    
O8    Zn2   S    
C4    C5    T    
C10   C13   S    
C18   H2    S    
C6    C7    S    
C13   H26   S    
C29   C35   A    
C32   C33   A    
C9    H22   S    
C9    C34   S    
C33   C35   A    
C35   H16   S    
C4    C14   S    
C2    O4    A    
C10   H23   S    
C20   C21   A    
C33   H15   S    
C2    C23   S    
C14   C15   T    
C36   C43   S    
C40   H20   S    
N2    Zn1   S    
O5    Zn1   S    
C27   C28   A    
