data_mof_unit_9407.cif
_audit_creation_date              2012-10-26T21:09:14-0400
_audit_creation_method            fapswitch 2.2
_symmetry_space_group_name_H-M    P1
_symmetry_Int_Tables_number       1
_space_group_crystal_system       triclinic
_cell_length_a                    15.370771
_cell_length_b                    15.751538
_cell_length_c                    9.853105
_cell_angle_alpha                 90.093436
_cell_angle_beta                  89.943469
_cell_angle_gamma                 90.207526
_cell_volume                      2385.54763673

loop_
_atom_site_label
_atom_site_type_symbol
_atom_type_description
_atom_site_fract_x
_atom_site_fract_y
_atom_site_fract_z
_atom_type_partial_charge
C1    C     C_R   0.385251 0.881525 0.500023 0.571371
C2    C     C_2   0.718527 0.220014 0.398860 0.190754
C3    C     C_2   0.205615 0.269866 0.406964 0.252147
C4    C     C_2   0.215169 0.723814 0.398506 0.188634
C5    C     C_2   0.699917 0.837410 0.494183 0.164117
C6    C     C_2   0.662077 0.199486 0.499974 0.198124
C7    C     C_2   0.199108 0.336429 0.493772 0.167153
C8    C     C_2   0.160763 0.700654 0.500942 0.200150
C9    C     C_2   0.286696 0.223122 0.400362 0.280168
C10   C     C_2   0.264684 0.802705 0.407713 0.317948
C11   C     C_2   0.788649 0.724799 0.401290 0.279422
C12   C     C_R   0.380064 0.113662 0.499733 0.537986
C13   C     C_2   0.767638 0.299241 0.405329 0.318324
C14   C     C_2   0.301485 0.165524 0.498617 0.243357
C15   C     C_2   0.328980 0.807553 0.499111 0.335638
C16   C     C_2   0.802087 0.666181 0.498468 0.242355
C17   C     C_2   0.830175 0.306521 0.499309 0.338452
C18   C     C_2   0.449567 0.043723 0.930070 0.366971
C19   C     C_2   0.947425 0.541492 0.929951 0.371127
C20   C     C_2   0.474011 0.061172 0.075386 0.515443
C21   C     C_2   0.970837 0.559949 0.075513 0.520886
C22   C     C_R   0.885438 0.381312 0.500021 0.572699
C23   C     C_R   0.880241 0.613821 0.499742 0.533017
C24   C     C_R   0.613889 0.119778 0.499770 0.577982
C25   C     C_R   0.620156 0.886643 0.499255 0.569691
C26   C     C_R   0.113472 0.620214 0.499833 0.579666
C27   C     C_R   0.119860 0.386323 0.499204 0.569768
C28   C     C_2   0.707527 0.771498 0.406372 0.252089
Cu1   Cu    Cu3+1 0.500020 1.000000 0.638630 1.233116
Cu2   Cu    Cu3+1 0.000020 0.500000 0.638630 1.247609
Cu3   Cu    Cu3+1 0.499980 1.000000 0.361370 1.239284
Cu4   Cu    Cu3+1 0.999980 0.500000 0.361370 1.237348
H1    H     H_    0.687132 0.617776 0.231958 0.370836
H2    H     H_    0.197921 0.853031 0.261985 0.368804
H3    H     H_    0.907929 0.738551 0.338071 0.370497
H4    H     H_    0.702938 0.345879 0.254284 0.367759
H5    H     H_    0.243471 0.092536 0.627965 0.398245
H6    H     H_    0.397865 0.752674 0.639315 0.366015
H7    H     H_    0.743139 0.592573 0.626070 0.398829
H8    H     H_    0.897242 0.254465 0.644513 0.367032
H9    H     H_    0.220210 0.058555 0.011737 0.391907
H10   H     H_    0.717193 0.544958 0.007533 0.393519
H11   H     H_    0.700976 0.062040 0.809537 0.380797
H12   H     H_    0.848981 0.152419 0.109310 0.400485
H13   H     H_    0.234167 0.518770 0.824627 0.401266
H14   H     H_    0.451511 0.180786 0.054070 0.346775
H15   H     H_    0.943814 0.678628 0.053692 0.349167
H16   H     H_    0.494929 0.882468 0.178369 0.409819
H17   H     H_    0.997711 0.382517 0.179559 0.410168
H18   H     H_    0.181672 0.112071 0.242936 0.367010
H19   H     H_    0.337014 0.666381 0.094603 0.398981
H20   H     H_    0.756732 0.794753 0.754132 0.385758
H21   H     H_    0.522538 0.290313 0.764101 0.399951
H22   H     H_    0.253717 0.296587 0.752993 0.390673
H23   H     H_    0.024895 0.786541 0.773869 0.399104
H24   H     H_    0.405124 0.237466 0.333997 0.372148
N1    N     N_2   0.498660 1.000000 0.846910 -0.117463
N2    N     N_2   0.998660 0.500000 0.846910 -0.104470
N3    N     N_2   0.498630 0.000000 0.153040 -0.020955
N4    N     N_2   0.998630 0.500000 0.153040 -0.022131
O1    O     O_R   0.410990 0.910970 0.617040 -0.495785
O2    O     O_R   0.589050 0.910970 0.617100 -0.443848
O3    O     O_R   0.089050 0.589030 0.617100 -0.431005
O4    O     O_R   0.089050 0.410970 0.617100 -0.446426
O5    O     O_R   0.589010 0.089030 0.382960 -0.460084
O6    O     O_R   0.589010 0.910970 0.382960 -0.495364
O7    O     O_R   0.089010 0.589030 0.382960 -0.464085
O8    O     O_R   0.089010 0.410970 0.382960 -0.499404
O9    O     O_2   0.534549 0.738731 0.386453 -0.241589
O10   O     O_2   0.614731 0.768085 0.176454 -0.205745
O11   O     O_3   0.635684 0.621879 0.292040 -0.423317
O12   O     O_R   0.410990 0.089030 0.617040 -0.456658
O13   O     O_2   0.754834 0.062968 0.302222 -0.189946
O14   O     O_2   0.676308 0.162301 0.153975 -0.231240
O15   O     O_3   0.841308 0.187037 0.192459 -0.436172
O16   O     O_2   0.031881 0.239640 0.390183 -0.242731
O17   O     O_2   0.111994 0.262217 0.178032 -0.209146
O18   O     O_3   0.130581 0.118766 0.303106 -0.421667
O19   O     O_2   0.251114 0.570228 0.288471 -0.188337
O20   O     O_2   0.165881 0.672169 0.154029 -0.223064
O21   O     O_3   0.331560 0.698658 0.180541 -0.440334
O22   O     O_2   0.790140 0.974194 0.574988 -0.164797
O23   O     O_R   0.910990 0.410970 0.617040 -0.497270
O24   O     O_2   0.876679 0.847051 0.542962 -0.229428
O25   O     O_3   0.776973 0.854465 0.753956 -0.386352
O26   O     O_2   0.694900 0.261249 0.749509 -0.213022
O27   O     O_2   0.637983 0.362647 0.583310 -0.223686
O28   O     O_3   0.531633 0.251987 0.685603 -0.480553
O29   O     O_2   0.290278 0.473409 0.570330 -0.180664
O30   O     O_2   0.376268 0.345852 0.538587 -0.224699
O31   O     O_3   0.278375 0.354707 0.751569 -0.422363
O32   O     O_2   0.196561 0.756063 0.753245 -0.193892
O33   O     O_2   0.139473 0.862167 0.594869 -0.227134
O34   O     O_R   0.910990 0.589030 0.617040 -0.461368
O35   O     O_3   0.032640 0.750373 0.692443 -0.480305
O36   O     O_3   0.345204 0.244832 0.299301 -0.608170
O37   O     O_3   0.248058 0.869225 0.319931 -0.628993
O38   O     O_3   0.848426 0.747323 0.302490 -0.608018
O39   O     O_3   0.751817 0.363800 0.313552 -0.626727
O40   O     O_3   0.236594 0.150919 0.593264 -0.663440
O41   O     O_3   0.345090 0.739881 0.585122 -0.641870
O42   O     O_3   0.736224 0.650940 0.591237 -0.664024
O43   O     O_3   0.845441 0.240441 0.588843 -0.642400
O44   O     O_2   0.328307 0.150190 0.841344 -0.268241
O45   O     O_R   0.410950 0.910970 0.382900 -0.479953
O46   O     O_2   0.305873 0.997249 0.795178 -0.245938
O47   O     O_3   0.281770 0.052744 0.039736 -0.491740
O48   O     O_2   0.823596 0.645895 0.843584 -0.272936
O49   O     O_2   0.805603 0.493466 0.790264 -0.247496
O50   O     O_3   0.778826 0.543728 0.036855 -0.494786
O51   O     O_2   0.638081 0.014435 0.025185 -0.229910
O52   O     O_2   0.613075 0.880167 0.909322 -0.142418
O53   O     O_3   0.679330 0.005845 0.778902 -0.399002
O54   O     O_2   0.136810 0.526892 0.020588 -0.236267
O55   O     O_2   0.116246 0.385734 0.922883 -0.160307
O56   O     O_R   0.410950 0.089030 0.382900 -0.493832
O57   O     O_3   0.179111 0.505932 0.776414 -0.413247
O58   O     O_3   0.468553 0.141949 0.128435 -0.633521
O59   O     O_3   0.962295 0.640545 0.128191 -0.629533
O60   O     O_3   0.482004 0.921943 0.103547 -0.547977
O61   O     O_3   0.984076 0.421394 0.104277 -0.549537
O62   O     O_R   0.910950 0.410970 0.382900 -0.478787
O63   O     O_R   0.910950 0.589030 0.382900 -0.494212
O64   O     O_R   0.589050 0.089030 0.617100 -0.466172
S1    S     S_3+6 0.619494 0.726590 0.313389 0.110864
S2    S     S_3+6 0.836647 0.556835 0.893473 0.067894
S3    S     S_3+6 0.606600 0.974911 0.895517 0.200200
S4    S     S_3+6 0.107259 0.479268 0.896925 0.195042
S5    S     S_3+6 0.746273 0.154121 0.259376 0.104194
S6    S     S_3+6 0.116406 0.224230 0.317586 0.108297
S7    S     S_3+6 0.239492 0.662260 0.252746 0.103193
S8    S     S_3+6 0.789703 0.879257 0.589316 0.125740
S9    S     S_3+6 0.633615 0.272354 0.632181 0.065001
S10   S     S_3+6 0.289800 0.378566 0.586296 0.106486
S11   S     S_3+6 0.134414 0.770777 0.638075 0.077926
S12   S     S_3+6 0.339097 0.061701 0.895059 0.072777

loop_
_geom_bond_atom_site_label_1
_geom_bond_atom_site_label_2
_ccdc_geom_bond_type
O18   S6    S    
Cu3   O6    S    
N2    S4    S    
N3    O60   S    
Cu2   O4    S    
C10   O37   S    
C3    S6    S    
C8    C26   S    
O27   S9    D    
C26   O3    A    
H2    O37   S    
C20   O58   S    
H16   O60   S    
C11   O38   S    
C26   O7    A    
H20   O25   S    
C19   C21   S    
O28   S9    S    
C6    S9    S    
C3    C7    D    
C10   C15   D    
O25   S8    S    
O30   S10   D    
O21   S7    S    
Cu1   O64   S    
C24   O64   A    
C2    S5    S    
C7    C27   S    
H14   O58   S    
H24   O36   S    
Cu3   N3    S    
Cu2   O23   S    
C2    C13   S    
O52   S3    D    
C27   O8    A    
C18   N1    D    
O16   S6    D    
C5    S8    S    
C18   S12   S    
O19   S7    D    
C1    C15   S    
H4    O39   S    
H3    O38   S    
H9    O47   S    
H19   O21   S    
C4    C8    D    
Cu4   O8    S    
Cu1   O12   S    
O46   S12   D    
C12   O12   A    
H17   O61   S    
O20   S7    D    
Cu2   O3    S    
C8    S11   S    
Cu3   O45   S    
Cu4   O63   S    
C2    C6    D    
H18   O18   S    
C22   O62   A    
C4    S7    S    
O13   S5    D    
C19   N2    D    
Cu1   O1    S    
Cu4   O62   S    
C21   N4    D    
H23   O35   S    
C23   O63   A    
O24   S8    D    
O55   S4    D    
C13   O39   S    
H12   O15   S    
C9    C14   D    
O47   S12   S    
C3    C9    S    
C5    C28   D    
O54   S4    D    
C11   C16   D    
O26   S9    D    
C6    C24   S    
O35   S11   S    
C15   O41   S    
C20   N3    D    
C9    O36   S    
C24   O5    A    
O50   S2    S    
Cu4   O7    S    
C5    C25   S    
O10   S1    D    
C16   O42   S    
C12   C14   S    
C16   C23   S    
O51   S3    D    
O32   S11   D    
Cu4   N4    S    
O22   S8    D    
Cu3   O56   S    
C28   S1    S    
H7    O42   S    
H13   O57   S    
Cu3   O5    S    
Cu1   O2    S    
C21   O59   S    
O29   S10   D    
O44   S12   D    
C7    S10   S    
C25   O6    A    
Cu1   N1    S    
O33   S11   D    
C1    O1    A    
N1    S3    S    
C14   O40   S    
O53   S3    S    
C25   O2    A    
H6    O41   S    
C19   S2    S    
C17   C22   S    
C23   O34   A    
C13   C17   D    
C22   O23   A    
C17   O43   S    
H22   O31   S    
Cu2   O34   S    
H11   O53   S    
H8    O43   S    
Cu2   Cu4   S    
O31   S10   S    
C11   C28   S    
Cu2   N2    S    
H15   O59   S    
H21   O28   S    
C18   C20   S    
O17   S6    D    
H10   O50   S    
N4    O61   S    
O57   S4    S    
C27   O4    A    
H1    O11   S    
O9    S1    D    
O49   S2    D    
Cu1   Cu3   S    
O14   S5    D    
O11   S1    S    
O48   S2    D    
C4    C10   S    
H5    O40   S    
O15   S5    S    
C1    O45   A    
C12   O56   A    
