data_mof_unit_5677.cif
_audit_creation_date              2012-12-10T20:45:35-0500
_audit_creation_method            fapswitch 2.2
_symmetry_space_group_name_H-M    P1
_symmetry_Int_Tables_number       1
_space_group_crystal_system       triclinic
_cell_length_a                    10.624323
_cell_length_b                    10.60101
_cell_length_c                    9.978032
_cell_angle_alpha                 88.138905
_cell_angle_beta                  90.820568
_cell_angle_gamma                 90.067342
_cell_volume                      1123.10303496

loop_
_atom_site_label
_atom_site_type_symbol
_atom_type_description
_atom_site_fract_x
_atom_site_fract_y
_atom_site_fract_z
_atom_type_partial_charge
C1    C     C_R   0.499632 0.260777 0.501507 0.874786
C2    C     C_R   0.815100 0.471700 0.972326 -0.176898
C3    C     C_R   0.852473 0.347372 0.000933 -0.140462
C4    C     C_R   0.261694 0.518067 0.498068 0.916704
C5    C     C_R   0.916837 0.280369 0.905086 -0.154794
C6    C     C_R   0.944755 0.338130 0.781075 -0.200861
C7    C     C_R   0.907026 0.463031 0.751450 0.156815
C8    C     C_R   0.600535 0.063534 0.562913 0.106318
C9    C     C_R   0.501248 0.128825 0.501130 -0.071053
C10   C     C_R   0.416819 0.067723 0.415935 -0.226541
C11   C     C_R   0.420017 0.937866 0.411490 -0.226341
C12   C     C_R   0.226995 0.701933 0.014658 -0.099509
C13   C     C_R   0.506856 0.871583 0.492912 -0.069988
C14   C     C_R   0.602069 0.934751 0.560751 0.096291
C15   C     C_3   0.649588 0.922397 0.702276 -0.492400
C16   C     C_R   0.502098 0.739346 0.498267 0.892145
C17   C     C_3   0.650053 0.065537 0.703515 -0.474910
C18   C     C_R   0.493917 0.389539 0.074740 0.195657
C19   C     C_R   0.519134 0.609530 0.064055 0.143059
C20   C     C_R   0.520007 0.606760 0.922001 -0.179542
C21   C     C_R   0.492946 0.389737 0.933216 0.223597
C22   C     C_3   0.390371 0.293720 0.930129 -0.512960
C23   C     C_R   0.933439 0.533269 0.377489 -0.260018
C24   C     C_3   0.392389 0.292591 0.082571 -0.509258
C25   C     C_R   0.740987 0.497680 0.501137 0.869927
C26   C     C_R   0.208973 0.779306 0.122993 -0.220643
C27   C     C_R   0.154688 0.729923 0.239639 -0.138900
C28   C     C_R   0.115284 0.603574 0.246940 0.173612
C29   C     C_R   0.126525 0.528169 0.135019 -0.151209
C30   C     C_R   0.183879 0.577173 0.019442 -0.056944
C31   C     C_3   0.531891 0.741173 0.117567 -0.351073
C32   C     C_3   0.662864 0.768165 0.178311 -0.301712
C33   C     C_3   0.754355 0.820897 0.073928 -0.915202
C34   C     C_R   0.875753 0.510778 0.501615 -0.110906
C35   C     C_2   0.109395 0.672851 0.701077 0.882210
C36   C     C_R   0.944914 0.524303 0.622478 -0.047164
C37   C     C_R   0.067359 0.569271 0.613632 -0.076980
C38   C     C_R   0.129751 0.551413 0.493662 -0.175159
C39   C     C_R   0.061148 0.553411 0.372655 -0.013852
C40   C     C_R   0.840605 0.528935 0.847344 -0.000293
H1    H     H_    0.274636 0.739336 0.927205 0.171460
H2    H     H_    0.746274 0.106532 0.709076 0.206075
H3    H     H_    0.240357 0.876501 0.117837 0.129856
H4    H     H_    0.533969 0.691957 0.862694 0.158817
H5    H     H_    0.301586 0.331200 0.884300 0.207317
H6    H     H_    0.422033 0.203113 0.889495 0.197626
H7    H     H_    0.304594 0.328576 0.126487 0.211004
H8    H     H_    0.426971 0.201877 0.128256 0.204899
H9    H     H_    0.143288 0.789822 0.324525 0.126512
H10   H     H_    0.093901 0.431342 0.138629 0.122921
H11   H     H_    0.195248 0.518655 0.933799 0.132275
H12   H     H_    0.831934 0.303223 0.097501 0.135695
H13   H     H_    0.880076 0.536640 0.284064 0.167699
H14   H     H_    0.808761 0.624081 0.824527 0.146512
H15   H     H_    0.766445 0.523422 0.047258 0.141004
H16   H     H_    0.760101 0.757356 0.988649 0.266233
H17   H     H_    0.722758 0.915472 0.035883 0.263368
H18   H     H_    0.849574 0.830086 0.120007 0.262532
H19   H     H_    0.653725 0.839534 0.256572 0.216832
H20   H     H_    0.703564 0.681632 0.226109 0.245690
H21   H     H_    0.513580 0.814199 0.036938 0.158601
H22   H     H_    0.453394 0.760707 0.183799 0.210516
H23   H     H_    0.946137 0.184106 0.927302 0.138050
H24   H     H_    0.058513 0.804729 0.831789 0.339197
H25   H     H_    0.996676 0.285986 0.708424 0.132571
H26   H     H_    0.345550 0.119740 0.358367 0.148621
H27   H     H_    0.350470 0.889400 0.352077 0.145682
H28   H     H_    0.579079 0.880704 0.771470 0.208675
H29   H     H_    0.745286 0.880204 0.709774 0.214113
H30   H     H_    0.581866 0.104443 0.774465 0.207705
N1    N     N_R   0.499160 0.499140 0.142800 -0.124151
N2    N     N_R   0.499160 0.499180 0.857150 -0.118121
O1    O     O_R   0.500020 0.316790 0.614690 -0.615246
O2    O     O_R   0.025156 0.725229 0.790082 -0.839729
O3    O     O_R   0.500000 0.316760 0.385350 -0.617447
O4    O     O_R   0.316770 0.500030 0.614670 -0.594778
O5    O     O_R   0.316750 0.499990 0.385330 -0.615885
O6    O     O_R   0.500000 0.683240 0.614650 -0.599168
O7    O     O_R   0.499980 0.683210 0.385310 -0.650042
O8    O     O_R   0.683250 0.500010 0.614670 -0.616756
O9    O     O_R   0.683230 0.499970 0.385330 -0.642678
O10   O     O_2   0.212969 0.721330 0.685961 -0.650951
Zn1   Zn    Zn3+2 0.500010 0.500020 0.653130 0.960495
Zn2   Zn    Zn3+2 0.499990 0.499980 0.346870 0.930846

loop_
_geom_bond_atom_site_label_1
_geom_bond_atom_site_label_2
_ccdc_geom_bond_type
C30   H11   S    
C35   O2    S    
C33   H18   S    
C25   O8    A    
C7    C36   S    
C31   H21   S    
C19   N1    A    
C19   C20   A    
C19   C31   S    
C26   C27   A    
C29   C30   A    
C18   C24   S    
C28   C29   A    
C35   C37   S    
C2    H15   S    
O7    Zn2   S    
O3    Zn2   S    
C18   C21   A    
C5    H23   S    
C17   H2    S    
O6    Zn1   S    
C6    H25   S    
C8    C9    A    
C8    C14   A    
C7    C40   A    
C9    C10   A    
C16   O6    A    
C25   C34   S    
C33   H16   S    
C17   H30   S    
C13   C14   A    
C25   O9    A    
C31   H22   S    
O8    Zn1   S    
O4    Zn1   S    
C20   H4    S    
C35   O10   D    
C11   H27   S    
C26   H3    S    
C23   H13   S    
C29   H10   S    
C10   H26   S    
C38   C39   A    
C15   H29   S    
C21   N2    A    
C24   H8    S    
C1    C9    S    
C28   C39   S    
C12   C26   A    
C1    O3    A    
C37   C38   A    
C31   C32   S    
C23   C34   A    
C22   H6    S    
C4    C38   S    
C40   H14   S    
C22   C24   S    
C32   H20   S    
O9    Zn2   S    
C12   H1    S    
N1    Zn2   S    
C18   N1    A    
C15   C17   S    
C36   C37   A    
C33   H17   S    
C12   C30   A    
C24   H7    S    
C3    C5    A    
C3    H12   S    
C6    C7    A    
C8    C17   S    
O5    Zn2   S    
C16   O7    A    
C1    O1    A    
C32   C33   S    
C2    C3    A    
C4    O5    A    
C11   C13   A    
C5    C6    A    
C23   C39   A    
C15   H28   S    
C34   C36   A    
C4    O4    A    
N2    Zn1   S    
C10   C11   A    
C2    C40   A    
C22   H5    S    
C13   C16   S    
C27   C28   A    
H24   O2    S    
C14   C15   S    
C20   N2    A    
C32   H19   S    
C21   C22   S    
O1    Zn1   S    
C27   H9    S    
