data_mof_unit_49691.cif
_audit_creation_date              2012-12-11T15:30:41-0500
_audit_creation_method            fapswitch 2.2
_symmetry_space_group_name_H-M    P1
_symmetry_Int_Tables_number       1
_space_group_crystal_system       triclinic
_cell_length_a                    6.952448
_cell_length_b                    20.423569
_cell_length_c                    24.436804
_cell_angle_alpha                 89.779013
_cell_angle_beta                  90.362589
_cell_angle_gamma                 88.674558
_cell_volume                      3468.84900773

loop_
_atom_site_label
_atom_site_type_symbol
_atom_type_description
_atom_site_fract_x
_atom_site_fract_y
_atom_site_fract_z
_atom_type_partial_charge
O1    O     O_R   0.507310 0.423620 0.460450 -0.533022
O2    O     O_R   0.170760 0.556060 0.437190 -0.536509
O3    O     O_R   0.004040 0.576380 0.539550 -0.538418
C1    C     C_R   0.338218 0.576154 0.421206 0.711696
O4    O     O_R   0.177350 0.422870 0.454070 -0.531737
O5    O     O_R   0.010680 0.442240 0.556560 -0.534370
C2    C     C_R   0.347636 0.398818 0.443477 0.691100
O6    O     O_R   0.500670 0.557760 0.443440 -0.531765
O7    O     O_3   0.340380 0.506510 0.533610 -0.369173
V1    V     V_3+5 0.064130 0.498790 0.493770 1.448408
O8    O     O_R   0.681170 0.443940 0.562810 -0.534126
C3    C     C_R   0.851758 0.423691 0.578509 0.722881
O9    O     O_R   0.674570 0.577130 0.545930 -0.539599
C4    C     C_R   0.841339 0.601341 0.556421 0.685925
V2    V     V_3+5 0.564560 0.501210 0.506230 1.448113
O10   O     O_3   0.838170 0.493490 0.466390 -0.362793
C5    C     C_R   0.979842 0.838098 0.911084 -0.071711
C6    C     C_R   0.840356 0.662272 0.588731 -0.051595
C7    C     C_R   0.060842 0.722997 0.904710 -0.112464
C8    C     C_R   0.045151 0.779947 0.935394 -0.187170
C9    C     C_R   0.926614 0.838679 0.855534 -0.193029
C10   C     C_R   0.931237 0.780358 0.823531 0.028714
C11   C     C_R   0.008975 0.722601 0.848864 0.092335
C12   C     C_R   0.869778 0.777795 0.767074 -0.058488
C13   C     C_R   0.912309 0.719978 0.735462 -0.033910
C14   C     C_R   0.997034 0.665221 0.762327 -0.250897
C15   C     C_R   0.039528 0.665346 0.818357 0.330444
C16   C     C_R   0.761088 0.829418 0.741187 0.396684
C17   C     C_R   0.725707 0.828238 0.685059 -0.279780
C18   C     C_R   0.775369 0.773955 0.653519 0.070483
C19   C     C_R   0.864822 0.718030 0.678059 0.106111
C20   C     C_R   0.725852 0.774299 0.597753 -0.142322
C21   C     C_R   0.756042 0.718790 0.565918 -0.165181
C22   C     C_R   0.897778 0.662111 0.644054 -0.195419
H1    H     H_    0.959449 0.616761 0.659344 0.094096
H2    H     H_    0.708688 0.719326 0.523578 0.103737
H3    H     H_    0.649287 0.869644 0.666468 0.142700
H4    H     H_    0.117415 0.679313 0.924938 0.174201
H5    H     H_    0.088994 0.779023 0.978034 0.127496
H6    H     H_    0.896192 0.886195 0.838028 0.163623
H7    H     H_    0.030195 0.620591 0.740887 0.114763
H8    H     H_    0.656921 0.817053 0.579079 0.112735
C23   C     C_3   0.718604 0.223555 0.777671 -0.457234
C24   C     C_3   0.035738 0.271258 0.804770 0.259484
C25   C     C_3   0.032528 0.317740 0.753734 -0.415079
H9    H     H_    0.649212 0.323324 0.751774 0.145050
H10   H     H_    0.648250 0.242897 0.815019 0.170807
H11   H     H_    0.951127 0.297626 0.836989 0.054704
H12   H     H_    0.978279 0.367198 0.766067 0.108472
H13   H     H_    0.181183 0.324286 0.738315 0.247047
C26   C     C_1   0.867471 0.377649 0.623748 -0.165084
C27   C     C_3   0.932904 0.205967 0.790400 0.065635
C28   C     C_3   0.701970 0.277186 0.732218 0.159105
C29   C     C_3   0.903248 0.290469 0.707163 0.060167
C30   C     C_3   0.996040 0.224226 0.687903 0.169796
C31   C     C_3   0.027028 0.176384 0.737776 0.243886
C32   C     C_1   0.884054 0.338607 0.661229 0.091329
C33   C     C_1   0.945368 0.158414 0.836805 0.018236
C34   C     C_1   0.957701 0.120258 0.874966 -0.207916
H14   H     H_    0.185625 0.171885 0.745743 0.122622
H15   H     H_    0.898394 0.201795 0.657293 0.119280
H16   H     H_    0.640573 0.178740 0.765895 0.211787
C35   C     C_3   0.537257 0.677883 0.247305 0.671983
C36   C     C_3   0.194707 0.719716 0.259864 -0.444628
C37   C     C_3   0.221234 0.767904 0.210100 0.670969
H17   H     H_    0.541609 0.707332 0.159607 0.184777
H18   H     H_    0.089272 0.740630 0.289424 0.120769
H19   H     H_    0.133118 0.672867 0.245726 0.193650
C38   C     C_1   0.477608 0.877849 0.124436 -0.168974
C39   C     C_3   0.388817 0.705951 0.290041 0.171250
C40   C     C_3   0.568672 0.729585 0.200348 -0.443012
C41   C     C_3   0.435368 0.791061 0.207877 0.169478
C42   C     C_3   0.492227 0.821689 0.263654 -0.458431
C43   C     C_3   0.457112 0.773217 0.311633 -0.463950
C44   C     C_1   0.462176 0.839028 0.162104 0.051386
C45   C     C_1   0.362858 0.659226 0.336732 0.031206
C46   C     C_1   0.347201 0.621304 0.375014 -0.185941
H20   H     H_    0.589892 0.767211 0.336876 0.164566
H21   H     H_    0.345991 0.794812 0.339223 0.168935
H22   H     H_    0.647103 0.834351 0.263146 0.184580
H23   H     H_    0.721145 0.744855 0.199660 0.146673
H24   H     H_    0.410948 0.868369 0.270638 0.165093
C47   C     C_R   0.460350 0.162060 0.089046 -0.077962
C48   C     C_R   0.359731 0.336519 0.412919 -0.167432
C49   C     C_R   0.389450 0.279173 0.090501 0.390017
C50   C     C_R   0.431498 0.221389 0.061645 -0.260154
C51   C     C_R   0.455675 0.160559 0.146479 -0.199640
C52   C     C_R   0.414845 0.218270 0.177506 0.022672
C53   C     C_R   0.376600 0.277342 0.148265 0.051372
C54   C     C_R   0.405954 0.219024 0.236241 0.022238
C55   C     C_R   0.359781 0.278844 0.264756 0.001272
C56   C     C_R   0.297851 0.334617 0.233749 0.367468
C57   C     C_R   0.314188 0.333396 0.176408 -0.251048
C58   C     C_R   0.437218 0.161380 0.267507 -0.146216
C59   C     C_R   0.424268 0.161598 0.324123 -0.179185
C60   C     C_R   0.392499 0.219755 0.352546 0.047678
C61   C     C_R   0.368654 0.279676 0.323746 0.110712
C62   C     C_R   0.389204 0.218182 0.409944 -0.152182
C63   C     C_R   0.369277 0.275483 0.440488 0.356336
C64   C     C_R   0.364376 0.338026 0.355340 -0.198149
H25   H     H_    0.266133 0.375592 0.152872 0.174064
H26   H     H_    0.374800 0.385393 0.336345 0.161650
H27   H     H_    0.445319 0.115710 0.346062 0.119507
H28   H     H_    0.437345 0.222453 0.017451 0.095713
H29   H     H_    0.479230 0.113258 0.165241 0.099564
H30   H     H_    0.469149 0.114427 0.249518 0.116469
H31   H     H_    0.403435 0.171799 0.431517 0.137639
O11   O     O_R   0.323590 0.942280 0.056590 -0.527915
O12   O     O_R   0.647030 0.077140 0.045940 -0.537161
O13   O     O_R   0.813570 0.057750 0.943430 -0.534307
C65   C     C_R   0.476505 0.101056 0.056848 0.710027
O14   O     O_R   0.653510 0.943950 0.062820 -0.534290
O15   O     O_R   0.820100 0.923600 0.960440 -0.534915
C66   C     C_R   0.486134 0.923745 0.078733 0.722603
O16   O     O_R   0.317060 0.076430 0.039590 -0.535976
O17   O     O_3   0.483830 0.993520 0.966410 -0.372195
V3    V     V_3+5 0.760140 0.001200 0.006230 1.436117
O18   O     O_R   0.149560 0.922820 0.954030 -0.539378
C67   C     C_R   0.982420 0.898978 0.943218 0.699709
O19   O     O_R   0.143080 0.056020 0.937150 -0.540368
C68   C     C_R   0.972485 0.075599 0.921049 0.721145
V4    V     V_3+5 0.259690 0.998730 0.993720 1.419551
O20   O     O_3   0.986120 0.006480 0.033580 -0.361605
O21   O     O_3   0.116949 0.610066 0.843928 -0.650092
H32   H     H_    0.129337 0.573881 0.817156 0.288320
O22   O     O_3   0.229839 0.258602 0.821360 -0.547646
C69   C     C_3   0.250423 0.255464 0.879210 0.107736
H33   H     H_    0.113096 0.247939 0.901420 0.096361
H34   H     H_    0.309890 0.302241 0.894047 0.127691
C70   C     C_3   0.387993 0.198928 0.894929 -0.709821
H35   H     H_    0.537072 0.216450 0.899452 0.183010
H36   H     H_    0.344717 0.177309 0.934565 0.178310
H37   H     H_    0.385121 0.159629 0.863633 0.235438
O23   O     O_3   0.942790 0.115341 0.725374 -0.565049
C71   C     C_3   0.078064 0.063004 0.731204 0.050152
H38   H     H_    0.151687 0.064124 0.771815 0.118223
H39   H     H_    0.187162 0.065287 0.698169 0.125481
C72   C     C_3   0.974351 0.998479 0.727063 -0.643360
H40   H     H_    0.079159 0.956887 0.731444 0.171397
H41   H     H_    0.866288 0.995395 0.760184 0.246401
H42   H     H_    0.900428 0.994949 0.686798 0.221916
O24   O     O_3   0.564822 0.261500 0.691987 -0.604195
H43   H     H_    0.591495 0.216171 0.679340 0.310871
O25   O     O_3   0.172309 0.235521 0.662064 -0.617498
H44   H     H_    0.210509 0.194161 0.643401 0.299802
O26   O     O_3   0.462350 0.620655 0.224308 -0.647604
H45   H     H_    0.565299 0.600056 0.201728 0.304058
O27   O     O_3   0.180229 0.734710 0.161130 -0.636018
H46   H     H_    0.040568 0.725636 0.160878 0.300470
O28   O     O_3   0.093109 0.822419 0.213843 -0.657778
H47   H     H_    0.103831 0.841393 0.250982 0.262302
O29   O     O_3   0.713247 0.660830 0.273396 -0.654923
H48   H     H_    0.775547 0.701564 0.285158 0.263958
O30   O     O_3   0.364808 0.269102 0.496821 -0.635767
H49   H     H_    0.345093 0.312448 0.514038 0.290671
O31   O     O_3   0.356893 0.337713 0.062932 -0.651392
H50   H     H_    0.370613 0.330403 0.023026 0.283586
O32   O     O_3   0.186398 0.383294 0.259038 -0.555341
C73   C     C_3   0.229222 0.447031 0.240490 0.067324
H51   H     H_    0.152752 0.457852 0.201321 0.143521
H52   H     H_    0.387001 0.453381 0.235426 0.131125
C74   C     C_3   0.155923 0.496890 0.282068 -0.633464
H53   H     H_    0.234367 0.490700 0.321491 0.188805
H54   H     H_    0.178150 0.547229 0.266504 0.214337
H55   H     H_    0.999757 0.490589 0.289128 0.228545
O33   O     O_3   0.682552 0.881586 0.769735 -0.572697
C75   C     C_3   0.496638 0.865389 0.787427 0.076975
H56   H     H_    0.501158 0.820556 0.813620 0.137499
H57   H     H_    0.399094 0.857583 0.751805 0.125820
C76   C     C_3   0.414534 0.921801 0.821125 -0.686280
H58   H     H_    0.409396 0.967439 0.796245 0.207215
H59   H     H_    0.266652 0.910659 0.834428 0.174440
H60   H     H_    0.505906 0.929463 0.857893 0.228481

loop_
_geom_bond_atom_site_label_1
_geom_bond_atom_site_label_2
_ccdc_geom_bond_type
C13   C19   A    
C71   C72   S    
C47   C51   A    
C51   C52   A    
C34   C68   S    
O22   C69   S    
C42   C43   S    
C4    C6    S    
C7    C11   A    
C7    C8    A    
C1    O6    A    
C50   H28   S    
C3    C26   S    
C21   H2    S    
O14   C66   A    
O12   V3    S    
C71   H38   S    
C75   H57   S    
C49   C50   A    
O19   C68   A    
C24   O22   S    
C14   C15   A    
O17   V4    S    
C36   H19   S    
C10   C12   A    
C16   C17   A    
C22   H1    S    
O12   C65   A    
O13   C68   A    
O5    C3    A    
O14   V3    S    
C23   C27   S    
C76   H58   S    
V2    O10   S    
C63   O30   S    
C5    C8    A    
O17   V3    S    
C56   O32   S    
C28   O24   S    
O18   V4    S    
O11   C66   A    
C37   O28   S    
O18   C67   A    
O15   C67   A    
O8    V2    S    
C23   C28   S    
C59   C60   A    
O19   V4    S    
C60   C62   A    
C39   C43   S    
C73   H52   S    
C12   C13   A    
C23   H16   S    
O1    V2    S    
C11   C15   A    
O7    V1    S    
C35   O26   S    
C16   O33   S    
C24   C27   S    
C2    C48   S    
V3    O20   S    
O16   V4    S    
C9    C10   A    
O11   V4    S    
C73   H51   S    
C41   C44   S    
O13   V3    S    
C59   H27   S    
C54   C58   A    
C75   C76   S    
C74   H54   S    
C38   C66   S    
C73   C74   S    
O26   H45   S    
C48   C64   A    
C36   H18   S    
C45   C46   T    
C57   H25   S    
C75   H56   S    
O4    C2    A    
C8    H5    S    
C49   C53   A    
C41   C42   S    
C13   C14   A    
C28   C29   S    
C5    C9    A    
C62   H31   S    
C31   H14   S    
C49   O31   S    
O31   H50   S    
O32   C73   S    
C70   H36   S    
C69   H34   S    
C17   C18   A    
C7    H4    S    
C74   H55   S    
H17   C40   S    
C51   H29   S    
C35   C39   S    
C25   H12   S    
C15   O21   S    
C60   C61   A    
C30   C31   S    
C64   H26   S    
C19   C22   A    
C55   C61   A    
C37   O27   S    
C6    C22   A    
O30   H49   S    
O3    C4    A    
C27   C33   S    
C26   C32   T    
C35   C40   S    
C25   C29   S    
O6    V2    S    
C36   C39   S    
C43   H21   S    
O9    V2    S    
C39   C45   S    
O33   C75   S    
O15   V3    S    
C70   H37   S    
C69   H33   S    
O2    V1    S    
C42   H24   S    
C55   C56   A    
C61   C64   A    
C24   C25   S    
C74   H53   S    
C71   H39   S    
C29   C30   S    
C58   H30   S    
C30   O25   S    
O1    C2    A    
C48   C63   A    
C12   C16   A    
C52   C54   A    
O25   H44   S    
C72   H42   S    
O5    V1    S    
C31   O23   S    
O8    C3    A    
O23   C71   S    
C72   H41   S    
C37   C41   S    
O28   H47   S    
C20   C21   A    
C70   H35   S    
C33   C34   T    
C69   C70   S    
C1    C46   S    
O3    V1    S    
V1    O10   S    
C36   C37   S    
C18   C20   A    
C54   C55   A    
C18   C19   A    
C9    H6    S    
C76   H59   S    
C25   H13   S    
O2    C1    A    
C30   H15   S    
H9    C28   S    
C56   C57   A    
C42   H22   S    
C38   C44   T    
C47   C65   S    
O27   H46   S    
C53   C57   A    
C58   C59   A    
C6    C21   A    
C35   O29   S    
C72   H40   S    
C5    C67   S    
C24   H11   S    
O4    V1    S    
C47   C50   A    
C40   C41   S    
C52   C53   A    
C14   H7    S    
C62   C63   A    
C43   H20   S    
C17   H3    S    
O24   H43   S    
C20   H8    S    
C10   C11   A    
C65   O16   A    
O29   H48   S    
V4    O20   S    
O9    C4    A    
C23   H10   S    
C29   C32   S    
C27   C31   S    
O7    V2    S    
O21   H32   S    
C40   H23   S    
C76   H60   S    
