data_mof_unit_37831.cif
_audit_creation_date              2013-03-05T15:59:35-0500
_audit_creation_method            fapswitch 2.2
_symmetry_space_group_name_H-M    P1
_symmetry_Int_Tables_number       1
_space_group_crystal_system       triclinic
_cell_length_a                    8.256938
_cell_length_b                    12.769359
_cell_length_c                    17.432717
_cell_angle_alpha                 99.266081
_cell_angle_beta                  97.628078
_cell_angle_gamma                 97.7232
_cell_volume                      1775.05554789

loop_
_atom_site_label
_atom_site_type_symbol
_atom_site_description
_atom_site_fract_x
_atom_site_fract_y
_atom_site_fract_z
_atom_type_partial_charge
P1    P     P_3+3 0.996360 0.395990 0.320310 0.466537
O1    O     O_2   0.825360 0.427200 0.308020 -0.361434
O2    O     O_3   0.099050 0.435020 0.406000 -0.423726
O3    O     O_3   0.623690 0.628090 0.355970 -0.405305
O4    O     O_2   0.736182 0.564389 0.222706 -0.395504
O5    O     O_3   0.960348 0.255501 0.297210 -0.558430
O6    O     O_3   0.561331 0.719218 0.218285 -0.530992
H1    H     H_    0.722667 0.816399 0.311717 0.162434
C1    C     C_3   0.560402 0.907564 0.253278 -1.001553
H2    H     H_    0.584214 0.975981 0.303584 0.243502
H3    H     H_    0.642863 0.924474 0.209875 0.270242
P2    P     P_3+3 0.688190 0.753610 0.561600 0.451979
P3    P     P_3+3 0.102895 0.825493 0.400000 0.422339
O7    O     O_2   0.857620 0.767930 0.537920 -0.361838
O8    O     O_3   0.055170 0.686660 0.395490 -0.399066
O9    O     O_2   0.977732 0.878735 0.445156 -0.394490
O10   O     O_3   0.745569 0.805975 0.662893 -0.582486
O11   O     O_3   0.054031 0.851056 0.304645 -0.532510
C2    C     C_3   0.095873 0.768052 0.251226 0.426568
H4    H     H_    0.019432 0.689999 0.252203 0.147952
H5    H     H_    0.228836 0.761397 0.264964 0.043722
C3    C     C_3   0.061691 0.791608 0.168384 -0.947583
H6    H     H_    0.927574 0.793627 0.152060 0.273345
H7    H     H_    0.133102 0.870456 0.165076 0.255601
C4    C     C_3   0.236168 0.793583 0.641700 0.340272
H8    H     H_    0.360494 0.795843 0.624818 0.025792
H9    H     H_    0.141320 0.752630 0.591033 0.143958
C5    C     C_3   0.204132 0.908436 0.664616 -0.525778
H10   H     H_    0.319907 0.960768 0.695838 0.180884
H11   H     H_    0.164994 0.939077 0.610168 0.204569
Ba1   Ba    Ba6+2 0.843240 0.548600 0.461650 1.522011
C6    C     C_3   0.928996 0.211704 0.363171 0.357725
H12   H     H_    0.801672 0.220292 0.372616 0.100443
H13   H     H_    0.018671 0.249612 0.416870 0.137876
C7    C     C_3   0.943514 0.093158 0.346529 -0.878847
H14   H     H_    0.866522 0.053851 0.289614 0.262730
H15   H     H_    0.901870 0.053127 0.393929 0.240130
H16   H     H_    0.074082 0.083941 0.342841 0.266605
C8    C     C_3   0.699374 0.735942 0.712906 0.478989
H17   H     H_    0.618642 0.661703 0.681268 0.136408
C9    C     C_3   0.613702 0.795541 0.775011 -0.898926
H18   H     H_    0.705819 0.855150 0.818370 0.233700
H19   H     H_    0.549153 0.738054 0.806767 0.241875
H20   H     H_    0.524145 0.840683 0.747619 0.255197
P4    P     P_3+3 0.193350 0.604100 0.679700 0.467227
O12   O     O_2   0.364350 0.572830 0.692030 -0.374623
O13   O     O_3   0.090660 0.565070 0.594010 -0.404444
O14   O     O_3   0.566030 0.372000 0.644040 -0.391323
O15   O     O_3   0.234228 0.743663 0.707297 -0.574568
P5    P     P_3+3 0.092755 0.174869 0.602680 0.426127
O16   O     O_3   0.601410 0.366560 0.460070 -0.398571
O17   O     O_3   0.134540 0.313430 0.604520 -0.381683
O18   O     O_2   0.217381 0.123155 0.556094 -0.381535
O19   O     O_3   0.153974 0.155314 0.698612 -0.547777
Ba2   Ba    Ba6+2 0.346590 0.451490 0.538360 1.520048
P6    P     P_3+3 0.579876 0.598985 0.252773 0.453151
C10   C     C_3   0.591848 0.805103 0.282533 0.461156
H21   H     H_    0.507663 0.791310 0.325881 0.044789
H22   H     H_    0.429945 0.898954 0.224636 0.268448
O20   O     O_3   0.588300 0.633530 0.539940 -0.415166
C11   C     C_3   0.395712 0.266528 0.297387 0.436620
H23   H     H_    0.292622 0.292525 0.326555 0.107515
H24   H     H_    0.492621 0.336948 0.300069 0.091259
C12   C     C_3   0.327078 0.218350 0.211716 -0.982439
H25   H     H_    0.234505 0.145407 0.208352 0.276793
H26   H     H_    0.265622 0.276790 0.182636 0.219056
H27   H     H_    0.428915 0.196043 0.179883 0.262844
P7    P     P_3+3 0.506084 0.230512 0.434454 0.415830
O21   O     O_2   0.332090 0.232110 0.462130 -0.369635
O22   O     O_3   0.464548 0.187992 0.332368 -0.580185
H28   H     H_    0.098502 0.727816 0.126012 0.234075
C13   C     C_3   0.111907 0.238400 0.751767 0.475946
H29   H     H_    0.187360 0.316545 0.749745 0.151909
H30   H     H_    0.978230 0.243596 0.738672 0.006691
C14   C     C_3   0.148693 0.216151 0.834901 -0.998167
H31   H     H_    0.283691 0.218276 0.851682 0.293782
H32   H     H_    0.107461 0.278228 0.876914 0.233331
H33   H     H_    0.082699 0.135857 0.838578 0.244498
P8    P     P_3+3 0.613306 0.388721 0.746196 0.443593
C15   C     C_3   0.596456 0.181214 0.723465 0.420864
H34   H     H_    0.691980 0.207156 0.688050 0.007802
O23   O     O_2   0.501414 0.464615 0.782479 -0.387794
O24   O     O_3   0.552132 0.266188 0.774802 -0.515463
H35   H     H_    0.484708 0.139388 0.681532 0.125806
H36   H     H_    0.783347 0.141734 0.808844 0.206811
C16   C     C_3   0.665365 0.101985 0.771035 -0.727463
H37   H     H_    0.690011 0.031593 0.730324 0.183268
C17   C     C_2   0.261450 0.505123 0.270074 -0.397671
C18   C     C_3   0.389792 0.495150 0.215716 0.162921
C19   C     C_2   0.313856 0.500142 0.132788 -0.202224
C20   C     C_2   0.147142 0.478300 0.110690 0.100222
C21   C     C_2   0.040854 0.450174 0.171395 -0.275739
C22   C     C_1   0.107075 0.456107 0.246522 0.282520
C23   C     C_R   0.896676 0.462458 0.860391 -0.277478
C24   C     C_R   0.833448 0.443741 0.780259 0.184798
C25   C     C_R   0.090396 0.535729 0.752438 0.334185
C26   C     C_R   0.154837 0.554374 0.833764 -0.297704
C27   C     C_R   0.061525 0.512558 0.888255 0.121534
C28   C     C_2   0.067311 0.474102 0.027310 -0.171177
C29   C     C_2   0.137796 0.523480 0.973248 -0.156111
C30   C     C_R   0.935862 0.472085 0.726158 -0.349628
H38   H     H_    0.259110 0.572332 0.991018 0.138844
H39   H     H_    0.908635 0.424728 0.153302 0.168467
H40   H     H_    0.814648 0.438096 0.899809 0.152332
H41   H     H_    0.945122 0.426765 0.011225 0.134084
H42   H     H_    0.396221 0.513283 0.090532 0.142840
H43   H     H_    0.277010 0.600785 0.854326 0.158165
C31   C     C_R   0.778967 0.177882 0.521008 -0.514953
C32   C     C_R   0.412102 0.818726 0.484447 -0.530980
C33   C     C_R   0.388276 0.986050 0.442134 -0.188267
C34   C     C_R   0.318005 0.882227 0.446080 0.225829
C35   C     C_R   0.579356 0.851982 0.514918 0.295200
C36   C     C_R   0.649069 0.961502 0.517742 -0.046618
C37   C     C_R   0.550882 0.028979 0.480643 -0.064286
C38   C     C_R   0.617732 0.137834 0.483641 0.270845
C39   C     C_R   0.876602 0.114259 0.557848 0.213153
C40   C     C_R   0.810876 0.006795 0.557363 -0.211472
H44   H     H_    0.312859 0.032802 0.410623 0.181194
H45   H     H_    0.887133 0.959692 0.587399 0.182715
H46   H     H_    0.832018 0.258695 0.517693 0.153755
H47   H     H_    0.349822 0.745240 0.495660 0.155327
N1    N     N_3   0.075674 0.910982 0.714902 -0.130935
H48   H     H_    0.026375 0.981881 0.714989 0.173012
H49   H     H_    0.130670 0.913091 0.772867 0.172271
N2    N     N_3   0.848743 0.708758 0.752972 -0.190579
H50   H     H_    0.905091 0.671459 0.708664 0.107238
H51   H     H_    0.815000 0.653134 0.788122 0.075012
C41   C     C_1   0.549758 0.064746 0.821753 0.265240
N3    N     N_1   0.458941 0.035359 0.861848 -0.093925
C42   C     C_1   0.313073 0.552773 0.350379 0.241002
N4    N     N_1   0.354155 0.587117 0.416084 0.002521
N5    N     N_3   0.882860 0.439910 0.643639 -0.138314
H52   H     H_    0.793561 0.484918 0.624909 0.177546
H53   H     H_    0.841390 0.357586 0.631905 0.121972

loop_
_geom_bond_atom_site_label_1
_geom_bond_atom_site_label_2
_geom_bond_distance
_ccdc_geom_bond_type
C11   O22   1.399569 S    
O14   Ba2   2.813832 S    
O5    C6    1.396146 S    
C8    N2    1.447032 S    
C9    H18   1.111620 S    
C31   H46   1.079127 S    
O4    P6    1.547204 D    
C2    H4    1.109630 S    
C17   C42   1.417485 S    
O7    Ba1   2.880167 S    
C15   H35   1.110744 S    
C41   N3    1.157440 T    
C33   H44   1.077324 S    
C37   C38   1.415013 A    
C19   C20   1.357386 D    
C8    C9    1.527886 S    
P4    O12   1.515851 D    
C4    C5    1.524511 S    
P5    O19   1.748883 S    
P3    O11   1.750630 S    
O14   P8    1.743558 S    
O13   Ba2   2.902613 S    
C5    H10   1.108913 S    
C7    H15   1.107483 S    
O11   C2    1.405686 S    
C40   H45   1.071490 S    
C5    N1    1.463372 S    
Ba1   Ba2   4.556942 S    
C23   C27   1.410068 A    
P1    Ba1   3.377864 S    
C39   C40   1.404461 A    
P1    O1    1.515495 D    
O10   C8    1.397521 S    
C11   H24   1.110939 S    
C33   C34   1.390053 A    
C15   C16   1.527947 S    
C21   H39   1.084970 S    
O2    Ba2   2.832323 S    
C7    H14   1.107657 S    
N5    H52   1.044511 S    
O12   Ba2   2.845453 S    
P5    O17   1.750807 S    
C26   H43   1.082703 S    
C1    H2    1.110090 S    
C33   C37   1.413575 A    
P5    C39   1.859790 S    
O17   Ba2   2.804468 S    
C13   H29   1.111390 S    
C23   H40   1.078650 S    
Ba1   O13   2.831723 S    
Ba2   O20   2.846971 S    
O3    P6    1.755331 S    
C9    H19   1.110595 S    
C23   C24   1.395131 A    
O6    P6    1.754446 S    
C13   C14   1.520590 S    
C35   C36   1.429518 A    
C26   C27   1.424136 A    
P4    O13   1.584045 S    
C28   H41   1.080873 S    
P5    O18   1.544771 D    
C16   C41   1.468499 S    
P1    O5    1.749577 S    
C6    C7    1.518736 S    
C2    C3    1.519950 S    
C19   H42   1.084182 S    
C13   H30   1.110167 S    
C32   C35   1.394511 A    
C20   C21   1.517664 S    
C16   H37   1.111358 S    
P7    O21   1.576679 D    
O16   Ba2   2.892198 S    
C4    H8    1.102830 S    
H36   C16   1.109036 S    
O1    Ba1   2.845014 S    
C1    H22   1.108782 S    
C6    H13   1.110231 S    
Ba1   O20   2.893028 S    
P2    O10   1.761296 S    
C11   C12   1.521779 S    
C14   H31   1.109753 S    
C12   H27   1.110633 S    
P8    C24   1.840128 S    
H1    C10   1.111300 S    
C1    H3    1.110217 S    
C28   C29   1.364858 D    
P4    O15   1.743693 S    
C25   C26   1.416602 A    
C7    H16   1.109211 S    
C29   H38   1.084393 S    
O2    Ba1   2.901783 S    
C14   H32   1.110148 S    
Ba2   O21   2.880380 S    
C36   C40   1.419587 A    
P1    C22   1.876483 S    
P6    C18   1.879991 S    
P2    O7    1.506600 D    
C27   C29   1.507817 S    
P3    O8    1.750262 S    
P2    Ba1   3.398847 S    
N2    H50   1.037509 S    
C9    H20   1.102995 S    
C3    H7    1.110361 S    
N1    H49   1.046013 S    
C3    H28   1.110828 S    
C8    H17   1.100623 S    
C31   C38   1.392023 A    
C15   O24   1.411809 S    
C36   C37   1.430372 A    
C17   C22   1.322483 D    
C2    H5    1.109826 S    
Ba1   O16   2.847554 S    
C15   H34   1.112614 S    
P8    O23   1.546362 D    
O8    Ba1   2.803881 S    
C4    H9    1.106559 S    
C20   C28   1.503726 S    
C6    H12   1.102500 S    
C31   C39   1.388887 A    
C5    H11   1.109328 S    
C42   N4    1.146497 T    
N1    H48   1.041207 S    
P3    C34   1.847373 S    
P2    C35   1.867122 S    
P8    O24   1.748633 S    
C32   H47   1.067365 S    
C10   H21   1.111135 S    
C32   C34   1.383660 A    
C12   H25   1.111048 S    
C21   C22   1.336692 D    
C1    C10   1.519990 S    
O16   P7    1.768132 S    
C11   H23   1.108963 S    
C14   H33   1.110203 S    
C4    O15   1.396829 S    
O3    Ba1   2.814381 S    
P7    C38   1.842770 S    
P2    O20   1.601543 S    
C30   N5    1.422639 S    
O19   C13   1.404576 S    
C17   C18   1.516974 S    
P4    Ba2   3.378405 S    
N5    H53   1.039031 S    
P3    O9    1.543498 D    
N2    H51   1.043979 S    
P7    O22   1.748207 S    
C3    H6    1.111006 S    
P1    O2    1.584043 S    
C18   C19   1.512251 S    
C25   C30   1.394515 A    
P4    C25   1.880409 S    
O6    C10   1.405674 S    
C24   C30   1.405341 A    
C12   H26   1.107550 S    
