data_mof_unit_23786.cif
_audit_creation_date              2012-12-10T18:42:38-0500
_audit_creation_method            fapswitch 2.2
_symmetry_space_group_name_H-M    P1
_symmetry_Int_Tables_number       1
_space_group_crystal_system       triclinic
_cell_length_a                    10.845612
_cell_length_b                    15.144137
_cell_length_c                    13.952053
_cell_angle_alpha                 90.882011
_cell_angle_beta                  90.766227
_cell_angle_gamma                 91.169585
_cell_volume                      2290.6252847

loop_
_atom_site_label
_atom_site_type_symbol
_atom_type_description
_atom_site_fract_x
_atom_site_fract_y
_atom_site_fract_z
_atom_type_partial_charge
C1    C     C_R   0.499222 0.330128 0.499213 0.821823
C2    C     C_R   0.499661 0.669371 0.500832 0.718048
C3    C     C_R   0.871250 0.496590 0.501500 -0.086626
C4    C     C_R   0.128323 0.503093 0.498116 -0.093791
C5    C     C_R   0.939057 0.457902 0.576149 0.015018
C6    C     C_R   0.059868 0.536843 0.420285 0.021310
C7    C     C_R   0.423236 0.094742 0.563246 -0.155782
C8    C     C_R   0.391160 0.901880 0.525468 -0.051040
C9    C     C_R   0.417801 0.186457 0.560444 0.024267
C10   C     C_R   0.392083 0.809858 0.530297 0.019786
C11   C     C_R   0.495662 0.233342 0.497053 -0.145480
C12   C     C_R   0.499875 0.765320 0.503292 -0.153197
C13   C     C_R   0.571354 0.186244 0.432583 -0.069587
C14   C     C_R   0.607770 0.813073 0.478388 -0.014622
C15   C     C_R   0.566016 0.093922 0.431661 -0.111405
C16   C     C_R   0.605623 0.905344 0.479308 -0.100943
C17   C     C_R   0.495363 0.047706 0.498398 0.071650
C18   C     C_R   0.497304 0.950206 0.500722 0.033411
C19   C     C_R   0.529413 0.581126 0.111219 -0.067900
C20   C     C_R   0.394778 0.460345 0.887861 -0.103365
C21   C     C_R   0.539151 0.574028 0.212281 -0.029345
C22   C     C_R   0.405768 0.457534 0.786536 0.077821
C23   C     C_R   0.262341 0.501831 0.499240 0.823532
C24   C     C_R   0.737445 0.497572 0.500623 0.766076
C25   C     C_R   0.455138 0.429064 0.204868 0.186374
C26   C     C_R   0.589254 0.544689 0.795486 0.145506
C27   C     C_R   0.462996 0.428499 0.104266 -0.262377
C28   C     C_R   0.588367 0.540782 0.896221 -0.155057
C29   C     C_R   0.492381 0.505467 0.054433 0.084230
C30   C     C_R   0.489732 0.502491 0.945079 0.074696
C31   C     C_R   0.228442 0.680852 0.240903 -0.033580
C32   C     C_R   0.773796 0.265501 0.692311 -0.003969
C33   C     C_R   0.188045 0.646013 0.328306 -0.038092
C34   C     C_R   0.828798 0.319960 0.623860 -0.228351
C35   C     C_R   0.114394 0.569324 0.330124 0.026245
C36   C     C_R   0.880312 0.402332 0.649691 0.131753
C37   C     C_R   0.080448 0.526913 0.243985 -0.170767
C38   C     C_R   0.878930 0.430583 0.745217 -0.181147
C39   C     C_R   0.114148 0.561811 0.155504 0.018666
C40   C     C_R   0.821883 0.379213 0.815487 -0.062538
C41   C     C_R   0.189717 0.639484 0.153072 -0.130989
C42   C     C_R   0.768653 0.295396 0.789442 -0.011831
C43   C     C_R   0.932020 0.535567 0.424948 -0.195462
C44   C     C_R   0.066980 0.464903 0.575626 -0.156615
Cu1   Cu    Cu3+1 0.500000 0.499990 0.596430 0.959858
Cu2   Cu    Cu3+1 0.500000 0.500010 0.403570 0.946622
H1    H     H_    0.572154 0.630522 0.254151 0.134370
H2    H     H_    0.335385 0.424132 0.743098 0.194745
H3    H     H_    0.213493 0.678529 0.395270 0.145902
H4    H     H_    0.831823 0.298194 0.549520 0.107795
N1    N     N_R   0.500000 0.500020 0.258690 -0.210638
N2    N     N_R   0.500000 0.499980 0.741310 -0.240571
O1    O     O_R   0.500010 0.371450 0.581430 -0.550610
O2    O     O_R   0.499990 0.628550 0.418570 -0.581831
O3    O     O_R   0.500010 0.371460 0.418560 -0.616686
O4    O     O_R   0.499990 0.628540 0.581440 -0.606844
O5    O     O_R   0.319640 0.500000 0.581430 -0.571099
O6    O     O_R   0.680360 0.500000 0.418570 -0.583257
O7    O     O_R   0.319640 0.500010 0.418560 -0.602211
O8    O     O_R   0.680360 0.499990 0.581440 -0.608297
C45   C     C_2   0.225114 0.679472 0.060404 0.352884
H5    H     H_    0.232979 0.750648 0.054259 0.109685
O9    O     O_2   0.248771 0.633646 0.990600 -0.528611
C46   C     C_2   0.709998 0.239949 0.863189 0.579668
H6    H     H_    0.635014 0.265771 0.905284 0.069217
O10   O     O_2   0.747864 0.166242 0.879502 -0.447820
H7    H     H_    0.620157 0.057881 0.380132 0.183569
H8    H     H_    0.689369 0.942383 0.464225 0.175412
C47   C     C_2   0.553593 0.670023 0.071361 0.321007
H9    H     H_    0.608889 0.718112 0.112434 0.082208
O11   O     O_2   0.507625 0.692541 0.995510 -0.479954
C48   C     C_2   0.280674 0.423332 0.930440 0.405155
H10   H     H_    0.260617 0.435313 0.005034 0.117383
O12   O     O_2   0.206194 0.379761 0.882127 -0.522134
C49   C     C_2   0.385218 0.355698 0.248347 0.424267
H11   H     H_    0.327295 0.367763 0.309493 0.113916
O13   O     O_2   0.388076 0.281008 0.214269 -0.512100
C50   C     C_2   0.684265 0.602863 0.751878 0.393150
H12   H     H_    0.675022 0.626186 0.679937 0.137802
O14   O     O_2   0.774519 0.629022 0.798209 -0.578392
H13   H     H_    0.438132 0.368706 0.064371 0.175971
H14   H     H_    0.663394 0.571401 0.937441 0.174841
C51   C     C_2   0.312385 0.759730 0.242865 0.359691
H15   H     H_    0.364420 0.777997 0.180200 0.074215
O15   O     O_2   0.325092 0.805528 0.315175 -0.530664
C52   C     C_2   0.722602 0.178868 0.657414 0.393601
H16   H     H_    0.750138 0.153092 0.588086 0.067583
O16   O     O_2   0.647403 0.136399 0.702986 -0.515592
H17   H     H_    0.021277 0.468396 0.246243 0.196665
H18   H     H_    0.922232 0.493584 0.764634 0.171677
C53   C     C_2   0.060712 0.519144 0.067652 0.356811
H19   H     H_    0.051803 0.555260 0.001592 0.119555
O17   O     O_2   0.025084 0.442149 0.068349 -0.499295
C54   C     C_2   0.823535 0.416385 0.914785 0.419772
H20   H     H_    0.858111 0.483328 0.927411 0.092033
O18   O     O_2   0.787682 0.374397 0.983331 -0.506481
H21   H     H_    0.879347 0.564415 0.367064 0.165643
H22   H     H_    0.118891 0.435512 0.633497 0.197850
H23   H     H_    0.369287 0.060014 0.616070 0.133188
H24   H     H_    0.306522 0.935882 0.540187 0.172908
C55   C     C_2   0.326217 0.229130 0.623241 0.380543
H25   H     H_    0.300079 0.198195 0.689855 0.101279
O19   O     O_2   0.273575 0.295788 0.598936 -0.561739
C56   C     C_2   0.279212 0.761445 0.562001 0.398925
H26   H     H_    0.277751 0.690203 0.567906 0.060408
O20   O     O_2   0.185591 0.800752 0.582181 -0.501110
C57   C     C_2   0.662287 0.231308 0.369870 0.419290
H27   H     H_    0.692791 0.298781 0.384689 0.069476
O21   O     O_2   0.706391 0.192760 0.301285 -0.479828
C58   C     C_2   0.724011 0.767600 0.453873 0.386927
H28   H     H_    0.729885 0.696359 0.457611 0.053613
O22   O     O_2   0.815427 0.809363 0.429198 -0.507668

loop_
_geom_bond_atom_site_label_1
_geom_bond_atom_site_label_2
_ccdc_geom_bond_type
C22   H2    S    
Cu1   O8    S    
C55   H25   S    
Cu2   O7    S    
C27   C29   A    
C1    C11   S    
C41   C45   S    
C13   C57   S    
C2    C12   S    
C56   O20   D    
C39   C41   A    
C20   C30   A    
Cu1   Cu2   S    
C23   O7    A    
C3    C43   A    
C26   C50   S    
C7    H23   S    
C35   C37   A    
C47   H9    S    
C52   O16   D    
C33   H3    S    
C5    C36   S    
C31   C51   S    
C6    C35   S    
C45   O9    D    
C47   O11   D    
C1    O1    A    
C58   H28   S    
C44   H22   S    
Cu1   O4    S    
C7    C17   A    
Cu2   O3    S    
C57   H27   S    
C31   C33   A    
C16   H8    S    
C40   C42   A    
C15   H7    S    
C10   C56   S    
C55   O19   D    
Cu2   O6    S    
C57   O21   D    
C3    C24   S    
C45   H5    S    
C39   C53   S    
C56   H26   S    
Cu1   O5    S    
C34   H4    S    
C28   H14   S    
C27   H13   S    
C48   O12   D    
C2    O2    A    
C40   C54   S    
C53   H19   S    
C4    C23   S    
C52   H16   S    
C4    C44   A    
Cu1   N2    S    
Cu2   N1    S    
C8    C18   A    
C25   C49   S    
C46   O10   D    
C49   H11   S    
C25   N1    A    
C29   C30   S    
C26   N2    A    
C53   O17   D    
C9    C11   A    
C51   H15   S    
C24   O8    A    
C32   C52   S    
Cu2   O2    S    
C17   C18   S    
C50   O14   D    
C16   C18   A    
C54   O18   D    
C49   O13   D    
C10   C12   A    
C24   O6    A    
C51   O15   D    
C5    C44   A    
C12   C14   A    
C6    C43   A    
C13   C15   A    
C14   C16   A    
C19   C47   S    
C4    C6    A    
C19   C29   A    
C42   C46   S    
C21   N1    A    
C22   N2    A    
C23   O5    A    
C31   C41   A    
C19   C21   A    
C50   H12   S    
C8    C10   A    
C43   H21   S    
C20   C22   A    
C48   H10   S    
C3    C5    A    
C15   C17   A    
C25   C27   A    
C38   H18   S    
C26   C28   A    
C37   H17   S    
C46   H6    S    
C36   C38   A    
C1    O3    A    
C37   C39   A    
C2    O4    A    
C38   C40   A    
C11   C13   A    
C14   C58   S    
C28   C30   A    
C33   C35   A    
C34   C36   A    
C8    H24   S    
C54   H20   S    
C58   O22   D    
Cu1   O1    S    
C7    C9    A    
C9    C55   S    
C32   C42   A    
C20   C48   S    
C32   C34   A    
C21   H1    S    
