data_mof_unit_19866.cif
_audit_creation_date              2012-12-10T20:34:57-0500
_audit_creation_method            fapswitch 2.2
_symmetry_space_group_name_H-M    P1
_symmetry_Int_Tables_number       1
_space_group_crystal_system       triclinic
_cell_length_a                    10.685246
_cell_length_b                    10.678988
_cell_length_c                    9.87717
_cell_angle_alpha                 89.612662
_cell_angle_beta                  88.905182
_cell_angle_gamma                 90.409786
_cell_volume                      1126.79891623

loop_
_atom_site_label
_atom_site_type_symbol
_atom_type_description
_atom_site_fract_x
_atom_site_fract_y
_atom_site_fract_z
_atom_type_partial_charge
C1    C     C_R   0.504269 0.259936 0.500162 0.885795
C2    C     C_R   0.528134 0.935029 0.621508 0.117444
C3    C     C_3   0.440676 0.925651 0.741084 -0.444220
C4    C     C_R   0.257441 0.498599 0.501412 0.899855
C5    C     C_3   0.439671 0.067325 0.740977 -0.486143
C6    C     C_R   0.460150 0.397015 0.073598 0.206150
C7    C     C_R   0.551064 0.596650 0.070072 -0.117346
C8    C     C_R   0.551379 0.596493 0.926200 -0.099253
C9    C     C_R   0.458643 0.397485 0.930945 0.173629
C10   C     C_3   0.328604 0.345706 0.934420 -0.401941
C11   C     C_3   0.333426 0.340700 0.086976 -0.517183
C12   C     C_3   0.878300 0.497454 0.499642 0.063404
C13   C     C_R   0.504667 0.739977 0.499505 0.878496
C14   C     C_R   0.742188 0.498677 0.499228 0.846842
C15   C     C_3   0.065370 0.471287 0.650946 0.668145
C16   C     C_3   0.922711 0.474822 0.646420 -0.387393
C17   C     C_3   0.073507 0.626040 0.452169 -0.439740
C18   C     C_3   0.072415 0.394874 0.406162 -0.419575
C19   C     C_3   0.120456 0.497530 0.504364 0.039025
C20   C     C_3   0.929763 0.625265 0.447921 -0.401638
C21   C     C_3   0.928774 0.390943 0.408891 -0.397103
C22   C     C_R   0.527691 0.062852 0.621902 0.136711
C23   C     C_R   0.525558 0.128643 0.499947 -0.101242
C24   C     C_R   0.548259 0.065897 0.377528 -0.223393
C25   C     C_R   0.548516 0.936313 0.377111 -0.220527
C26   C     C_R   0.526151 0.871342 0.499111 -0.102879
Cl1   Cl    Cl    0.114158 0.586619 0.772775 -0.661506
Cl2   Cl    Cl    0.110369 0.318583 0.710319 -0.701190
H1    H     H_    0.894312 0.401163 0.303759 0.200394
H2    H     H_    0.590420 0.675724 0.122724 0.138904
H3    H     H_    0.591472 0.675137 0.870718 0.140560
H4    H     H_    0.260622 0.415514 0.899087 0.297680
H5    H     H_    0.320872 0.251887 0.888661 0.221571
H6    H     H_    0.265150 0.404078 0.136876 0.228508
H7    H     H_    0.335859 0.243866 0.128819 0.202784
H8    H     H_    0.880956 0.385923 0.686860 0.200119
H9    H     H_    0.885931 0.550480 0.713015 0.205402
H10   H     H_    0.106157 0.703144 0.518207 0.208241
H11   H     H_    0.892269 0.702379 0.511885 0.178015
H12   H     H_    0.112091 0.645787 0.348627 0.198099
H13   H     H_    0.104836 0.416013 0.300857 0.195571
H14   H     H_    0.109942 0.301174 0.432604 0.207789
H15   H     H_    0.895317 0.298537 0.448584 0.183104
H16   H     H_    0.899451 0.642778 0.342290 0.193760
H17   H     H_    0.556591 0.115658 0.281791 0.170656
H18   H     H_    0.556913 0.888152 0.281225 0.165540
H19   H     H_    0.348674 0.883139 0.716111 0.229502
H20   H     H_    0.486356 0.885017 0.831302 0.198412
H21   H     H_    0.347160 0.106784 0.714621 0.235357
H22   H     H_    0.484656 0.108162 0.831290 0.200640
N1    N     N_R   0.499150 0.499140 0.142800 -0.103351
N2    N     N_R   0.499150 0.499180 0.857150 -0.095174
O1    O     O_R   0.500020 0.316790 0.614690 -0.610068
O2    O     O_R   0.500000 0.316760 0.385350 -0.627982
O3    O     O_R   0.314800 0.500000 0.614670 -0.546268
O4    O     O_R   0.314790 0.499960 0.385330 -0.635806
O5    O     O_R   0.500000 0.683240 0.614650 -0.616336
O6    O     O_R   0.499980 0.683210 0.385310 -0.628614
O7    O     O_R   0.685210 0.500040 0.614670 -0.635455
O8    O     O_R   0.685200 0.500000 0.385330 -0.624309
Zn1   Zn    Zn3+2 0.500010 0.500020 0.653130 0.985523
Zn2   Zn    Zn3+2 0.499990 0.499980 0.346870 0.944012

loop_
_geom_bond_atom_site_label_1
_geom_bond_atom_site_label_2
_ccdc_geom_bond_type
C2    C22   A    
C23   C24   A    
O5    Zn1   S    
C6    N1    A    
C18   C21   S    
C14   O8    A    
C9    C10   S    
C8    N2    A    
C15   Cl1   S    
C16   H9    S    
C1    O2    A    
C12   C20   S    
C6    C9    A    
C11   H7    S    
C2    C3    S    
C7    N1    A    
C7    C8    A    
C2    C26   A    
C7    H2    S    
C4    O4    A    
C15   C19   S    
C14   O7    A    
N1    Zn2   S    
C5    H21   S    
C15   Cl2   S    
C9    N2    A    
C21   H1    S    
O6    Zn2   S    
C24   H17   S    
O3    Zn1   S    
C3    H19   S    
C20   H16   S    
C12   C14   S    
C1    C23   S    
C10   H5    S    
N2    Zn1   S    
C18   H14   S    
C4    O3    A    
C5    H22   S    
O4    Zn2   S    
C13   C26   S    
O7    Zn1   S    
C13   O5    A    
C10   C11   S    
C5    C22   S    
C15   C16   S    
C12   C21   S    
C10   H4    S    
C3    H20   S    
C17   C20   S    
C24   C25   A    
O8    Zn2   S    
C18   C19   S    
C18   H13   S    
C17   H10   S    
C6    C11   S    
C20   H11   S    
C1    O1    A    
C22   C23   A    
C13   O6    A    
O2    Zn2   S    
C17   C19   S    
C25   C26   A    
C21   H15   S    
C4    C19   S    
O1    Zn1   S    
C25   H18   S    
C11   H6    S    
C16   H8    S    
C8    H3    S    
C12   C16   S    
C3    C5    S    
C17   H12   S    
