data_mof_unit_7919.cif
_audit_creation_date              2013-03-05T15:44:16-0500
_audit_creation_method            fapswitch 2.2
_symmetry_space_group_name_H-M    P1
_symmetry_Int_Tables_number       1
_space_group_crystal_system       triclinic
_cell_length_a                    19.516437
_cell_length_b                    10.986127
_cell_length_c                    19.472511
_cell_angle_alpha                 90.174635
_cell_angle_beta                  97.389207
_cell_angle_gamma                 90.44331
_cell_volume                      4140.27129529

loop_
_atom_site_label
_atom_site_type_symbol
_atom_site_description
_atom_site_fract_x
_atom_site_fract_y
_atom_site_fract_z
_atom_type_partial_charge
O1    O     O_R   0.783230 0.287800 0.346510 -0.520247
O2    O     O_R   0.216770 0.287800 0.653490 -0.492331
O3    O     O_R   0.283230 0.787800 0.346510 -0.512758
O4    O     O_R   0.716770 0.787800 0.653490 -0.493779
O5    O     O_R   0.760130 0.037060 0.338610 -0.488147
O6    O     O_R   0.239870 0.037060 0.661390 -0.531260
O7    O     O_R   0.260130 0.537060 0.338610 -0.512492
O8    O     O_R   0.739870 0.537060 0.661390 -0.528786
C1    C     C_R   0.710575 0.991207 0.367810 0.550536
C2    C     C_R   0.272937 0.947003 0.641415 0.555288
C3    C     C_R   0.225073 0.453762 0.361216 0.587555
C4    C     C_R   0.774030 0.450255 0.639966 0.555411
O9    O     O_R   0.666620 0.921370 0.332440 -0.468059
O10   O     O_R   0.333380 0.921370 0.667560 -0.456703
O11   O     O_R   0.166620 0.421370 0.332440 -0.497850
O12   O     O_R   0.833380 0.421370 0.667560 -0.455833
O13   O     O_R   0.557170 0.082420 0.312350 -0.514149
O14   O     O_R   0.442830 0.082420 0.687650 -0.477967
O15   O     O_R   0.057170 0.582420 0.312350 -0.502596
O16   O     O_R   0.942830 0.582420 0.687650 -0.475653
C5    C     C_R   0.535498 0.180006 0.338126 0.544887
C6    C     C_R   0.464934 0.180145 0.662191 0.537353
C7    C     C_R   0.035319 0.680002 0.337982 0.547247
C8    C     C_R   0.964619 0.680214 0.661977 0.539625
O17   O     O_R   0.548310 0.285980 0.316250 -0.500663
O18   O     O_R   0.451690 0.285980 0.683750 -0.507490
O19   O     O_R   0.048310 0.785980 0.316250 -0.501316
O20   O     O_R   0.951690 0.785980 0.683750 -0.507921
O21   O     O_R   0.680520 0.375500 0.327470 -0.489876
O22   O     O_R   0.319480 0.375500 0.672530 -0.459552
O23   O     O_R   0.180520 0.875500 0.327470 -0.488491
O24   O     O_R   0.819480 0.875500 0.672530 -0.464276
C9    C     C_R   0.739632 0.363701 0.361724 0.578507
C10   C     C_R   0.275445 0.310344 0.632043 0.548899
C11   C     C_R   0.238841 0.860295 0.363010 0.593012
C12   C     C_R   0.774173 0.814590 0.631205 0.541232
O25   O     O_R   0.780350 0.286970 0.193350 -0.482694
O26   O     O_R   0.219650 0.286970 0.806650 -0.453296
O27   O     O_R   0.280350 0.786970 0.193350 -0.481013
O28   O     O_R   0.719650 0.786970 0.806650 -0.453639
O29   O     O_R   0.757460 0.036290 0.196640 -0.492179
O30   O     O_R   0.242540 0.036290 0.803360 -0.519860
O31   O     O_R   0.257460 0.536290 0.196640 -0.497532
O32   O     O_R   0.742540 0.536290 0.803360 -0.519237
C13   C     C_R   0.722805 0.950568 0.164510 0.573172
C14   C     C_R   0.277800 0.952890 0.836207 0.536507
C15   C     C_R   0.222802 0.450578 0.164502 0.562701
C16   C     C_R   0.777799 0.452889 0.836206 0.536392
O33   O     O_R   0.663740 0.920540 0.179290 -0.460215
O34   O     O_R   0.336260 0.920540 0.820710 -0.480627
O35   O     O_R   0.163740 0.420540 0.179290 -0.465189
O36   O     O_R   0.836260 0.420540 0.820710 -0.481248
O37   O     O_R   0.554500 0.081650 0.170370 -0.464084
O38   O     O_R   0.445500 0.081650 0.829630 -0.471728
O39   O     O_R   0.054500 0.581650 0.170370 -0.464184
O40   O     O_R   0.945500 0.581650 0.829630 -0.471789
C17   C     C_R   0.530561 0.178197 0.141046 0.563736
C18   C     C_R   0.468480 0.179408 0.859509 0.568173
C19   C     C_R   0.030540 0.678199 0.141054 0.562232
C20   C     C_R   0.968492 0.679405 0.859506 0.568322
O41   O     O_R   0.545430 0.285140 0.163100 -0.508497
O42   O     O_R   0.454570 0.285140 0.836900 -0.525117
O43   O     O_R   0.045430 0.785140 0.163100 -0.509653
O44   O     O_R   0.954570 0.785140 0.836900 -0.525095
O45   O     O_R   0.677850 0.374730 0.185500 -0.493719
O46   O     O_R   0.322150 0.374730 0.814500 -0.471697
O47   O     O_R   0.177850 0.874730 0.185500 -0.494924
O48   O     O_R   0.822150 0.874730 0.814500 -0.472537
C21   C     C_R   0.736170 0.360011 0.164428 0.560354
C22   C     C_R   0.278180 0.309575 0.843791 0.553889
C23   C     C_R   0.236171 0.860016 0.164431 0.562296
C24   C     C_R   0.778176 0.809588 0.843792 0.554031
Cr1   Cr    Cr6+3 0.765830 0.160660 0.268180 1.070723
Cr2   Cr    Cr6+3 0.234170 0.160660 0.731820 1.054824
Cr3   Cr    Cr6+3 0.265830 0.660660 0.268180 1.068581
Cr4   Cr    Cr6+3 0.734170 0.660660 0.731820 1.054693
Cr5   Cr    Cr6+3 0.612110 0.009150 0.248770 1.107086
Cr6   Cr    Cr6+3 0.387890 0.009150 0.751230 1.104448
Cr7   Cr    Cr6+3 0.112110 0.509150 0.248770 1.103373
Cr8   Cr    Cr6+3 0.887890 0.509150 0.751230 1.106556
Cr9   Cr    Cr6+3 0.615930 0.324050 0.248450 1.061729
Cr10  Cr    Cr6+3 0.384070 0.324050 0.751550 1.074417
Cr11  Cr    Cr6+3 0.115930 0.824050 0.248450 1.065189
Cr12  Cr    Cr6+3 0.884070 0.824050 0.751550 1.071328
O49   O     O_3   0.664630 0.164620 0.255130 -0.306475
O50   O     O_3   0.335370 0.164620 0.744870 -0.334696
O51   O     O_3   0.164630 0.664620 0.255130 -0.292159
O52   O     O_3   0.835370 0.664620 0.744870 -0.331773
C25   C     C_1   0.486987 0.171940 0.595331 0.000449
C26   C     C_1   0.514821 0.172126 0.405585 0.021097
C27   C     C_1   0.985845 0.672292 0.594772 0.005249
C28   C     C_1   0.014016 0.672180 0.405155 0.017490
C29   C     C_1   0.505301 0.168481 0.465249 -0.034932
C30   C     C_1   0.497316 0.168275 0.535891 -0.048616
C31   C     C_1   0.004015 0.668758 0.464672 -0.037007
C32   C     C_1   0.995811 0.668774 0.535240 -0.045106
C33   C     C_3   0.691954 0.382851 0.524013 -0.164621
C34   C     C_3   0.298663 0.474439 0.485105 -0.107690
C35   C     C_3   0.188698 0.878705 0.525384 -0.162798
C36   C     C_3   0.789284 0.997622 0.489558 -0.117401
C37   C     C_3   0.734015 0.293272 0.484795 -0.125833
C38   C     C_3   0.322931 0.346289 0.509344 -0.111828
C39   C     C_3   0.228663 0.784370 0.486607 -0.128113
C40   C     C_3   0.814174 0.866850 0.507111 -0.110547
H1    H     H_    0.715345 0.201538 0.467730 0.095417
H2    H     H_    0.377271 0.317633 0.522706 0.140366
H3    H     H_    0.209481 0.692548 0.469549 0.108399
H4    H     H_    0.868621 0.836160 0.515911 0.139535
H5    H     H_    0.642940 0.360900 0.544731 0.131672
H6    H     H_    0.332572 0.549061 0.470960 0.183049
H7    H     H_    0.138736 0.861930 0.545401 0.134195
H8    H     H_    0.822497 0.072613 0.474990 0.184761
C41   C     C_3   0.746196 0.396150 0.434008 0.053106
C42   C     C_3   0.267948 0.346447 0.559489 0.016998
C43   C     C_3   0.244435 0.885930 0.436254 0.051709
C44   C     C_3   0.762894 0.860198 0.560644 0.018584
C45   C     C_3   0.703646 0.484424 0.471787 -0.106269
C46   C     C_3   0.244426 0.474213 0.536619 -0.099758
C47   C     C_3   0.204185 0.978361 0.473409 -0.109947
C48   C     C_3   0.738602 0.990536 0.544481 -0.100345
C49   C     C_3   0.771717 0.522192 0.516849 -0.116501
C50   C     C_3   0.190495 0.415381 0.481662 -0.142528
C51   C     C_3   0.272836 0.009968 0.519101 -0.111838
C52   C     C_3   0.681359 0.938361 0.490099 -0.157460
C53   C     C_3   0.813694 0.433375 0.477815 -0.071822
C54   C     C_3   0.213984 0.286936 0.504595 -0.113555
C55   C     C_3   0.312559 0.916866 0.480974 -0.066744
C56   C     C_3   0.705839 0.807270 0.506471 -0.105056
C57   C     C_3   0.801651 0.332375 0.529251 0.160111
C58   C     C_3   0.268681 0.288560 0.453652 0.132284
C59   C     C_3   0.296781 0.818152 0.532231 0.157682
C60   C     C_3   0.756812 0.816349 0.452374 0.166294
C61   C     C_3   0.759593 0.420169 0.567679 0.051395
C62   C     C_3   0.244801 0.414672 0.431358 0.055984
C63   C     C_3   0.256925 0.910686 0.569963 0.052344
C64   C     C_3   0.732009 0.945537 0.436551 0.047685
H9    H     H_    0.663801 0.546185 0.445765 0.158974
H10   H     H_    0.234452 0.548894 0.572470 0.167478
H11   H     H_    0.166298 0.042015 0.445958 0.156615
H12   H     H_    0.731853 0.061356 0.583808 0.164289
H13   H     H_    0.295486 0.098558 0.537236 0.120077
H14   H     H_    0.626891 0.969183 0.481418 0.128016
H15   H     H_    0.790504 0.613796 0.534013 0.114505
H16   H     H_    0.136120 0.445186 0.468731 0.137461
H17   H     H_    0.862860 0.455560 0.457416 0.159437
H18   H     H_    0.178082 0.213167 0.515730 0.136672
H19   H     H_    0.362764 0.933925 0.461452 0.165608
H20   H     H_    0.671494 0.729480 0.515159 0.136924
C65   C     C_3   0.502157 0.286591 0.978898 -0.142248
C66   C     C_3   0.450222 0.237595 0.026164 -0.168199
C67   C     C_3   0.002391 0.786559 0.978881 -0.142295
C68   C     C_3   0.950341 0.737959 0.026140 -0.168098
C69   C     C_3   0.561993 0.217847 0.021261 -0.136295
C70   C     C_3   0.435946 0.123070 0.979377 -0.149462
C71   C     C_3   0.062076 0.717473 0.021271 -0.135970
C72   C     C_3   0.935844 0.623459 0.979369 -0.149666
H21   H     H_    0.613922 0.256103 0.039798 0.145517
H22   H     H_    0.384444 0.083382 0.960590 0.124548
H23   H     H_    0.114083 0.755404 0.039819 0.145424
H24   H     H_    0.884263 0.584087 0.960575 0.124350
H25   H     H_    0.505396 0.381622 0.960267 0.172912
H26   H     H_    0.410765 0.291396 0.048893 0.140468
H27   H     H_    0.005833 0.881546 0.960232 0.172753
H28   H     H_    0.910982 0.792050 0.048843 0.140682
C73   C     C_3   0.509381 0.168912 0.067941 0.009671
C74   C     C_3   0.488530 0.172481 0.932924 0.007780
C75   C     C_3   0.009348 0.668934 0.067945 0.010141
C76   C     C_3   0.988541 0.672475 0.932924 0.007678
C77   C     C_3   0.496153 0.056587 0.021857 0.216227
C78   C     C_3   0.546831 0.104949 0.974990 0.204424
C79   C     C_3   0.995905 0.556637 0.021877 0.216434
C80   C     C_3   0.046694 0.604608 0.975017 0.204539
C81   C     C_1   0.762395 0.426018 0.904151 0.024329
C82   C     C_1   0.243402 0.407441 0.100751 0.041975
C83   C     C_1   0.262393 0.926016 0.904151 0.024535
C84   C     C_1   0.743395 0.907457 0.100750 0.039914
C85   C     C_1   0.748100 0.408140 0.034851 0.000349
C86   C     C_1   0.267445 0.355358 0.975048 0.026709
C87   C     C_1   0.248098 0.908140 0.034852 -0.000296
C88   C     C_1   0.767427 0.855406 0.975041 0.026965
C89   C     C_1   0.754215 0.415856 0.963934 -0.000493
C90   C     C_1   0.256547 0.380180 0.043936 0.022837
C91   C     C_1   0.254212 0.915854 0.963934 -0.000861
C92   C     C_1   0.756532 0.880216 0.043929 0.022478
C93   C     C_1   0.743417 0.394575 0.095230 0.030658
C94   C     C_1   0.273578 0.336014 0.915207 0.038511
C95   C     C_1   0.243417 0.894577 0.095231 0.030187
C96   C     C_1   0.773565 0.836053 0.915202 0.038344
Br1   Br    Br    0.877024 0.232626 0.572567 -0.504629
Br2   Br    Br    0.290728 0.177207 0.382195 -0.563098
Br3   Br    Br    0.367538 0.712027 0.578012 -0.510000
Br4   Br    Br    0.773838 0.705056 0.378890 -0.527852
N1    N     N_R   0.491588 0.932843 0.047645 0.103493
O53   O     O_R   0.536537 0.851654 0.035098 -0.268352
O54   O     O_R   0.443217 0.903951 0.084896 -0.327873
N2    N     N_R   0.598768 0.035865 0.944567 0.097415
O55   O     O_R   0.580431 0.943404 0.904346 -0.271975
O56   O     O_R   0.662656 0.073316 0.952279 -0.352075
N3    N     N_R   0.991087 0.432971 0.047709 0.103618
O57   O     O_R   0.036436 0.351891 0.035985 -0.268383
O58   O     O_R   0.942363 0.404270 0.084578 -0.329045
N4    N     N_R   0.098484 0.535125 0.944610 0.097704
O59   O     O_R   0.079969 0.442510 0.904565 -0.271817
O60   O     O_R   0.162405 0.572386 0.952117 -0.351436

loop_
_geom_bond_atom_site_label_1
_geom_bond_atom_site_label_2
_geom_bond_distance
_ccdc_geom_bond_type
O7    Cr3   1.945601 S    
C18   O42   1.262561 A    
Cr11  O51   1.995857 S    
C79   C80   1.523270 S    
O4    C12   1.284801 A    
O47   Cr11  1.909901 S    
C29   C30   1.404161 S    
C34   H6    1.107146 S    
O39   C19   1.269773 A    
O20   Cr12  2.028025 S    
C37   C57   1.539939 S    
C37   C41   1.541128 S    
C77   C78   1.523272 S    
C49   H15   1.104370 S    
O15   C7    1.280164 A    
C31   C32   1.403737 S    
C33   C61   1.527888 S    
C82   C90   1.204854 T    
O29   Cr1   1.939230 S    
O26   C22   1.292895 A    
C54   H18   1.107304 S    
O1    C9    1.257538 A    
C72   C76   1.548962 S    
O7    C3    1.252828 A    
C20   C76   1.435275 S    
C17   O41   1.268303 A    
N4    O60   1.300030 A    
O36   Cr8   2.033956 S    
O24   C12   1.296813 A    
C70   H22   1.109906 S    
C59   C63   1.527429 S    
C69   H21   1.110162 S    
O30   C14   1.273681 A    
C75   C79   1.524240 S    
C42   C54   1.541020 S    
C5    C26   1.425610 S    
O45   C21   1.269867 A    
C65   C66   1.548795 S    
C87   C95   1.200588 T    
C54   C58   1.547923 S    
C67   C76   1.539638 S    
O21   C9    1.263937 A    
O8    Cr4   1.940960 S    
C85   C93   1.200585 T    
C46   C50   1.538284 S    
C25   C30   1.200747 T    
O32   Cr4   1.946982 S    
C65   C69   1.544091 S    
C50   C62   1.532962 S    
C1    O9    1.278100 A    
C53   H17   1.110372 S    
C88   C96   1.205015 T    
C27   C32   1.200428 T    
C40   C44   1.536642 S    
C3    O11   1.253033 A    
C71   C80   1.535157 S    
O41   Cr9   2.058254 S    
C36   C40   1.545297 S    
O11   Cr7   2.072649 S    
C4    O12   1.256066 A    
C71   C75   1.550601 S    
N1    O54   1.300399 A    
C34   C38   1.544694 S    
C57   Br1   1.946199 S    
C69   C78   1.535146 S    
C79   N3    1.456732 S    
C67   C68   1.548846 S    
O6    Cr2   1.940960 S    
C36   C48   1.549084 S    
O27   Cr3   2.059507 S    
O8    C4    1.267636 A    
O3    Cr3   2.058940 S    
Cr4   O52   1.958786 S    
C66   C70   1.553377 S    
O47   C23   1.269866 A    
O2    Cr2   2.068786 S    
O48   C24   1.301132 A    
C60   Br4   1.941846 S    
C52   C56   1.542170 S    
C67   H27   1.110342 S    
O2    C10   1.290852 A    
C40   H4    1.109612 S    
O42   Cr10  2.064770 S    
C43   C55   1.528048 S    
C81   C89   1.200604 T    
N3    O57   1.300694 A    
O18   Cr10  2.028025 S    
O5    Cr1   1.945601 S    
C52   H14   1.110376 S    
C58   C62   1.512231 S    
C66   H26   1.109660 S    
C56   C60   1.542043 S    
Cr7   O51   1.980466 S    
C14   O34   1.270158 A    
C34   C46   1.549121 S    
C87   C91   1.404052 S    
C7    O19   1.274734 A    
C73   C77   1.524284 S    
O24   Cr12  1.947715 S    
O9    Cr5   2.072649 S    
O30   Cr2   1.946982 S    
C37   H1    1.104532 S    
N4    O59   1.300340 A    
O22   C10   1.298180 A    
C71   H23   1.110204 S    
O25   Cr1   2.059507 S    
O48   Cr12  1.913171 S    
C68   C72   1.553407 S    
C72   H24   1.109953 S    
C2    C63   1.440674 S    
N2    O56   1.300006 A    
C35   C39   1.552994 S    
C2    O10   1.257596 A    
C13   C84   1.433506 S    
O16   Cr8   1.914316 S    
C56   H20   1.108811 S    
C52   C64   1.528083 S    
C15   O35   1.265139 A    
O26   Cr2   2.056474 S    
Cr10  O50   1.982207 S    
C66   C73   1.529646 S    
C35   C47   1.547467 S    
C28   C31   1.200411 T    
O13   C5    1.280062 A    
O40   C20   1.270729 A    
C70   C77   1.537970 S    
O43   Cr11  2.058254 S    
O12   Cr8   2.060333 S    
C50   C54   1.536879 S    
C39   C43   1.542725 S    
O5    C1    1.283779 A    
C49   C53   1.539151 S    
C38   C42   1.540930 S    
C53   C57   1.533914 S    
O46   Cr10  1.913171 S    
O39   Cr7   1.951656 S    
O25   C21   1.262178 A    
C33   C37   1.547474 S    
O45   Cr9   1.909901 S    
O3    C11   1.252504 A    
C60   C64   1.522676 S    
C35   H7    1.110006 S    
C51   H13   1.103838 S    
O13   Cr5   1.918114 S    
C13   O33   1.265119 A    
O23   Cr11  1.939313 S    
C35   C63   1.530877 S    
C86   C90   1.411041 S    
Cr2   O50   1.958786 S    
O15   Cr7   1.918114 S    
O35   Cr7   2.037467 S    
Cr1   O49   1.959499 S    
C42   C46   1.529879 S    
C24   C96   1.433999 S    
C48   H12   1.110411 S    
Cr3   O51   1.959499 S    
O14   Cr6   1.914316 S    
O21   Cr9   1.939314 S    
C36   H8    1.104460 S    
C59   Br3   1.943088 S    
C4    C61   1.436571 S    
C88   C92   1.411016 S    
C6    O18   1.274569 A    
O37   Cr5   1.951656 S    
C8    O20   1.273819 A    
C57   C61   1.526366 S    
C3    C62   1.438424 S    
C65   H25   1.110308 S    
C44   C56   1.541071 S    
C45   C49   1.548042 S    
C12   C44   1.454479 S    
C8    C27   1.425146 S    
C21   C93   1.425185 S    
C51   C55   1.534313 S    
O34   Cr6   2.033956 S    
C68   C75   1.529722 S    
C19   C75   1.433570 S    
C26   C29   1.200680 T    
C83   C91   1.200608 T    
C16   C81   1.425253 S    
O38   C18   1.270718 A    
C41   C45   1.528567 S    
C7    C28   1.425207 S    
C84   C92   1.204847 T    
C5    O17   1.274893 A    
O37   C17   1.269681 A    
O22   Cr10  1.947715 S    
O28   C24   1.292872 A    
C69   C73   1.550512 S    
O14   C6    1.278913 A    
C19   O43   1.268308 A    
C45   H9    1.109404 S    
C65   C74   1.539642 S    
Cr12  O52   1.982207 S    
C23   C95   1.425191 S    
N2    O55   1.300290 A    
C68   H28   1.109696 S    
O17   Cr9   2.025472 S    
O6    C2    1.272300 A    
C77   N1    1.456734 S    
C74   C78   1.514293 S    
C47   C51   1.546483 S    
C10   C42   1.458053 S    
C34   C62   1.527620 S    
C72   C79   1.538020 S    
C9    C41   1.440333 S    
C67   C71   1.544161 S    
O40   Cr8   1.940726 S    
O44   Cr12  2.064770 S    
C20   O44   1.262606 A    
C76   C80   1.514389 S    
O1    Cr1   2.058940 S    
O19   Cr11  2.025472 S    
C33   H5    1.110076 S    
C47   H11   1.109108 S    
Cr8   O52   1.994746 S    
O32   C16   1.273679 A    
O29   C13   1.270228 A    
C50   H16   1.110834 S    
C80   N4    1.455345 S    
C78   N2    1.455354 S    
Cr6   O50   1.994746 S    
O46   C22   1.301143 A    
O31   C15   1.270247 A    
C85   C89   1.404048 S    
C43   C47   1.525025 S    
O31   Cr3   1.939230 S    
C6    C25   1.425627 S    
O33   Cr5   2.037467 S    
C38   H2    1.107347 S    
O23   C11   1.266264 A    
O10   Cr6   2.060333 S    
C33   C45   1.547311 S    
C18   C74   1.435213 S    
C55   C59   1.532195 S    
O4    Cr4   2.068786 S    
C15   C82   1.433524 S    
C48   C52   1.542762 S    
C22   C94   1.434016 S    
Cr5   O49   1.980466 S    
C86   C94   1.205029 T    
C1    C64   1.442838 S    
C44   C48   1.532671 S    
C16   O36   1.270151 A    
C41   C53   1.526677 S    
C11   C43   1.443058 S    
N1    O53   1.300289 A    
C40   C60   1.541765 S    
O28   Cr4   2.056474 S    
C51   C63   1.532146 S    
C36   C64   1.527096 S    
N3    O58   1.300557 A    
O27   C23   1.262181 A    
C14   C83   1.425252 S    
C70   C74   1.548935 S    
C17   C73   1.433484 S    
C39   H3    1.108251 S    
C49   C61   1.534556 S    
C46   H10   1.110105 S    
C39   C59   1.543030 S    
O16   C8    1.279034 A    
Cr9   O49   1.995857 S    
C58   Br2   1.941557 S    
C55   H19   1.110429 S    
O38   Cr6   1.940726 S    
C38   C58   1.545759 S    
