data_mof_unit_15859.cif
_audit_creation_date              2013-03-05T15:55:36-0500
_audit_creation_method            fapswitch 2.2
_symmetry_space_group_name_H-M    P1
_symmetry_Int_Tables_number       1
_space_group_crystal_system       triclinic
_cell_length_a                    12.328522
_cell_length_b                    13.180839
_cell_length_c                    15.866764
_cell_angle_alpha                 77.919201
_cell_angle_beta                  101.097285
_cell_angle_gamma                 116.563739
_cell_volume                      2240.64352936

loop_
_atom_site_label
_atom_site_type_symbol
_atom_site_description
_atom_site_fract_x
_atom_site_fract_y
_atom_site_fract_z
_atom_type_partial_charge
O1    O     O_R   0.972520 0.318130 0.524690 -0.582326
O2    O     O_R   0.806530 0.359650 0.491530 -0.605206
C1    C     C_R   0.854858 0.286605 0.507246 0.773620
O3    O     O_R   0.083030 0.479240 0.637150 -0.553628
O4    O     O_R   0.917040 0.520750 0.603990 -0.600278
C2    C     C_R   0.999494 0.499732 0.659560 0.820586
Cu1   Cu    Cu3+1 0.098280 0.475420 0.519630 0.951447
Cu2   Cu    Cu3+1 0.901720 0.524580 0.480370 0.924311
O5    O     O_R   0.193470 0.640350 0.508470 -0.586700
O6    O     O_R   0.027480 0.681870 0.475310 -0.588047
O7    O     O_R   0.082960 0.479250 0.396010 -0.576605
O8    O     O_R   0.916970 0.520760 0.362850 -0.587094
C3    C     C_R   0.145083 0.713375 0.487508 0.794211
C4    C     C_R   0.000374 0.500063 0.340441 0.816666
C5    C     C_3   0.054594 0.413573 0.974027 0.679584
C6    C     C_3   0.868113 0.456537 0.939294 -0.410283
C7    C     C_3   0.868727 0.457620 0.036837 -0.375032
H1    H     H_    0.996285 0.327021 0.103884 0.159805
H2    H     H_    0.827206 0.513838 0.899683 0.173448
H3    H     H_    0.808975 0.368818 0.922648 0.212637
H4    H     H_    0.810089 0.370204 0.067210 0.179847
H5    H     H_    0.828912 0.515975 0.043831 0.180444
C8    C     C_1   0.000717 0.499335 0.250913 -0.175720
C9    C     C_3   0.000182 0.496902 0.917745 0.214275
C10   C     C_3   0.053137 0.414573 0.072566 -0.458520
C11   C     C_3   0.000655 0.497619 0.083393 0.236723
C12   C     C_3   0.079937 0.619294 0.039815 -0.371411
C13   C     C_3   0.075126 0.620058 0.941500 -0.440226
C14   C     C_1   0.000739 0.498589 0.175451 -0.075086
C15   C     C_1   0.998697 0.498317 0.824946 -0.001208
C16   C     C_1   0.998520 0.499180 0.749191 -0.134015
H6    H     H_    0.168979 0.657926 0.922517 0.221205
H7    H     H_    0.031929 0.676830 0.904539 0.174819
H8    H     H_    0.176162 0.647879 0.070294 0.198811
H9    H     H_    0.146002 0.438994 0.108615 0.188761
H10   H     H_    0.046740 0.681437 0.049542 0.172264
C17   C     C_R   0.274859 0.021842 0.386625 -0.188293
H11   H     H_    0.094068 0.887224 0.389398 0.148528
H12   H     H_    0.455683 0.218967 0.334108 0.151398
H13   H     H_    0.243818 0.080636 0.342296 0.137202
C18   C     C_R   0.228016 0.834485 0.469961 -0.047626
C19   C     C_R   0.815610 0.085053 0.561980 -0.182384
C20   C     C_R   0.737040 0.970071 0.578309 -0.138831
C21   C     C_R   0.613611 0.932438 0.548547 -0.178180
C22   C     C_R   0.566489 0.009387 0.498358 0.078637
C23   C     C_R   0.649697 0.123959 0.473147 0.080518
C24   C     C_R   0.439752 0.976121 0.471476 0.072633
C25   C     C_R   0.399639 0.053634 0.413548 0.164565
C26   C     C_R   0.484567 0.160911 0.381386 -0.235985
C27   C     C_R   0.607786 0.194922 0.409518 -0.197990
C28   C     C_R   0.351239 0.868264 0.501051 -0.248959
C29   C     C_R   0.189351 0.912348 0.414246 -0.195948
C30   C     C_R   0.772911 0.163616 0.511498 -0.102313
H14   H     H_    0.375551 0.807728 0.547915 0.152495
H15   H     H_    0.909689 0.112869 0.590712 0.154912
H16   H     H_    0.558349 0.842085 0.564315 0.132991
H17   H     H_    0.771347 0.910071 0.616637 0.146111
H18   H     H_    0.669467 0.276441 0.378598 0.177964
C31   C     C_R   0.345535 0.327722 0.636892 -0.282796
H19   H     H_    0.168051 0.308763 0.652118 0.136407
H20   H     H_    0.545558 0.294052 0.665065 0.156788
H21   H     H_    0.344123 0.260700 0.690181 0.145717
N1    N     N_R   0.246300 0.438200 0.549400 -0.185540
C32   C     C_R   0.760265 0.645970 0.384087 0.079399
C33   C     C_R   0.664196 0.678046 0.358879 -0.247532
C34   C     C_R   0.560424 0.622963 0.402450 -0.187695
C35   C     C_R   0.551605 0.534672 0.472352 -0.006408
C36   C     C_R   0.652829 0.505116 0.496106 0.285510
C37   C     C_R   0.446944 0.475050 0.519709 -0.036080
C38   C     C_R   0.446006 0.387579 0.589355 0.167145
C39   C     C_R   0.545499 0.360520 0.611601 -0.272998
C40   C     C_R   0.646679 0.418297 0.566372 -0.176250
C41   C     C_R   0.342358 0.498015 0.501450 0.021922
C42   C     C_R   0.246005 0.354600 0.615726 0.097094
N2    N     N_R   0.754300 0.561180 0.451130 -0.207145
H22   H     H_    0.334989 0.562824 0.449703 0.124887
H23   H     H_    0.840503 0.689245 0.349939 0.125685
H24   H     H_    0.488905 0.651330 0.380177 0.138176
H25   H     H_    0.670184 0.745840 0.305388 0.149327
H26   H     H_    0.718423 0.392044 0.589403 0.207661
N3    N     N_R   0.179858 0.447892 0.954561 0.098158
O9    O     O_R   0.272723 0.531717 0.988141 -0.405795
O10   O     O_R   0.198617 0.396797 0.900645 -0.341012
O11   O     O_3   0.979835 0.301798 0.953756 -0.749173
H27   H     H_    0.016624 0.250502 0.988324 0.331017

loop_
_geom_bond_atom_site_label_1
_geom_bond_atom_site_label_2
_geom_bond_distance
_ccdc_geom_bond_type
C33   H25   1.082570 S    
C32   H23   1.081561 S    
C3    C18   1.461149 S    
N3    O9    1.302173 A    
Cu1   Cu2   2.708245 S    
C5    N3    1.478269 S    
C22   C23   1.418607 A    
C36   N2    1.384352 A    
Cu1   O7    1.926129 S    
C11   C12   1.549040 S    
C7    C11   1.550043 S    
C8    C14   1.199483 T    
C6    H3    1.112607 S    
C17   H13   1.084055 S    
C19   C30   1.403225 A    
C15   C16   1.199257 T    
O7    C4    1.300889 A    
C5    C10   1.569931 S    
H11   C29   1.083274 S    
O5    C3    1.302346 A    
C6    C7    1.549258 S    
C37   C41   1.416571 A    
C38   C39   1.388613 A    
C18   C29   1.399125 A    
Cu2   O8    1.922906 S    
H20   C39   1.084627 S    
C2    C16   1.422981 S    
C6    C9    1.553845 S    
H1    C10   1.113787 S    
O3    Cu1   1.922906 S    
N3    O10   1.302110 A    
C22   C24   1.422850 A    
C12   H8    1.113037 S    
C34   H24   1.077833 S    
C35   C36   1.429502 A    
C27   H18   1.079658 S    
C13   H6    1.110571 S    
O11   H27   0.993463 S    
O3    C2    1.300001 A    
C17   C29   1.392345 A    
C24   C28   1.400874 A    
N1    C41   1.365126 A    
C10   C11   1.549609 S    
Cu2   N2    2.029058 S    
C7    H4    1.113183 S    
C35   C37   1.437429 A    
C4    C8    1.423393 S    
C20   C21   1.389593 A    
C19   H15   1.083332 S    
C21   H16   1.077168 S    
C24   C25   1.420240 A    
C36   C40   1.406830 A    
C17   C25   1.403568 A    
C31   C42   1.387205 A    
Cu1   N1    2.041037 S    
C10   H9    1.112175 S    
C25   C26   1.391261 A    
H12   C26   1.084299 S    
O8    C4    1.300138 A    
C13   H7    1.113543 S    
C26   C27   1.386201 A    
C41   H22   1.076660 S    
C19   C20   1.386215 A    
C21   C22   1.418155 A    
Cu1   O5    1.942059 S    
C5    C9    1.572135 S    
C31   H21   1.083916 S    
O1    Cu1   1.952396 S    
O2    Cu2   1.942059 S    
C9    C13   1.552891 S    
O6    C3    1.303517 A    
O4    Cu2   1.926129 S    
C5    O11   1.411832 S    
N1    C42   1.354330 A    
C12   H10   1.113240 S    
C23   C27   1.413252 A    
C7    H5    1.113214 S    
C28   H14   1.076645 S    
C32   C33   1.391480 A    
O2    C1    1.303660 A    
C39   C40   1.384626 A    
C40   H26   1.063955 S    
C1    C30   1.472694 S    
O4    C2    1.300808 A    
C6    H2    1.113450 S    
C23   C30   1.420625 A    
H19   C42   1.081825 S    
C32   N2    1.358301 A    
C34   C35   1.410414 A    
C37   C38   1.417840 A    
C9    C15   1.465309 S    
C20   H17   1.083053 S    
C31   C38   1.400774 A    
C11   C14   1.463181 S    
Cu2   O6    1.952396 S    
C33   C34   1.393343 A    
C12   C13   1.547697 S    
O1    C1    1.306898 A    
C18   C28   1.395687 A    
