data_mof_unit_47425.cif
_audit_creation_date              2012-12-10T18:29:42-0500
_audit_creation_method            fapswitch 2.2
_symmetry_space_group_name_H-M    P1
_symmetry_Int_Tables_number       1
_space_group_crystal_system       triclinic
_cell_length_a                    11.554332
_cell_length_b                    14.979329
_cell_length_c                    15.344356
_cell_angle_alpha                 81.930814
_cell_angle_beta                  89.697486
_cell_angle_gamma                 104.293742
_cell_volume                      2545.83932181

loop_
_atom_site_label
_atom_site_type_symbol
_atom_type_description
_atom_site_fract_x
_atom_site_fract_y
_atom_site_fract_z
_atom_type_partial_charge
C1    C     C_R   0.485567 0.441699 0.662267 0.939786
C2    C     C_R   0.541257 0.685499 0.973474 -0.181196
C3    C     C_R   0.663811 0.836493 0.648344 -0.090568
C4    C     C_R   0.335702 0.163138 0.351857 -0.096977
C5    C     C_R   0.640426 0.750042 0.619282 -0.083401
C6    C     C_R   0.358187 0.249461 0.381638 0.017726
C7    C     C_R   0.517733 0.796502 0.507895 -0.031563
C8    C     C_R   0.483840 0.203995 0.491238 -0.028681
C9    C     C_R   0.538711 0.886051 0.532371 -0.043465
C10   C     C_R   0.462943 0.114499 0.466760 -0.005694
C11   C     C_R   0.601176 0.902326 0.610767 0.129575
C12   C     C_R   0.522360 0.558500 0.337392 0.888217
C13   C     C_R   0.399685 0.097991 0.388732 0.044421
C14   C     C_R   0.496308 0.957994 0.482766 0.094283
C15   C     C_R   0.505570 0.042635 0.516304 0.103455
C16   C     C_R   0.718011 0.500879 0.500170 0.910083
C17   C     C_R   0.281979 0.499085 0.499911 0.925101
C18   C     C_R   0.549738 0.050912 0.601075 -0.329524
C19   C     C_R   0.451528 0.949539 0.398213 -0.290200
C20   C     C_R   0.594480 0.981637 0.649217 0.014100
C21   C     C_R   0.405665 0.018376 0.350473 -0.024787
C22   C     C_1   0.839043 0.502184 0.500569 -0.148800
C23   C     C_R   0.633844 0.403266 0.906248 0.173810
C24   C     C_1   0.160907 0.497706 0.499654 -0.151813
C25   C     C_1   0.940933 0.501072 0.500392 0.021736
C26   C     C_1   0.058996 0.498767 0.499909 0.022964
C27   C     C_R   0.504726 0.408174 0.753389 -0.045325
C28   C     C_R   0.548642 0.596262 0.243556 -0.079071
C29   C     C_R   0.637401 0.340342 0.847562 -0.175134
C30   C     C_R   0.532876 0.715265 0.123315 -0.181459
C31   C     C_R   0.577115 0.345558 0.769573 -0.242800
C32   C     C_R   0.528160 0.683408 0.212870 -0.216463
C33   C     C_R   0.483348 0.459155 0.819095 -0.086278
C34   C     C_R   0.557849 0.660380 0.062840 0.160376
C35   C     C_R   0.588677 0.544732 0.184012 -0.078303
C36   C     C_R   0.562047 0.467729 0.889379 -0.005742
C37   C     C_R   0.594101 0.577345 0.092013 0.013517
C38   C     C_2   0.611035 0.452828 0.217670 0.404975
C39   C     C_2   0.370770 0.491484 0.819989 0.391780
C40   C     C_2   0.614897 0.989839 0.743537 0.495952
C41   C     C_2   0.382766 0.009115 0.256664 0.362069
C42   C     C_2   0.762992 0.856894 0.709220 0.475759
C43   C     C_2   0.236131 0.139678 0.291522 0.496625
C44   C     C_R   0.571960 0.537908 0.943689 0.061678
C45   C     C_R   0.621002 0.525559 0.027075 0.066395
C46   C     C_R   0.696671 0.464360 0.040423 -0.231608
C47   C     C_R   0.543531 0.623152 0.914937 -0.254306
C48   C     C_R   0.703835 0.404567 0.980135 -0.191456
H1    H     H_    0.762592 0.358228 0.992156 0.162228
H2    H     H_    0.524692 0.642632 0.846864 0.163175
H3    H     H_    0.543179 0.225905 0.542432 0.128958
H4    H     H_    0.459295 0.774813 0.456169 0.125837
H5    H     H_    0.314710 0.302340 0.353227 0.172422
H6    H     H_    0.682875 0.696895 0.648769 0.131007
H7    H     H_    0.563790 0.390971 0.191284 0.095865
H8    H     H_    0.342919 0.516024 0.877887 0.090792
H9    H     H_    0.644592 0.058187 0.763753 0.058657
H10   H     H_    0.350815 0.940493 0.237436 0.064612
H11   H     H_    0.783610 0.800502 0.753911 0.059763
H12   H     H_    0.517190 0.749960 0.950040 0.187976
H13   H     H_    0.193008 0.067590 0.286889 0.059349
H14   H     H_    0.542794 0.108587 0.634072 0.127950
H15   H     H_    0.458250 0.891864 0.365157 0.126305
H16   H     H_    0.500859 0.724611 0.258022 0.156486
H17   H     H_    0.593265 0.305162 0.719562 0.153569
H18   H     H_    0.693564 0.291957 0.858888 0.151133
H19   H     H_    0.509253 0.780203 0.101203 0.153581
H20   H     H_    0.754840 0.464815 0.095304 0.182113
N1    N     N_R   0.566020 0.731700 0.552730 -0.093145
N2    N     N_R   0.433980 0.268300 0.447270 -0.116569
O1    O     O_R   0.466720 0.383110 0.605620 -0.630629
O2    O     O_2   0.304377 0.486725 0.758225 -0.564913
O3    O     O_2   0.591600 0.921193 0.800006 -0.589171
O4    O     O_2   0.406709 0.077080 0.199448 -0.536993
O5    O     O_2   0.826951 0.935507 0.706517 -0.558696
O6    O     O_2   0.199358 0.200653 0.247532 -0.558714
O7    O     O_R   0.533280 0.616890 0.394380 -0.626268
O8    O     O_R   0.509090 0.531900 0.639510 -0.593480
O9    O     O_R   0.490910 0.468100 0.360490 -0.594470
O10   O     O_R   0.644370 0.425610 0.483050 -0.581422
O11   O     O_R   0.355630 0.574390 0.516950 -0.596830
O12   O     O_R   0.686740 0.574390 0.516930 -0.622794
O13   O     O_R   0.313260 0.425610 0.483070 -0.614836
O14   O     O_2   0.684837 0.446389 0.273366 -0.548020
Zn1   Zn    Zn3+2 0.471710 0.400660 0.477370 0.984401
Zn2   Zn    Zn3+2 0.528290 0.599340 0.522630 0.971001

loop_
_geom_bond_atom_site_label_1
_geom_bond_atom_site_label_2
_ccdc_geom_bond_type
C15   C18   A    
C3    C42   S    
C6    N2    A    
C34   C37   A    
C45   C46   A    
C27   C33   A    
C42   O5    D    
C1    O1    A    
C12   C28   S    
C23   C29   A    
C35   C37   A    
C24   C26   T    
C7    H4    S    
C10   C15   A    
C20   C40   S    
C2    H12   S    
C12   O9    A    
C33   C36   A    
C40   O3    D    
C31   H17   S    
C4    C13   A    
C5    N1    A    
C41   O4    D    
O1    Zn1   S    
C38   H7    S    
C28   C35   A    
C19   H15   S    
C22   C25   T    
C39   O2    D    
C23   C48   A    
C17   O11   A    
O11   Zn2   S    
C44   C47   A    
C2    C34   A    
C1    O8    A    
C47   H2    S    
C46   C48   A    
C11   C20   A    
C17   C24   S    
C30   C34   A    
C27   C31   A    
C5    H6    S    
C28   C32   A    
C35   C38   S    
C32   H16   S    
C4    C6    A    
C18   H14   S    
C25   C26   S    
O12   Zn2   S    
C16   O10   A    
C9    C14   A    
C46   H20   S    
O10   Zn1   S    
C39   H8    S    
C12   O7    A    
C16   O12   A    
C13   C21   A    
C33   C39   S    
C9    C11   A    
C8    H3    S    
C21   C41   S    
C48   H1    S    
O13   Zn1   S    
O7    Zn2   S    
C36   C44   A    
C6    H5    S    
C37   C45   A    
C41   H10   S    
O9    Zn1   S    
C44   C45   A    
C43   H13   S    
C43   O6    D    
C7    C9    A    
C16   C22   S    
C40   H9    S    
C38   O14   D    
C14   C19   A    
C30   H19   S    
C3    C5    A    
C10   C13   A    
C42   H11   S    
C7    N1    A    
C4    C43   S    
C2    C47   A    
C8    N2    A    
C29   C31   A    
C30   C32   A    
O8    Zn2   S    
C18   C20   A    
C3    C11   A    
C29   H18   S    
C8    C10   A    
C23   C36   A    
C1    C27   S    
C14   C15   A    
C17   O13   A    
N2    Zn1   S    
N1    Zn2   S    
C19   C21   A    
