data_mof_unit_40310.cif
_audit_creation_date              2012-12-10T18:00:44-0500
_audit_creation_method            fapswitch 2.2
_symmetry_space_group_name_H-M    P1
_symmetry_Int_Tables_number       1
_space_group_crystal_system       triclinic
_cell_length_a                    15.847193
_cell_length_b                    10.798653
_cell_length_c                    9.600071
_cell_angle_alpha                 89.167618
_cell_angle_beta                  88.490876
_cell_angle_gamma                 92.292527
_cell_volume                      1640.76027428

loop_
_atom_site_label
_atom_site_type_symbol
_atom_type_description
_atom_site_fract_x
_atom_site_fract_y
_atom_site_fract_z
_atom_type_partial_charge
C1    C     C_R   0.499550 0.262351 0.500659 0.803634
C2    C     C_R   0.499548 0.737638 0.499572 0.801377
C3    C     C_R   0.466692 0.935705 0.386725 -0.095822
C4    C     C_R   0.527988 0.064126 0.616756 -0.117039
C5    C     C_R   0.498715 0.871571 0.499954 -0.051582
C6    C     C_R   0.498159 0.128363 0.501692 -0.029198
C7    C     C_R   0.446210 0.423476 0.080815 -0.134600
C8    C     C_R   0.556352 0.572352 0.919181 -0.122621
C9    C     C_R   0.441696 0.426947 0.933569 0.485584
C10   C     C_R   0.554677 0.578962 0.066587 0.502446
C11   C     C_R   0.339972 0.499675 0.501498 0.819620
C12   C     C_R   0.660028 0.499456 0.498544 0.836158
C13   C     C_3   0.967911 0.464134 0.623383 0.498828
C14   C     C_3   0.032180 0.533454 0.376456 0.490572
C15   C     C_3   0.024084 0.383284 0.531445 -0.244126
C16   C     C_3   0.976005 0.614313 0.468390 -0.244261
C17   C     C_1   0.250251 0.498982 0.504638 -0.079198
C18   C     C_1   0.749774 0.499469 0.495374 -0.084262
C19   C     C_3   0.027836 0.578582 0.597366 -0.247151
C20   C     C_3   0.972236 0.419008 0.402470 -0.255030
C21   C     C_3   0.083051 0.498335 0.503322 -0.020115
C22   C     C_3   0.917010 0.499264 0.496542 -0.019140
C23   C     C_1   0.174677 0.498470 0.505199 0.100095
C24   C     C_1   0.825357 0.499471 0.494770 0.092268
C25   C     C_R   0.467188 0.063921 0.386880 -0.154577
C26   C     C_R   0.528636 0.935994 0.615626 -0.153177
Cu1   Cu    Cu3+1 0.500000 0.500020 0.640660 1.043785
Cu2   Cu    Cu3+1 0.500000 0.499980 0.359340 1.043610
H1    H     H_    0.402469 0.365834 0.143881 0.203649
H2    H     H_    0.598510 0.632673 0.856231 0.202868
N1    N     N_R   0.500020 0.500030 0.852070 -0.255429
N2    N     N_R   0.499980 0.499970 0.147930 -0.254863
O1    O     O_R   0.500000 0.319660 0.618740 -0.532288
O2    O     O_R   0.500000 0.680340 0.381260 -0.517656
O3    O     O_R   0.499990 0.319630 0.381170 -0.603836
O4    O     O_R   0.500010 0.680370 0.618830 -0.594695
O5    O     O_R   0.379080 0.500000 0.618760 -0.503888
O6    O     O_R   0.620920 0.500000 0.381240 -0.516035
O7    O     O_R   0.379080 0.499970 0.381190 -0.577211
O8    O     O_R   0.620920 0.500030 0.618810 -0.583453
H3    H     H_    0.044474 0.289110 0.559146 0.199106
H4    H     H_    0.955646 0.708505 0.440698 0.200918
S1    S     S_3+6 0.924311 0.417420 0.789681 0.032965
O9    O     O_2   0.875484 0.521362 0.849976 -0.252924
O10   O     O_2   0.866403 0.305194 0.773749 -0.277279
O11   O     O_3   0.003120 0.382841 0.895561 -0.472234
H5    H     H_    0.974867 0.360308 0.986202 0.398023
S2    S     S_3+6 0.076052 0.580019 0.210249 0.040648
O12   O     O_2   0.133955 0.692233 0.226310 -0.270812
O13   O     O_2   0.124965 0.476019 0.150272 -0.233538
O14   O     O_3   0.997454 0.614560 0.103937 -0.479733
H6    H     H_    0.025868 0.636831 0.013354 0.400762
H7    H     H_    0.948871 0.355001 0.321298 0.195245
H8    H     H_    0.051219 0.642570 0.678545 0.198483
H9    H     H_    0.442407 0.112491 0.298265 0.170627
H10   H     H_    0.553275 0.887500 0.704419 0.179571
H11   H     H_    0.440177 0.886832 0.299427 0.196848
H12   H     H_    0.552092 0.112879 0.706151 0.174090
S3    S     S_3+6 0.346818 0.352901 0.872453 0.056683
O15   O     O_2   0.308832 0.266869 0.983898 -0.281006
O16   O     O_2   0.284601 0.451482 0.845781 -0.249933
O17   O     O_3   0.358723 0.268064 0.729007 -0.523770
H13   H     H_    0.300546 0.246064 0.700079 0.362685
S4    S     S_3+6 0.612329 0.713613 0.125665 0.042282
O18   O     O_2   0.683063 0.746100 0.022368 -0.274606
O19   O     O_2   0.552705 0.818215 0.124974 -0.322274
O20   O     O_3   0.656241 0.706709 0.282178 -0.508572
H14   H     H_    0.674992 0.793101 0.302177 0.364506

loop_
_geom_bond_atom_site_label_1
_geom_bond_atom_site_label_2
_ccdc_geom_bond_type
C12   O8    A    
C4    C26   A    
S1    O9    D    
C7    C9    A    
O17   H13   S    
C7    H1    S    
C10   N2    A    
Cu1   O4    S    
Cu2   O6    S    
Cu1   O8    S    
C3    C5    A    
C8    H2    S    
S4    O18   D    
C2    O2    A    
C13   S1    S    
S2    O13   D    
C1    O1    A    
S3    O15   D    
S4    O19   D    
C25   H9    S    
Cu1   O1    S    
C11   O7    A    
S1    O10   D    
C15   H3    S    
C17   C23   T    
C15   C21   S    
Cu1   O5    S    
C16   C19   S    
C18   C24   T    
C3    H11   S    
C19   H8    S    
C4    C6    A    
S2    O12   D    
C19   C21   S    
C20   C22   S    
C13   C22   S    
C22   C24   S    
C2    O4    A    
C13   C15   S    
C21   C23   S    
C12   O6    A    
C15   C20   S    
S1    O11   S    
C14   C16   S    
S3    O16   D    
C6    C25   A    
C13   C19   S    
C4    H12   S    
C14   C21   S    
C5    C26   A    
C2    C5    S    
S4    O20   S    
C14   C20   S    
Cu2   N2    S    
C3    C25   A    
O14   H6    S    
C1    O3    A    
C8    C10   A    
C12   C18   S    
Cu1   Cu2   S    
C11   O5    A    
C9    N1    A    
O11   H5    S    
C11   C17   S    
S3    O17   S    
C14   S2    S    
C7    N2    A    
C1    C6    S    
Cu2   O7    S    
Cu2   O2    S    
C16   H4    S    
Cu1   N1    S    
S2    O14   S    
C10   S4    S    
C8    N1    A    
O20   H14   S    
Cu2   O3    S    
C16   C22   S    
C20   H7    S    
C9    S3    S    
C26   H10   S    
