data_mof_unit_9582.cif
_audit_creation_date              2012-12-11T15:06:40-0500
_audit_creation_method            fapswitch 2.2
_symmetry_space_group_name_H-M    P1
_symmetry_Int_Tables_number       1
_space_group_crystal_system       triclinic
_cell_length_a                    7.229901
_cell_length_b                    15.063665
_cell_length_c                    22.399347
_cell_angle_alpha                 89.964432
_cell_angle_beta                  88.477966
_cell_angle_gamma                 89.222615
_cell_volume                      2438.40092146

loop_
_atom_site_label
_atom_site_type_symbol
_atom_type_description
_atom_site_fract_x
_atom_site_fract_y
_atom_site_fract_z
_atom_type_partial_charge
O1    O     O_R   0.390810 0.844810 0.447340 -0.534669
O2    O     O_R   0.109190 0.155190 0.947340 -0.534671
O3    O     O_R   0.890810 0.655190 0.552660 -0.534003
O4    O     O_R   0.609190 0.344810 0.052660 -0.534088
O5    O     O_R   0.720550 0.655820 0.440420 -0.538645
O6    O     O_R   0.779450 0.344180 0.940420 -0.535027
O7    O     O_R   0.220550 0.844180 0.559580 -0.535676
O8    O     O_R   0.279450 0.155820 0.059580 -0.537403
C1    C     C_R   0.555045 0.627039 0.425926 0.709380
C2    C     C_R   0.950044 0.373272 0.926310 0.707244
C3    C     C_R   0.048508 0.872645 0.574039 0.710569
C4    C     C_R   0.447999 0.126970 0.073954 0.710323
O9    O     O_R   0.720530 0.844130 0.440420 -0.538032
O10   O     O_R   0.779470 0.155870 0.940420 -0.539810
O11   O     O_R   0.220530 0.655870 0.559580 -0.540587
O12   O     O_R   0.279470 0.344130 0.059580 -0.540724
O13   O     O_R   0.890830 0.844810 0.552660 -0.534547
O14   O     O_R   0.609170 0.155190 0.052660 -0.534135
O15   O     O_R   0.390830 0.655190 0.447340 -0.535747
O16   O     O_R   0.109170 0.344810 0.947340 -0.535690
C5    C     C_R   0.552247 0.873521 0.426424 0.686578
C6    C     C_R   0.950269 0.127128 0.926316 0.681626
C7    C     C_R   0.050832 0.627478 0.574009 0.678811
C8    C     C_R   0.444846 0.372837 0.074116 0.685124
O17   O     O_3   0.557310 0.749980 0.536820 -0.372462
O18   O     O_3   0.942690 0.250020 0.036820 -0.374198
O19   O     O_3   0.057310 0.750020 0.463180 -0.376271
O20   O     O_3   0.442690 0.249980 0.963180 -0.373337
V1    V     V_3+5 0.832160 0.749980 0.493170 1.451204
V2    V     V_3+5 0.667840 0.250020 0.993170 1.457820
V3    V     V_3+5 0.332160 0.750020 0.506830 1.446730
V4    V     V_3+5 0.167840 0.249980 0.006830 1.457898
C9    C     C_R   0.173438 0.573766 0.861858 0.643210
C10   C     C_R   0.681386 0.408397 0.354626 0.659062
C11   C     C_R   0.564240 0.900888 0.133463 0.672180
C12   C     C_R   0.832335 0.078183 0.638302 0.647329
H1    H     H_    0.129815 0.520565 0.949070 0.130571
H2    H     H_    0.709247 0.467016 0.440773 0.130392
H3    H     H_    0.535722 0.958764 0.046843 0.138394
H4    H     H_    0.870841 0.022853 0.551284 0.140476
C13   C     C_R   0.977409 0.447790 0.884102 -0.107222
C14   C     C_R   0.560028 0.553691 0.382209 -0.123547
C15   C     C_R   0.462948 0.052427 0.116413 -0.117744
C16   C     C_R   0.018945 0.946588 0.616588 -0.115388
C17   C     C_R   0.949663 0.476129 0.592417 -0.141846
C18   C     C_R   0.342636 0.523757 0.100463 -0.162543
C19   C     C_R   0.500915 0.032883 0.408752 -0.186650
C20   C     C_R   0.028114 0.970629 0.908415 -0.166853
C21   C     C_R   0.897911 0.405733 0.629589 0.107267
C22   C     C_R   0.314880 0.594794 0.139802 0.165594
C23   C     C_R   0.464106 0.105816 0.372157 0.182350
C24   C     C_R   0.055481 0.896590 0.871775 0.147903
C25   C     C_R   0.920614 0.413302 0.691354 -0.158839
C26   C     C_R   0.378371 0.587754 0.198279 -0.061373
C27   C     C_R   0.464163 0.094937 0.310005 -0.073484
C28   C     C_R   0.044826 0.905782 0.809587 -0.121763
C29   C     C_R   0.000796 0.488999 0.716753 0.086472
C30   C     C_R   0.469455 0.509894 0.218583 0.077091
C31   C     C_R   0.501571 0.011348 0.283092 0.068083
C32   C     C_R   0.990204 0.987146 0.783687 0.074664
C33   C     C_R   0.066259 0.556912 0.677282 -0.011102
C34   C     C_R   0.502040 0.439237 0.176761 -0.023542
C35   C     C_R   0.542691 0.937919 0.321310 -0.018721
C36   C     C_R   0.938120 0.058700 0.822695 -0.014852
C37   C     C_R   0.022271 0.498319 0.779909 -0.044663
C38   C     C_R   0.526212 0.499308 0.279248 -0.045195
C39   C     C_R   0.500506 0.998426 0.219529 -0.052707
C40   C     C_R   0.974669 0.997965 0.720528 -0.049015
C41   C     C_R   0.133487 0.568602 0.800856 -0.110659
C42   C     C_R   0.618641 0.419088 0.295928 -0.127011
C43   C     C_R   0.551879 0.913539 0.195804 -0.120161
C44   C     C_R   0.873010 0.072472 0.699179 -0.102384
C45   C     C_R   0.205327 0.631721 0.760506 0.627194
C46   C     C_R   0.648596 0.351061 0.253743 0.633703
C47   C     C_R   0.592904 0.842903 0.234532 0.638976
C48   C     C_R   0.810589 0.139009 0.739097 0.632684
C49   C     C_R   0.164464 0.628109 0.700377 -0.291429
C50   C     C_R   0.590208 0.360936 0.195568 -0.290753
C51   C     C_R   0.585339 0.854753 0.296011 -0.295904
C52   C     C_R   0.852824 0.134592 0.799114 -0.283688
C53   C     C_R   0.942454 0.438961 0.822922 -0.175184
C54   C     C_R   0.495802 0.565585 0.324055 -0.159046
C55   C     C_R   0.453805 0.067036 0.178406 -0.157902
C56   C     C_R   0.050688 0.936193 0.677951 -0.177614
C57   C     C_R   0.091955 0.516032 0.902659 -0.241540
C58   C     C_R   0.653935 0.475472 0.396657 -0.263052
C59   C     C_R   0.520012 0.969558 0.094562 -0.276031
C60   C     C_R   0.908362 0.017557 0.597723 -0.243947
C61   C     C_R   0.032261 0.551571 0.615317 -0.082745
C62   C     C_R   0.438948 0.447126 0.117410 -0.081706
C63   C     C_R   0.539451 0.949085 0.384336 -0.077634
C64   C     C_R   0.968370 0.051427 0.884808 -0.074967
H5    H     H_    0.858774 0.383729 0.810199 0.131193
H6    H     H_    0.428844 0.628265 0.314969 0.121471
H7    H     H_    0.414625 0.133061 0.192742 0.118847
H8    H     H_    0.130279 0.878744 0.691388 0.133167
H9    H     H_    0.925086 0.473757 0.545005 0.118487
H10   H     H_    0.287036 0.527579 0.056066 0.121226
H11   H     H_    0.497260 0.041252 0.456861 0.125672
H12   H     H_    0.047909 0.964561 0.956086 0.114539
H13   H     H_    0.879894 0.357476 0.718441 0.167907
H14   H     H_    0.350607 0.643556 0.227262 0.127317
H15   H     H_    0.435056 0.153220 0.283887 0.132830
H16   H     H_    0.069034 0.847367 0.782486 0.141348
H17   H     H_    0.217664 0.680088 0.671629 0.152603
H18   H     H_    0.614831 0.305853 0.165271 0.148826
H19   H     H_    0.617036 0.797970 0.323787 0.135617
H20   H     H_    0.808448 0.189355 0.827524 0.144817
F1    F     F_    0.314109 0.698601 0.778954 -0.661808
F2    F     F_    0.734504 0.273657 0.268480 -0.647344
F3    F     F_    0.640418 0.761121 0.213204 -0.652083
F4    F     F_    0.709989 0.209789 0.720302 -0.685069
F5    F     F_    0.302273 0.630266 0.882136 -0.665725
F6    F     F_    0.774364 0.333945 0.371479 -0.660966
F7    F     F_    0.628365 0.823298 0.109623 -0.661675
F8    F     F_    0.706555 0.137794 0.618204 -0.678476
C65   C     C_3   0.818064 0.320863 0.605904 -0.249773
C66   C     C_3   0.789603 0.316964 0.538494 -0.701954
H21   H     H_    0.688168 0.368752 0.525152 0.211103
H22   H     H_    0.922962 0.325342 0.513519 0.225579
H23   H     H_    0.733518 0.251287 0.526513 0.264842
H24   H     H_    0.913639 0.265776 0.617929 0.226653
H25   H     H_    0.681607 0.310313 0.628578 0.269103
C67   C     C_3   0.206434 0.676187 0.120620 -0.328188
C68   C     C_3   0.279146 0.714545 0.061352 -0.636164
H26   H     H_    0.432405 0.716211 0.060084 0.292451
H27   H     H_    0.233491 0.673755 0.023350 0.213829
H28   H     H_    0.223776 0.783053 0.055515 0.216659
H29   H     H_    0.059046 0.658121 0.115825 0.205005
H30   H     H_    0.211182 0.728971 0.155214 0.201191
C69   C     C_3   0.423757 0.195667 0.399764 -0.309305
C70   C     C_3   0.235372 0.197914 0.432233 -0.719344
H31   H     H_    0.124294 0.182025 0.400765 0.265003
H32   H     H_    0.232112 0.149589 0.469703 0.222236
H33   H     H_    0.208369 0.265373 0.450711 0.229432
H34   H     H_    0.533580 0.211728 0.431665 0.215917
H35   H     H_    0.424473 0.248442 0.365051 0.210037
C71   C     C_3   0.094732 0.807506 0.899338 -0.309366
C72   C     C_3   0.932212 0.776003 0.938523 -0.713513
H36   H     H_    0.910571 0.820036 0.977900 0.237613
H37   H     H_    0.803703 0.774963 0.912420 0.251991
H38   H     H_    0.961373 0.707715 0.954759 0.232245
H39   H     H_    0.118057 0.758024 0.863566 0.263603
H40   H     H_    0.221626 0.810731 0.926151 0.213623

loop_
_geom_bond_atom_site_label_1
_geom_bond_atom_site_label_2
_ccdc_geom_bond_type
O17   V3    S    
C30   C34   A    
C54   H6    S    
C27   C31   A    
O19   V1    S    
O13   V1    S    
O3    C7    A    
C14   C54   A    
H3    C59   S    
C44   C48   A    
O15   V3    S    
C35   C51   A    
C12   C60   A    
O1    C5    A    
C30   C38   A    
C1    C14   S    
C22   C26   A    
H2    C58   S    
H1    C57   S    
C4    C15   S    
C71   H39   S    
C56   H8    S    
O4    C8    A    
C72   H38   S    
C37   C41   A    
C27   H15   S    
C15   C55   A    
O1    V3    S    
C19   H11   S    
O2    V4    S    
C10   C58   A    
O3    V1    S    
C9    C57   A    
C66   H21   S    
C31   C39   A    
C11   C59   A    
C1    O15   A    
C21   C65   S    
C2    O16   A    
C70   H31   S    
O2    C6    A    
C68   H28   S    
C24   C71   S    
C7    C61   S    
C41   C45   A    
C14   C58   A    
C17   C61   A    
C10   C42   A    
C39   C43   A    
C40   C44   A    
C9    F5    S    
O11   C7    A    
C18   H10   S    
C55   H7    S    
O12   C8    A    
C2    C13   S    
C48   F4    S    
C36   C52   A    
C19   C63   A    
O10   V2    S    
O16   V4    S    
C33   C61   A    
O5    V1    S    
C34   C50   A    
C20   H12   S    
O7    V3    S    
C67   H30   S    
C40   C56   A    
C22   C67   S    
C28   H16   S    
C69   H34   S    
C71   C72   S    
C25   H13   S    
C25   C29   A    
O18   V4    S    
C19   C23   A    
C28   C32   A    
C66   H23   S    
O8    V4    S    
O7    C3    A    
C65   H24   S    
C42   C46   A    
C69   H35   S    
C38   C54   A    
C53   H5    S    
C37   C53   A    
C17   C21   A    
O8    C4    A    
C13   C53   A    
C26   C30   A    
C51   H19   S    
C3    C16   S    
C39   C55   A    
O11   V3    S    
O14   V2    S    
O6    V2    S    
C33   C49   A    
C20   C64   A    
C68   H26   S    
C10   F6    S    
C36   C64   A    
C4    O14   A    
C69   C70   S    
C12   F8    S    
C5    C63   S    
O9    V1    S    
C18   C22   A    
C3    O13   A    
C23   C69   S    
C31   C35   A    
C26   H14   S    
C48   C52   A    
C29   C37   A    
C16   C56   A    
C8    C62   S    
C46   F2    S    
C72   H36   S    
C29   C33   A    
C18   C62   A    
C9    C41   A    
O12   V4    S    
C13   C57   A    
C52   H20   S    
C47   F3    S    
C32   C36   A    
C50   H18   S    
C15   C59   A    
O10   C6    A    
C49   H17   S    
C65   H25   S    
C71   H40   S    
C65   C66   S    
O9    C5    A    
C43   C47   A    
C72   H37   S    
H4    C60   S    
C38   C42   A    
C70   H33   S    
C21   C25   A    
C34   C62   A    
O20   V2    S    
C67   H29   S    
C23   C27   A    
C45   F1    S    
C66   H22   S    
O6    C2    A    
C11   C43   A    
C12   C44   A    
C20   C24   A    
C11   F7    S    
C32   C40   A    
C45   C49   A    
C70   H32   S    
C46   C50   A    
C35   C63   A    
C68   H27   S    
C6    C64   S    
C17   H9    S    
O5    C1    A    
C16   C60   A    
C47   C51   A    
O4    V2    S    
C24   C28   A    
C67   C68   S    
