data_mof_unit_16786.cif
_audit_creation_date              2012-12-10T20:31:09-0500
_audit_creation_method            fapswitch 2.2
_symmetry_space_group_name_H-M    P1
_symmetry_Int_Tables_number       1
_space_group_crystal_system       triclinic
_cell_length_a                    14.924727
_cell_length_b                    10.722686
_cell_length_c                    9.979026
_cell_angle_alpha                 89.919528
_cell_angle_beta                  90.714941
_cell_angle_gamma                 90.827592
_cell_volume                      1596.68297861

loop_
_atom_site_label
_atom_site_type_symbol
_atom_type_description
_atom_site_fract_x
_atom_site_fract_y
_atom_site_fract_z
_atom_type_partial_charge
Br1   Br    Br    0.746990 0.766367 0.489471 -0.378398
Br2   Br    Br    0.483866 0.864293 0.890539 -0.294896
Br3   Br    Br    0.555120 0.159062 0.879918 -0.383852
Br4   Br    Br    0.654455 0.660200 0.165176 -0.243760
Br5   Br    Br    0.668812 0.634331 0.844846 -0.341213
Br6   Br    Br    0.241141 0.420135 0.145300 -0.362760
Br7   Br    Br    0.740945 0.234053 0.495011 -0.463861
Br8   Br    Br    0.915564 0.870559 0.651848 -0.362622
Br9   Br    Br    0.587271 0.132160 0.225825 -0.250624
C1    C     C_R   0.507899 0.261170 0.499895 0.953516
C2    C     C_R   0.186370 0.381528 0.493473 0.435517
C3    C     C_R   0.232575 0.496666 0.499328 -0.216288
C4    C     C_R   0.327723 0.500316 0.499456 0.949564
C5    C     C_R   0.189299 0.610110 0.510722 0.374254
C6    C     C_R   0.507100 0.065711 0.618840 0.014170
C7    C     C_R   0.518935 0.129064 0.499213 -0.282791
C8    C     C_R   0.526527 0.063614 0.378556 0.331968
C9    C     C_R   0.501268 0.939377 0.374126 0.407487
C10   C     C_R   0.491042 0.873440 0.496471 -0.291275
C11   C     C_R   0.492310 0.938435 0.618029 0.005205
C12   C     C_R   0.908378 0.614136 0.534955 0.000824
C13   C     C_3   0.553175 0.917407 0.735678 0.147646
C14   C     C_3   0.577097 0.054617 0.726855 0.115964
C15   C     C_R   0.423102 0.475260 0.068373 -0.034386
C16   C     C_R   0.496302 0.739915 0.499235 0.974137
C17   C     C_R   0.568010 0.555427 0.073486 0.319565
C18   C     C_R   0.569497 0.552121 0.930239 0.304216
C19   C     C_R   0.423681 0.474198 0.927857 -0.051193
C20   C     C_3   0.358879 0.366662 0.917608 0.184135
C21   C     C_3   0.355525 0.369918 0.072497 0.602173
C22   C     C_R   0.672573 0.501165 0.500963 0.992541
C23   C     C_R   0.949359 0.272541 0.490238 -0.248241
C24   C     C_R   0.814586 0.615128 0.518234 0.234171
C25   C     C_R   0.768138 0.501391 0.504888 -0.176847
C26   C     C_R   0.811246 0.387047 0.502463 0.203123
C27   C     C_R   0.904449 0.385473 0.503314 0.037235
C28   C     C_R   0.953347 0.498783 0.517262 -0.007385
C29   C     C_R   0.042459 0.268695 0.487185 0.528246
C30   C     C_R   0.092423 0.381333 0.497285 0.025954
C31   C     C_R   0.047393 0.496558 0.513083 -0.099614
C32   C     C_R   0.096291 0.609965 0.524686 -0.013139
C33   C     C_R   0.052276 0.719431 0.558778 -0.203639
C34   C     C_R   0.959849 0.722157 0.568059 0.330586
H1    H     H_    0.610663 0.857147 0.712146 0.169391
H2    H     H_    0.296231 0.281122 0.478051 0.332585
H3    H     H_    0.206789 0.783722 0.461212 0.354084
H4    H     H_    0.645852 0.070191 0.687998 0.175578
H5    H     H_    0.388366 0.281649 0.874471 0.187966
H6    H     H_    0.912816 0.185339 0.480442 0.218042
H7    H     H_    0.089711 0.803198 0.585332 0.202787
H8    H     H_    0.436082 0.836845 0.248716 0.360860
H9    H     H_    0.265704 0.487086 0.865569 0.371105
H10   H     H_    0.443591 0.238722 0.091493 0.360052
H11   H     H_    0.040014 0.086721 0.468182 0.348623
N1    N     N_R   0.499390 0.499140 0.142800 -0.147974
N2    N     N_R   0.499390 0.499180 0.857150 -0.134348
O1    O     O_R   0.500010 0.316790 0.614690 -0.600134
O2    O     O_3   0.277277 0.396809 0.853489 -0.677845
O3    O     O_3   0.387326 0.261914 0.135586 -0.686658
O4    O     O_3   0.084968 0.155647 0.472986 -0.647417
O5    O     O_3   0.230678 0.268949 0.483927 -0.634946
O6    O     O_3   0.240471 0.718809 0.510390 -0.752897
O7    O     O_R   0.500000 0.316760 0.385350 -0.573341
O8    O     O_R   0.367850 0.499990 0.614680 -0.587520
O9    O     O_R   0.367840 0.499950 0.385340 -0.597838
O10   O     O_R   0.500000 0.683240 0.614650 -0.591503
O11   O     O_R   0.499990 0.683210 0.385310 -0.583306
O12   O     O_R   0.632160 0.500050 0.614660 -0.578870
O13   O     O_R   0.632150 0.500010 0.385320 -0.571337
O14   O     O_3   0.493796 0.883888 0.250050 -0.626784
Zn1   Zn    Zn3+2 0.500010 0.500020 0.653130 1.063436
Zn2   Zn    Zn3+2 0.499990 0.499980 0.346870 1.082794

loop_
_geom_bond_atom_site_label_1
_geom_bond_atom_site_label_2
_ccdc_geom_bond_type
C9    O14   S    
O13   Zn2   S    
Br4   C17   S    
C2    C3    A    
Br2   C13   S    
C20   C21   S    
H11   O4    S    
H8    O14   S    
C23   C29   A    
O9    Zn2   S    
C32   C33   A    
C10   C11   A    
Br3   C14   S    
O10   Zn1   S    
C16   O11   A    
Br8   C34   S    
Br5   C18   S    
N2    Zn1   S    
C21   O3    S    
C12   C24   A    
C1    O7    A    
C6    C14   S    
C24   C25   A    
H10   O3    S    
C22   C25   S    
Br1   C24   S    
C4    O9    A    
O1    Zn1   S    
C15   N1    A    
C2    C30   A    
C3    C4    S    
C19   C20   S    
C17   C18   A    
C29   C30   A    
C4    O8    A    
H9    O2    S    
C33   H7    S    
O12   Zn1   S    
C29   O4    S    
C23   C27   A    
H2    O5    S    
C27   C28   A    
Br6   C21   S    
C17   N1    A    
H3    O6    S    
C9    C10   A    
C28   C31   A    
C5    C32   A    
C19   N2    A    
C6    C11   A    
C10   C16   S    
C15   C21   S    
O7    Zn2   S    
C14   H4    S    
C33   C34   A    
C20   H5    S    
C6    C7    A    
C5    O6    S    
C15   C19   A    
C3    C5    A    
C22   O13   A    
C1    O1    A    
C12   C28   A    
C20   O2    S    
C8    C9    A    
C25   C26   A    
O8    Zn1   S    
Br9   C8    S    
C30   C31   A    
C1    C7    S    
C18   N2    A    
C31   C32   A    
O11   Zn2   S    
C12   C34   A    
C23   H6    S    
Br7   C26   S    
C22   O12   A    
C13   C14   S    
C13   H1    S    
C16   O10   A    
N1    Zn2   S    
C11   C13   S    
C7    C8    A    
C2    O5    S    
C26   C27   A    
