data_mof_unit_42979.cif
_audit_creation_date              2012-12-10T19:05:21-0500
_audit_creation_method            fapswitch 2.2
_symmetry_space_group_name_H-M    P1
_symmetry_Int_Tables_number       1
_space_group_crystal_system       triclinic
_cell_length_a                    9.536075
_cell_length_b                    10.808749
_cell_length_c                    17.368035
_cell_angle_alpha                 90.147625
_cell_angle_beta                  85.87613
_cell_angle_gamma                 89.579764
_cell_volume                      1785.48458529

loop_
_atom_site_label
_atom_site_type_symbol
_atom_type_description
_atom_site_fract_x
_atom_site_fract_y
_atom_site_fract_z
_atom_type_partial_charge
C1    C     C_R   0.500087 0.737491 0.497861 0.802757
C2    C     C_R   0.339391 0.515806 0.775477 -0.239878
C3    C     C_R   0.408767 0.531208 0.148545 -0.130268
C4    C     C_R   0.406479 0.535449 0.228308 -0.216531
C5    C     C_R   0.648147 0.462631 0.222621 -0.213558
C6    C     C_R   0.650924 0.459319 0.142382 -0.167101
C7    C     C_R   0.531647 0.494293 0.104876 0.181398
C8    C     C_2   0.451245 0.553553 0.978548 -0.161185
C9    C     C_2   0.536359 0.486310 0.020436 -0.220571
C10   C     C_R   0.525722 0.500669 0.265964 -0.028197
C11   C     C_R   0.398611 0.936624 0.540930 0.110501
C12   C     C_R   0.481517 0.502208 0.649875 0.805570
C13   C     C_R   0.502408 0.871098 0.496849 -0.143555
C14   C     C_R   0.617114 0.936028 0.459835 -0.024031
C15   C     C_R   0.618582 0.065236 0.464206 -0.255511
C16   C     C_R   0.504301 0.129519 0.501282 -0.107994
C17   C     C_R   0.398657 0.063828 0.542265 0.120833
C18   C     C_3   0.242604 0.072638 0.540992 -0.455508
C19   C     C_3   0.242194 0.932228 0.539715 -0.478411
C20   C     C_R   0.931618 0.405847 0.465511 0.263734
C21   C     C_R   0.919540 0.586165 0.540379 -0.055966
C22   C     C_R   0.068492 0.586245 0.540324 -0.085312
C23   C     C_R   0.500722 0.262547 0.499733 0.813991
C24   C     C_R   0.079054 0.405671 0.465669 0.256178
C25   C     C_3   0.096401 0.368695 0.382795 -0.494655
C26   C     C_3   0.937449 0.370017 0.382452 -0.513229
C27   C     C_R   0.518174 0.500298 0.350178 0.787106
C28   C     C_R   0.471230 0.511908 0.734082 -0.063170
C29   C     C_R   0.593799 0.521742 0.773245 -0.185286
C30   C     C_R   0.585187 0.535294 0.852628 -0.163694
C31   C     C_R   0.454038 0.537661 0.894711 0.096570
C32   C     C_R   0.328620 0.527886 0.856020 0.012494
Cu1   Cu    Cu3+1 0.359330 0.500020 0.500000 0.938130
Cu2   Cu    Cu3+1 0.640670 0.499980 0.500000 0.954319
H1    H     H_    0.696797 0.520605 0.742555 0.166134
H2    H     H_    0.746014 0.429169 0.109545 0.139589
H3    H     H_    0.703270 0.115542 0.433624 0.154858
H4    H     H_    0.192530 0.112616 0.595329 0.200120
H5    H     H_    0.208334 0.114605 0.486969 0.199930
H6    H     H_    0.191616 0.891124 0.593254 0.194467
H7    H     H_    0.207943 0.893215 0.485072 0.196361
H8    H     H_    0.859015 0.657374 0.571813 0.140772
H9    H     H_    0.119632 0.657393 0.571763 0.140511
H10   H     H_    0.146654 0.441364 0.345362 0.215238
H11   H     H_    0.310595 0.565197 0.260474 0.141201
H12   H     H_    0.143304 0.274673 0.374901 0.192164
H13   H     H_    0.898266 0.444718 0.345700 0.216131
H14   H     H_    0.892213 0.277021 0.373600 0.189713
H15   H     H_    0.740549 0.433722 0.250510 0.145258
H16   H     H_    0.612173 0.422741 0.991724 0.153415
H17   H     H_    0.312912 0.554066 0.121900 0.151116
H18   H     H_    0.244713 0.507734 0.744930 0.193134
H19   H     H_    0.376725 0.619579 0.005412 0.163299
H20   H     H_    0.681709 0.545600 0.881274 0.141775
N1    N     N_R   0.852130 0.499070 0.499500 -0.183926
N2    N     N_R   0.148040 0.499110 0.499500 -0.188422
O1    O     O_R   0.381190 0.680360 0.500000 -0.588814
O2    O     O_R   0.618770 0.680320 0.499990 -0.572991
O3    O     O_R   0.367430 0.500040 0.613600 -0.584670
O4    O     O_R   0.605020 0.500000 0.613590 -0.588050
O5    O     O_R   0.381230 0.319680 0.500010 -0.580669
O6    O     O_R   0.618810 0.319640 0.500000 -0.583573
O7    O     O_R   0.394980 0.500000 0.386410 -0.591698
O8    O     O_R   0.632570 0.499960 0.386400 -0.580243
C33   C     C_R   0.726536 0.872649 0.408884 0.143966
C34   C     C_R   0.866400 0.866645 0.429063 -0.147041
C35   C     C_R   0.966978 0.800251 0.382649 -0.131190
C36   C     C_R   0.929249 0.741556 0.315508 -0.109907
C37   C     C_R   0.790888 0.749251 0.294404 -0.121114
C38   C     C_R   0.689518 0.813875 0.341058 -0.127347
H21   H     H_    0.896583 0.910701 0.481399 0.123567
H22   H     H_    0.074062 0.793197 0.398751 0.123598
H23   H     H_    0.007269 0.690141 0.279846 0.117163
H24   H     H_    0.762024 0.704644 0.242082 0.139910
H25   H     H_    0.582066 0.817495 0.324698 0.106881
C39   C     C_2   0.185779 0.525895 0.896960 0.815157
O9    O     O_2   0.169557 0.494346 0.964553 -0.613076
O10   O     O_R   0.068241 0.557078 0.857038 -0.780200
H26   H     H_    0.976880 0.551136 0.890458 0.327533

loop_
_geom_bond_atom_site_label_1
_geom_bond_atom_site_label_2
_ccdc_geom_bond_type
C10   C27   S    
C8    C9    D    
C30   H20   S    
C11   C19   S    
C12   C28   S    
C28   C29   A    
C39   O10   S    
C18   C19   S    
C3    C7    A    
C5    C6    A    
C33   C38   A    
Cu2   O6    S    
C2    C32   A    
C35   H22   S    
C15   H3    S    
C12   O3    A    
C23   O6    A    
C31   C32   A    
C16   C17   A    
C26   H14   S    
Cu1   N2    S    
C34   C35   A    
Cu2   N1    S    
Cu1   O3    S    
C21   C22   A    
Cu2   O4    S    
C5    H15   S    
C20   N1    A    
C25   H10   S    
C25   C26   S    
Cu1   Cu2   S    
C4    H11   S    
C15   C16   A    
C35   C36   A    
C20   C24   A    
C39   O9    D    
C27   O8    A    
C21   N1    A    
C3    H17   S    
O10   H26   S    
C36   C37   A    
C22   N2    A    
C36   H23   S    
C18   H5    S    
C29   C30   A    
C1    O1    A    
C34   H21   S    
Cu1   O7    S    
Cu2   O8    S    
C17   C18   S    
C37   H24   S    
C24   C25   S    
C2    H18   S    
C26   H13   S    
C16   C23   S    
C1    C13   S    
C4    C10   A    
C3    C4    A    
C7    C9    S    
C11   C17   A    
Cu1   O1    S    
C8    C31   S    
C9    H16   S    
C8    H19   S    
C32   C39   S    
C6    C7    A    
C24   N2    A    
C29   H1    S    
C18   H4    S    
C5    C10   A    
C1    O2    A    
C11   C13   A    
C30   C31   A    
C20   C26   S    
C14   C33   S    
C6    H2    S    
C37   C38   A    
C19   H6    S    
C21   H8    S    
C12   O4    A    
C23   O5    A    
Cu1   O5    S    
C33   C34   A    
C38   H25   S    
Cu2   O2    S    
C14   C15   A    
C27   O7    A    
C2    C28   A    
C13   C14   A    
C25   H12   S    
C22   H9    S    
C19   H7    S    
