data_mof_unit_60453.cif
_audit_creation_date              2012-12-10T16:55:26-0500
_audit_creation_method            fapswitch 2.2
_symmetry_space_group_name_H-M    P1
_symmetry_Int_Tables_number       1
_space_group_crystal_system       triclinic
_cell_length_a                    21.790739
_cell_length_b                    21.75953
_cell_length_c                    21.865689
_cell_angle_alpha                 119.23706
_cell_angle_beta                  118.370238
_cell_angle_gamma                 90.44806
_cell_volume                      7561.83115237

loop_
_atom_site_label
_atom_site_type_symbol
_atom_type_description
_atom_site_fract_x
_atom_site_fract_y
_atom_site_fract_z
_atom_type_partial_charge
C1    C     C_R   0.001266 0.382526 0.503309 0.948318
C2    C     C_R   0.998591 0.617387 0.496474 0.945089
C3    C     C_3   0.312027 0.837332 0.047266 -0.077115
C4    C     C_3   0.698052 0.157211 0.952144 -0.073947
C5    C     C_3   0.261450 0.785906 0.947472 -0.287709
C6    C     C_3   0.754323 0.207387 0.051367 -0.302973
C7    C     C_1   0.334467 0.841155 0.174492 -0.023452
C8    C     C_1   0.665134 0.159811 0.825538 0.054468
C9    C     C_1   0.160777 0.665962 0.825583 0.001549
C10   C     C_1   0.840098 0.334918 0.174317 -0.082638
C11   C     C_1   0.123204 0.626908 0.750782 -0.141664
C12   C     C_1   0.877016 0.373576 0.249161 -0.168615
C13   C     C_2   0.070796 0.242459 0.549483 0.019606
C14   C     C_2   0.928840 0.758507 0.452006 0.023226
C15   C     C_2   0.009910 0.182959 0.496025 -0.325132
C16   C     C_2   0.990303 0.817124 0.504032 -0.348823
C17   C     C_2   0.067507 0.305299 0.541039 -0.261218
C18   C     C_2   0.932308 0.695394 0.460095 -0.261712
C19   C     C_2   0.005140 0.322329 0.514447 -0.328661
C20   C     C_2   0.994370 0.677467 0.485015 -0.333775
C21   C     C_R   0.615288 0.996603 0.493052 0.955655
C22   C     C_R   0.382932 0.001212 0.503437 0.941495
C23   C     C_R   0.080346 0.581113 0.662162 0.900504
C24   C     C_R   0.919670 0.418941 0.337824 0.907730
C25   C     C_R   0.418703 0.919128 0.337814 0.904406
C26   C     C_R   0.581209 0.080888 0.662183 0.906052
C27   C     C_R   0.881489 0.004186 0.501718 0.926888
C28   C     C_R   0.119001 0.003249 0.498841 0.871952
C29   C     C_R   0.003559 0.118767 0.499364 1.017710
C30   C     C_R   0.996494 0.881269 0.500657 0.977477
C31   C     C_2   0.760912 0.026254 0.454718 -0.014255
C32   C     C_2   0.249498 0.065265 0.561968 -0.000940
C33   C     C_2   0.819678 0.018482 0.509955 -0.175688
C34   C     C_2   0.181660 0.016916 0.493424 -0.197675
C35   C     C_2   0.695920 0.030374 0.459459 -0.178767
C36   C     C_2   0.311087 0.067943 0.552464 -0.164775
C37   C     C_2   0.671669 0.986804 0.475307 -0.269337
C38   C     C_2   0.323318 0.004147 0.514865 -0.261128
C39   C     C_3   0.249507 0.669582 0.953448 -0.158672
C40   C     C_3   0.738265 0.325045 0.047746 -0.146380
C41   C     C_3   0.158184 0.739751 0.950694 -0.491764
C42   C     C_3   0.843172 0.279095 0.048540 -0.445474
C43   C     C_3   0.201855 0.784589 0.049638 -0.002710
C44   C     C_3   0.797179 0.226241 0.949532 -0.011215
C45   C     C_1   0.373226 0.875807 0.249260 -0.128072
C46   C     C_1   0.626466 0.124414 0.750746 -0.099966
C47   C     C_3   0.208379 0.713743 0.917069 0.235533
C48   C     C_3   0.793241 0.287310 0.082705 0.161742
C49   C     C_3   0.300859 0.721689 0.050068 -0.446742
C50   C     C_3   0.687648 0.272951 0.950956 -0.431108
C51   C     C_3   0.287712 0.799357 0.082902 0.147071
C52   C     C_3   0.711817 0.202163 0.917151 0.177647
H1    H     H_    0.290960 0.694896 0.078193 0.177560
H2    H     H_    0.687474 0.303390 0.922413 0.221536
H3    H     H_    0.359033 0.726947 0.072106 0.217279
H4    H     H_    0.629359 0.257761 0.929747 0.199664
H5    H     H_    0.962398 0.179109 0.443198 0.162739
H6    H     H_    0.038492 0.820379 0.555824 0.146048
H7    H     H_    0.117410 0.338714 0.558316 0.173105
H8    H     H_    0.882802 0.662711 0.444289 0.169432
H9    H     H_    0.956857 0.294096 0.504768 0.168840
H10   H     H_    0.042162 0.705023 0.493362 0.160881
H11   H     H_    0.669093 0.070159 0.451384 0.174186
H12   H     H_    0.347797 0.120851 0.579804 0.158492
H13   H     H_    0.206351 0.629752 0.941789 0.176149
H14   H     H_    0.772049 0.372920 0.059377 0.183719
H15   H     H_    0.694863 0.943000 0.476388 0.144440
H16   H     H_    0.290457 0.952803 0.495884 0.139802
H17   H     H_    0.131666 0.774584 0.928598 0.158641
H18   H     H_    0.890504 0.263775 0.080648 0.157551
H19   H     H_    0.111304 0.691430 0.919630 0.218139
H20   H     H_    0.871842 0.335544 0.071263 0.203713
H21   H     H_    0.224173 0.815273 0.925257 0.102743
H22   H     H_    0.799977 0.183620 0.067967 0.154898
O1    O     O_R   0.051090 0.409550 0.500010 -0.618194
O2    O     O_R   0.948910 0.590450 0.499990 -0.620736
O3    O     O_R   0.874830 0.965310 0.430660 -0.547409
O4    O     O_R   0.125170 0.034690 0.569340 -0.541639
O5    O     O_R   0.034670 0.125130 0.569340 -0.588526
O6    O     O_R   0.965330 0.874870 0.430660 -0.585005
O7    O     O_R   0.965310 0.055770 0.430620 -0.601774
O8    O     O_R   0.034690 0.944230 0.569380 -0.629224
O9    O     O_R   0.948930 0.409540 0.500030 -0.619416
O10   O     O_R   0.051070 0.590460 0.499970 -0.620336
O11   O     O_R   0.112510 0.561440 0.622850 -0.592352
O12   O     O_R   0.887490 0.438560 0.377150 -0.615476
O13   O     O_R   0.010350 0.561430 0.622870 -0.626507
O14   O     O_R   0.989650 0.438570 0.377130 -0.618326
O15   O     O_R   0.590290 0.948920 0.499990 -0.629890
O16   O     O_R   0.409710 0.051080 0.500010 -0.609760
O17   O     O_R   0.590320 0.051050 0.499970 -0.611515
O18   O     O_R   0.409680 0.948950 0.500030 -0.624655
O19   O     O_R   0.438380 0.887500 0.377150 -0.626060
O20   O     O_R   0.561620 0.112500 0.622850 -0.627052
O21   O     O_R   0.438400 0.989630 0.377130 -0.605426
O22   O     O_R   0.561600 0.010370 0.622870 -0.584209
O23   O     O_R   0.944190 0.034670 0.569380 -0.649971
O24   O     O_R   0.055810 0.965330 0.430620 -0.661350
Zn1   Zn    Zn3+2 0.068220 0.500010 0.499990 0.989158
Zn2   Zn    Zn3+2 0.931780 0.499990 0.500010 0.971281
Zn3   Zn    Zn3+2 0.499800 0.931810 0.500010 1.003537
Zn4   Zn    Zn3+2 0.500200 0.068190 0.499990 1.001857
Zn5   Zn    Zn3+2 0.046310 0.046310 0.592620 1.047920
Zn6   Zn    Zn3+2 0.953690 0.953690 0.407380 1.040885
C53   C     C_R   0.285472 0.621418 0.910470 0.161927
C54   C     C_R   0.357439 0.648715 0.934236 -0.039576
C55   C     C_R   0.387898 0.602356 0.893223 -0.111245
C56   C     C_R   0.347299 0.528273 0.828084 -0.104637
C57   C     C_R   0.276072 0.500327 0.803738 -0.114581
C58   C     C_R   0.245427 0.546330 0.844674 -0.157390
H23   H     H_    0.389882 0.706079 0.982874 0.136220
H24   H     H_    0.442976 0.624109 0.911681 0.136737
H25   H     H_    0.370953 0.492586 0.796289 0.131124
H26   H     H_    0.244464 0.442956 0.752991 0.118481
H27   H     H_    0.189930 0.523340 0.824366 0.121156
C59   C     C_R   0.699107 0.359782 0.092782 0.117415
C60   C     C_R   0.632823 0.319734 0.070785 -0.161515
C61   C     C_R   0.599660 0.354094 0.114329 -0.123873
C62   C     C_R   0.631860 0.428832 0.180298 -0.104157
C63   C     C_R   0.697347 0.469446 0.202892 -0.117656
C64   C     C_R   0.730649 0.435385 0.159493 -0.142722
H28   H     H_    0.606611 0.261875 0.020982 0.131727
H29   H     H_    0.548939 0.322566 0.096981 0.144595
H30   H     H_    0.606113 0.455235 0.213972 0.131018
H31   H     H_    0.722464 0.527399 0.254189 0.123218
H32   H     H_    0.781708 0.468091 0.178661 0.120223
C65   C     C_2   0.300653 0.913259 0.075714 0.290710
H33   H     H_    0.246771 0.917740 0.042271 0.096130
O25   O     O_2   0.350743 0.970413 0.137182 -0.548860
C66   C     C_2   0.710281 0.081839 0.916624 0.412704
H34   H     H_    0.744842 0.065528 0.957884 0.081518
O26   O     O_2   0.678390 0.036453 0.841041 -0.533494
C67   C     C_2   0.143462 0.246833 0.612260 0.421166
H35   H     H_    0.183975 0.300723 0.664699 0.039365
O27   O     O_2   0.160492 0.191360 0.604105 -0.601077
C68   C     C_2   0.855585 0.755589 0.391533 0.418157
H36   H     H_    0.813802 0.702155 0.340133 0.047540
O28   O     O_2   0.839603 0.811725 0.400478 -0.575897
C69   C     C_2   0.758472 0.034622 0.390157 0.417115
H37   H     H_    0.705670 0.020060 0.335125 0.079232
O29   O     O_2   0.814106 0.061772 0.399716 -0.566498
C70   C     C_2   0.270057 0.109065 0.649887 0.526971
H38   H     H_    0.295283 0.168682 0.687973 0.063770
O30   O     O_2   0.264991 0.078521 0.682320 -0.548020
C71   C     C_2   0.831142 0.034757 0.590234 0.392190
H39   H     H_    0.861039 0.005734 0.617308 0.059859
O31   O     O_2   0.811497 0.083301 0.628908 -0.560799
C72   C     C_2   0.163962 0.980624 0.405929 0.398070
H40   H     H_    0.122679 0.926618 0.356209 0.078629
O32   O     O_2   0.192497 0.011941 0.387954 -0.550640
C73   C     C_2   0.182953 0.739445 0.078038 0.396169
H41   H     H_    0.208045 0.764530 0.144632 0.072312
O33   O     O_2   0.140644 0.676204 0.028791 -0.585256
C74   C     C_2   0.811847 0.272056 0.919194 0.352136
H42   H     H_    0.836654 0.254415 0.883051 0.097276
O34   O     O_2   0.800517 0.331672 0.938718 -0.585597
C75   C     C_R   0.173269 0.851477 0.081723 0.026483
C76   C     C_R   0.217970 0.923340 0.155201 -0.167781
C77   C     C_R   0.187394 0.979077 0.182546 -0.068345
C78   C     C_R   0.111610 0.964530 0.138996 -0.095398
C79   C     C_R   0.066004 0.893853 0.068358 -0.142296
C80   C     C_R   0.096177 0.837920 0.040709 -0.125161
H43   H     H_    0.276572 0.938918 0.192746 0.173935
H44   H     H_    0.222804 0.033791 0.238237 0.153555
H45   H     H_    0.088210 0.007805 0.160583 0.135476
H46   H     H_    0.007001 0.882028 0.035300 0.136561
H47   H     H_    0.058651 0.783173 0.987109 0.147842
C81   C     C_R   0.822677 0.156676 0.915414 0.048779
C82   C     C_R   0.865977 0.130138 0.964394 -0.149872
C83   C     C_R   0.887013 0.067706 0.930396 -0.115347
C84   C     C_R   0.865374 0.029455 0.846968 -0.108634
C85   C     C_R   0.821992 0.053085 0.796822 -0.059988
C86   C     C_R   0.800672 0.115338 0.830157 -0.105803
H48   H     H_    0.881605 0.153648 0.027781 0.110529
H49   H     H_    0.919563 0.048338 0.968864 0.129161
H50   H     H_    0.881697 0.981069 0.820975 0.125958
H51   H     H_    0.804723 0.023115 0.731751 0.142440
H52   H     H_    0.767293 0.131429 0.788493 0.112670
C87   C     C_2   0.300650 0.775977 0.902670 0.356727
H53   H     H_    0.334008 0.824808 0.918076 0.065731
O35   O     O_2   0.292256 0.715445 0.846113 -0.542015
C88   C     C_2   0.725145 0.206905 0.101886 0.335517
H54   H     H_    0.714517 0.255176 0.139313 0.118301
O36   O     O_2   0.714088 0.151702 0.101723 -0.566949
C89   C     C_2   0.394162 0.851350 0.078983 0.480264
H55   H     H_    0.415982 0.873571 0.055951 0.057943
O37   O     O_2   0.437784 0.843473 0.133808 -0.590955
C90   C     C_2   0.618015 0.137109 0.926296 0.402636
H56   H     H_    0.604248 0.126333 0.962394 0.108928
O38   O     O_2   0.566920 0.126158 0.860871 -0.563665

loop_
_geom_bond_atom_site_label_1
_geom_bond_atom_site_label_2
_ccdc_geom_bond_type
C85   H51   S    
C26   O20   A    
C53   C58   A    
C49   H1    S    
C25   O19   A    
C75   C76   A    
C25   C45   S    
C39   H13   S    
C55   H24   S    
C14   C18   S    
C53   C54   A    
C2    O10   A    
C84   C85   A    
C71   H39   S    
C2    O2    A    
C21   O15   A    
C62   H30   S    
C27   C33   S    
C5    C47   S    
C50   H2    S    
C6    C48   S    
C6    C88   S    
C7    C45   T    
C41   H17   S    
C35   C37   D    
C72   O32   D    
C44   C81   S    
C3    C65   S    
C89   O37   D    
C54   C55   A    
C16   C30   S    
C22   C38   S    
C42   H18   S    
C43   C73   S    
C56   C57   A    
C18   C20   D    
C90   O38   D    
C82   C83   A    
C61   C62   A    
O16   Zn4   S    
C88   H54   S    
O8    Zn5   S    
C34   C72   S    
C5    C87   S    
C43   C75   S    
C49   C51   S    
C50   C52   S    
C55   C56   A    
C31   C33   D    
C6    H22   S    
C23   O11   A    
O12   Zn2   S    
C8    C52   S    
C32   C70   S    
C79   H46   S    
O21   Zn4   S    
C39   C53   S    
C54   H23   S    
C30   O6    A    
C44   C52   S    
C36   H12   S    
C35   H11   S    
C28   C34   S    
C74   O34   D    
C23   O13   A    
O22   Zn3   S    
C5    H21   S    
C15   H5    S    
O5    Zn5   S    
C42   C44   S    
C3    C89   S    
O1    Zn1   S    
C71   O31   D    
C15   C29   S    
C8    C46   T    
C83   H49   S    
C26   O22   A    
C81   C86   A    
C1    C19   S    
C70   H38   S    
C59   C64   A    
C2    C20   S    
C1    O1    A    
C41   C47   S    
C72   H40   S    
C4    C6    S    
O19   Zn3   S    
C3    C51   S    
C63   H31   S    
C16   H6    S    
C75   C80   A    
C3    C5    S    
C49   H3    S    
C50   H4    S    
C80   H47   S    
C90   H56   S    
C32   C34   D    
C56   H25   S    
C30   O8    A    
C82   H48   S    
C66   O26   D    
C60   H28   S    
C65   O25   D    
C29   O7    A    
C41   H19   S    
O11   Zn1   S    
C24   O14   A    
C77   C78   A    
C29   O5    A    
C73   H41   S    
C42   H20   S    
C22   O16   A    
C40   C50   S    
C42   C48   S    
C78   H45   S    
C62   C63   A    
C9    C11   T    
C74   H42   S    
O23   Zn5   S    
C10   C12   T    
C76   H43   S    
C17   H7    S    
O18   Zn3   S    
C18   H8    S    
C81   C82   A    
C39   C49   S    
C4    C52   S    
C9    C47   S    
O9    Zn2   S    
C13   C15   D    
C10   C48   S    
C67   H35   S    
C14   C16   D    
C1    O9    A    
O17   Zn4   S    
C31   C69   S    
C65   H33   S    
C32   C36   S    
C70   O30   D    
C28   O4    A    
C85   C86   A    
C68   O28   D    
C39   C47   S    
O13   Zn2   S    
C21   O17   A    
C28   O24   A    
C40   C48   S    
C27   O23   A    
O15   Zn3   S    
O4    Zn5   S    
C77   H44   S    
O10   Zn1   S    
C13   C67   S    
C41   C43   S    
C38   H16   S    
C68   H36   S    
C27   O3    A    
C57   H26   S    
C40   C59   S    
C4    C66   S    
C69   H37   S    
C25   O21   A    
O2    Zn2   S    
C84   H50   S    
C12   C24   S    
C13   C17   S    
C44   C74   S    
C78   C79   A    
C4    C90   S    
C36   C38   D    
C66   H34   S    
C7    C51   S    
C64   H32   S    
C79   C80   A    
C60   C61   A    
C69   O29   D    
C43   C51   S    
C89   H55   S    
C76   C77   A    
C14   C68   S    
C86   H52   S    
C19   H9    S    
O24   Zn6   S    
C37   H15   S    
C11   C23   S    
C17   C19   D    
C59   C60   A    
C31   C35   S    
C61   H29   S    
C73   O33   D    
C20   H10   S    
C88   O36   D    
O14   Zn1   S    
C26   C46   S    
C87   H53   S    
C21   C37   S    
O20   Zn4   S    
C83   C84   A    
C67   O27   D    
C22   O18   A    
C63   C64   A    
O6    Zn6   S    
C40   H14   S    
O3    Zn6   S    
C57   C58   A    
C24   O12   A    
C58   H27   S    
C33   C71   S    
C87   O35   D    
O7    Zn6   S    
