data_mof_unit_15315.cif
_audit_creation_date              2012-12-10T17:36:34-0500
_audit_creation_method            fapswitch 2.2
_symmetry_space_group_name_H-M    P1
_symmetry_Int_Tables_number       1
_space_group_crystal_system       triclinic
_cell_length_a                    11.992654
_cell_length_b                    12.841339
_cell_length_c                    15.712042
_cell_angle_alpha                 89.867655
_cell_angle_beta                  86.548991
_cell_angle_gamma                 94.093251
_cell_volume                      2409.07999192

loop_
_atom_site_label
_atom_site_type_symbol
_atom_type_description
_atom_site_fract_x
_atom_site_fract_y
_atom_site_fract_z
_atom_type_partial_charge
C1    C     C_R   0.522871 0.700305 0.495414 0.933576
C2    C     C_R   0.542085 0.026945 0.472986 0.126189
C3    C     C_R   0.949927 0.384501 0.438106 0.406462
C4    C     C_R   0.050074 0.615497 0.561892 0.406449
C5    C     C_R   0.834154 0.397681 0.443049 -0.073796
C6    C     C_R   0.165844 0.602316 0.556953 -0.073681
C7    C     C_R   0.860943 0.552912 0.522854 -0.025055
C8    C     C_R   0.139058 0.447089 0.477143 -0.025012
C9    C     C_R   0.977606 0.542926 0.521238 -0.098568
C10   C     C_R   0.022393 0.457073 0.478761 -0.098420
C11   C     C_R   0.500510 0.500120 0.662099 0.938851
C12   C     C_R   0.477129 0.299695 0.504586 0.933571
C13   C     C_R   0.499490 0.499879 0.337901 0.938849
C14   C     C_3   0.459292 0.588753 0.029509 -0.157004
C15   C     C_3   0.540709 0.411247 0.970491 -0.157015
C16   C     C_3   0.565245 0.582586 0.969040 -0.168075
C17   C     C_3   0.434756 0.417414 0.030959 -0.168072
C18   C     C_1   0.501439 0.499996 0.751058 -0.152602
C19   C     C_1   0.498561 0.500005 0.248942 -0.152600
C20   C     C_3   0.394960 0.506113 0.976031 -0.160331
C21   C     C_3   0.605041 0.493887 0.023969 -0.160343
C22   C     C_3   0.500909 0.499947 0.917369 0.203409
C23   C     C_R   0.626740 0.973095 0.428163 -0.059458
C24   C     C_3   0.499092 0.500054 0.082631 0.203409
C25   C     C_1   0.501543 0.499935 0.826417 -0.075609
C26   C     C_1   0.498457 0.500065 0.173583 -0.075608
C27   C     C_R   0.462162 0.188005 0.512153 -0.100148
C28   C     C_R   0.537838 0.811995 0.487847 -0.100157
C29   C     C_2   0.300937 0.195150 0.623419 0.393338
C30   C     C_2   0.699063 0.804850 0.376581 0.393340
C31   C     C_2   0.720497 0.029196 0.376139 0.329121
C32   C     C_2   0.279504 0.970805 0.623863 0.329169
C33   C     C_3   0.986600 0.305729 0.310849 0.107249
C34   C     C_R   0.373260 0.026905 0.571838 -0.059487
C35   C     C_3   0.043431 0.215377 0.268647 -0.774430
C36   C     C_3   0.013191 0.694129 0.689164 0.107119
C37   C     C_3   0.956530 0.784576 0.731367 -0.774357
C38   C     C_R   0.620417 0.863520 0.431847 -0.093758
C39   C     C_R   0.379583 0.136480 0.568154 -0.093751
C40   C     C_R   0.461933 0.866603 0.536808 -0.251799
C41   C     C_R   0.538067 0.133397 0.463193 -0.251798
C42   C     C_R   0.457915 0.973054 0.527015 0.126182
H1    H     H_    0.618616 0.650042 0.941527 0.134949
H2    H     H_    0.824130 0.617163 0.555890 0.175574
H3    H     H_    0.222695 0.659504 0.585319 0.168597
H4    H     H_    0.777298 0.340490 0.414695 0.168528
H5    H     H_    0.213275 0.167704 0.631934 0.069787
H6    H     H_    0.786725 0.832296 0.368067 0.069785
H7    H     H_    0.744260 0.001884 0.312764 0.056326
H8    H     H_    0.255740 0.998118 0.687237 0.056311
H9    H     H_    0.031469 0.380015 0.286686 0.122180
H10   H     H_    0.898366 0.302088 0.292101 0.144404
H11   H     H_    0.999641 0.139997 0.290415 0.277436
H12   H     H_    0.381385 0.349959 0.058473 0.134951
H13   H     H_    0.040782 0.221536 0.198298 0.191610
H14   H     H_    0.132223 0.217294 0.285417 0.246414
H15   H     H_    0.101369 0.697522 0.708028 0.144252
H16   H     H_    0.968075 0.619903 0.713215 0.122243
H17   H     H_    0.867800 0.782913 0.714473 0.246464
H18   H     H_    0.958990 0.778299 0.801722 0.191591
H19   H     H_    0.000575 0.859892 0.709718 0.277412
H20   H     H_    0.425980 0.661261 0.055833 0.139887
H21   H     H_    0.574021 0.338740 0.944167 0.139885
H22   H     H_    0.690867 0.488907 0.045778 0.136477
H23   H     H_    0.309134 0.511094 0.954222 0.136481
H24   H     H_    0.595032 0.176186 0.417433 0.185973
H25   H     H_    0.404969 0.823814 0.582568 0.185987
H26   H     H_    0.175871 0.382841 0.444106 0.175609
N1    N     N_R   0.207800 0.519340 0.515560 -0.132231
N2    N     N_R   0.792200 0.480660 0.484440 -0.132178
O1    O     O_R   0.421700 0.658830 0.504150 -0.629063
O2    O     O_2   0.665644 0.728188 0.337138 -0.564416
O3    O     O_2   0.775238 0.103085 0.405351 -0.547734
O4    O     O_2   0.224764 0.896914 0.594653 -0.547660
O5    O     O_3   0.990925 0.296765 0.400124 -0.586162
O6    O     O_3   0.009089 0.703230 0.599882 -0.586098
O7    O     O_R   0.578300 0.341170 0.495850 -0.629066
O8    O     O_R   0.609310 0.646410 0.494170 -0.600880
O9    O     O_R   0.390690 0.353590 0.505830 -0.600880
O10   O     O_R   0.406210 0.506220 0.628210 -0.591781
O11   O     O_R   0.593790 0.493780 0.371790 -0.591784
O12   O     O_R   0.593830 0.493800 0.618230 -0.625637
O13   O     O_R   0.406170 0.506200 0.381770 -0.625625
O14   O     O_2   0.334356 0.271812 0.662862 -0.564420
Zn1   Zn    Zn3+2 0.374730 0.508290 0.506660 0.980584
Zn2   Zn    Zn3+2 0.625270 0.491710 0.493340 0.980571

loop_
_geom_bond_atom_site_label_1
_geom_bond_atom_site_label_2
_ccdc_geom_bond_type
C6    N1    A    
C11   C18   S    
C16   C21   S    
C6    H3    S    
C35   H11   S    
C34   C42   A    
C7    N2    A    
C33   H10   S    
C8    N1    A    
C1    O1    A    
C29   H5    S    
C30   H6    S    
C36   C37   S    
C24   C26   S    
C36   H16   S    
C32   O4    D    
C31   O3    D    
C28   C40   A    
C2    C41   A    
C14   H20   S    
C12   O9    A    
C13   O11   A    
C17   C20   S    
C30   C38   S    
C7    C9    A    
C14   C24   S    
C19   C26   T    
C21   H22   S    
C36   O6    S    
O1    Zn1   S    
C33   O5    S    
C15   C22   S    
C27   C39   A    
C22   C25   S    
C1    C28   S    
C3    O5    S    
C9    C10   A    
O11   Zn2   S    
O8    Zn2   S    
C40   C42   A    
C1    O8    A    
C18   C25   T    
C31   H7    S    
C11   O12   A    
C17   C24   S    
C13   C19   S    
C12   C27   S    
C35   H13   S    
C34   C39   A    
C14   C20   S    
C20   H23   S    
C29   O14   D    
C4    C6    A    
C36   H15   S    
O12   Zn2   S    
C40   H25   S    
C23   C31   S    
O10   Zn1   S    
C27   C41   A    
C30   O2    D    
C28   C38   A    
C12   O7    A    
C29   C39   S    
C7    H2    S    
C16   H1    S    
C32   H8    S    
C37   H17   S    
O13   Zn1   S    
C20   C22   S    
O7    Zn2   S    
C8    H26   S    
C14   C16   S    
N2    Zn2   S    
O9    Zn1   S    
N1    Zn1   S    
C15   C17   S    
C16   C22   S    
C35   H14   S    
C3    C5    A    
C5    N2    A    
C37   H19   S    
C41   H24   S    
C33   H9    S    
C23   C38   A    
C5    H4    S    
C13   O13   A    
C3    C10   A    
C2    C42   A    
C33   C35   S    
C4    O6    S    
C37   H18   S    
C11   O10   A    
C15   C21   S    
C8    C10   A    
C21   C24   S    
C2    C23   A    
C15   H21   S    
C4    C9    A    
C17   H12   S    
C32   C34   S    
