data_mof_unit_45911.cif
_audit_creation_date              2012-12-10T20:40:04-0500
_audit_creation_method            fapswitch 2.2
_symmetry_space_group_name_H-M    P1
_symmetry_Int_Tables_number       1
_space_group_crystal_system       triclinic
_cell_length_a                    23.376632
_cell_length_b                    10.770787
_cell_length_c                    9.921259
_cell_angle_alpha                 89.738505
_cell_angle_beta                  88.64531
_cell_angle_gamma                 90.813792
_cell_volume                      2497.04136694

loop_
_atom_site_label
_atom_site_type_symbol
_atom_type_description
_atom_site_fract_x
_atom_site_fract_y
_atom_site_fract_z
_atom_type_partial_charge
C1    C     C_R   0.500387 0.260542 0.500341 0.924738
C2    C     C_R   0.969878 0.225194 0.553648 0.145185
C3    C     C_R   0.029754 0.222862 0.523687 0.110249
C4    C     C_R   0.059796 0.338267 0.502094 -0.080682
C5    C     C_R   0.028633 0.450012 0.504752 -0.053152
C6    C     C_R   0.057532 0.565395 0.508268 -0.046811
C7    C     C_R   0.027236 0.675919 0.504042 -0.171474
C8    C     C_R   0.968165 0.675220 0.488208 0.172746
C9    C     C_R   0.119966 0.349522 0.481904 0.548115
C10   C     C_R   0.116731 0.568121 0.516867 0.608467
C11   C     C_R   0.237560 0.549806 0.400230 0.412745
C12   C     C_R   0.389502 0.499082 0.500869 1.033463
C13   C     C_R   0.296826 0.565529 0.409092 0.260693
C14   C     C_R   0.327259 0.491749 0.500265 -0.306175
C15   C     C_R   0.298027 0.402468 0.580658 0.324288
C16   C     C_R   0.238767 0.396765 0.581025 -0.165354
C17   C     C_R   0.208187 0.469726 0.491564 0.077932
C18   C     C_R   0.757105 0.396551 0.392488 -0.105028
C19   C     C_R   0.698453 0.413620 0.395491 -0.308362
C20   C     C_R   0.672859 0.485981 0.496591 -0.137754
C21   C     C_R   0.706460 0.536913 0.599375 0.349709
C22   C     C_R   0.764868 0.508986 0.604581 0.131645
C23   C     C_R   0.497863 0.739736 0.499709 0.956902
C24   C     C_R   0.790395 0.444769 0.495258 0.231951
C25   C     C_R   0.517414 0.063365 0.614569 -0.050789
C26   C     C_R   0.502909 0.129034 0.499297 -0.122382
C27   C     C_R   0.489882 0.066638 0.380466 -0.235524
C28   C     C_R   0.485810 0.939066 0.379438 0.395170
C29   C     C_R   0.497561 0.872298 0.498456 -0.153854
C30   C     C_R   0.514198 0.935847 0.614583 -0.034857
C31   C     C_3   0.489261 0.932756 0.756759 0.461185
C32   C     C_3   0.494457 0.075420 0.756502 -0.049225
C33   C     C_R   0.450076 0.489009 0.074380 0.270557
C34   C     C_R   0.610680 0.499256 0.498700 0.913998
C35   C     C_R   0.548816 0.529537 0.065001 0.169762
C36   C     C_R   0.548264 0.523237 0.922404 -0.225801
C37   C     C_R   0.449936 0.490468 0.932598 0.218756
C38   C     C_3   0.406784 0.387261 0.931485 -0.413174
C39   C     C_3   0.407494 0.385676 0.084568 -0.489004
C40   C     C_R   0.879750 0.549798 0.457243 0.489038
C41   C     C_R   0.878729 0.332819 0.506544 0.517323
C42   C     C_R   0.938798 0.332896 0.518431 -0.061039
C43   C     C_R   0.968613 0.447089 0.500224 -0.079751
C44   C     C_R   0.938541 0.559212 0.480189 -0.047645
H1    H     H_    0.673129 0.370086 0.318489 0.166883
H2    H     H_    0.478735 0.117003 0.290214 0.194134
H3    H     H_    0.452212 0.121777 0.758378 0.215359
H4    H     H_    0.586656 0.540088 0.862638 0.219394
H5    H     H_    0.365291 0.419306 0.892919 0.263428
H6    H     H_    0.423728 0.301551 0.884617 0.232521
H7    H     H_    0.366467 0.415551 0.132240 0.250450
H8    H     H_    0.425577 0.299783 0.127782 0.209697
H9    H     H_    0.049804 0.764361 0.509995 0.189088
H10   H     H_    0.216281 0.331899 0.647925 0.206483
H11   H     H_    0.776903 0.346293 0.309832 0.163973
N1    N     N_R   0.851227 0.440719 0.481637 -0.342004
N2    N     N_R   0.146877 0.462377 0.495435 -0.321337
N3    N     N_R   0.499610 0.499140 0.142800 -0.118934
N4    N     N_R   0.499610 0.499180 0.857150 -0.140088
O1    O     O_R   0.500010 0.316790 0.614690 -0.634802
O2    O     O_2   0.847685 0.226708 0.516014 -0.574230
O3    O     O_2   0.151761 0.250921 0.447364 -0.537579
O4    O     O_2   0.144238 0.675864 0.544474 -0.515707
O5    O     O_R   0.500000 0.316760 0.385350 -0.643811
O6    O     O_R   0.416160 0.499980 0.614700 -0.580286
O7    O     O_R   0.416150 0.499940 0.385360 -0.587434
O8    O     O_R   0.500000 0.683240 0.614650 -0.604310
O9    O     O_R   0.499990 0.683210 0.385310 -0.571578
O10   O     O_R   0.583850 0.500060 0.614640 -0.591848
O11   O     O_R   0.583840 0.500020 0.385300 -0.647379
O12   O     O_2   0.850412 0.647418 0.411046 -0.562466
Zn1   Zn    Zn3+2 0.500000 0.500020 0.653130 0.990457
Zn2   Zn    Zn3+2 0.500000 0.499980 0.346870 0.995863
C45   C     C_3   0.941634 0.121815 0.639821 -0.366566
C46   C     C_3   0.917600 0.171308 0.773816 -0.795778
H12   H     H_    0.952233 0.217604 0.830633 0.249996
H13   H     H_    0.882815 0.238430 0.758955 0.274002
H14   H     H_    0.899965 0.092850 0.835625 0.245102
H15   H     H_    0.908464 0.070567 0.583921 0.251846
H16   H     H_    0.972215 0.050563 0.669933 0.191088
Cl1   Cl    Cl    0.677538 0.646333 0.712899 -0.723925
C47   C     C_3   0.799508 0.547025 0.726217 -0.358631
C48   C     C_3   0.782518 0.468657 0.849975 -0.832352
H17   H     H_    0.736857 0.481356 0.878975 0.284879
H18   H     H_    0.789826 0.368831 0.828954 0.255075
H19   H     H_    0.809064 0.496725 0.936360 0.252738
H20   H     H_    0.846059 0.534716 0.709265 0.185063
H21   H     H_    0.793694 0.647128 0.748114 0.252866
Cl2   Cl    Cl    0.458599 0.872227 0.231353 -0.561593
Cl3   Cl    Cl    0.415305 0.884886 0.759718 -0.520100
C49   C     C_3   0.522566 0.855163 0.860230 -0.340182
C50   C     C_3   0.588109 0.860725 0.850694 -0.832480
H22   H     H_    0.604451 0.873404 0.745686 0.294235
H23   H     H_    0.605693 0.934070 0.916146 0.245276
H24   H     H_    0.605009 0.772556 0.890064 0.289769
H25   H     H_    0.507921 0.878922 0.963539 0.249650
H26   H     H_    0.509482 0.756802 0.848061 0.248117
C51   C     C_3   0.537306 0.142460 0.848933 -0.391841
C52   C     C_3   0.519679 0.136026 0.998478 -0.856922
H27   H     H_    0.472602 0.124779 0.011866 0.287367
H28   H     H_    0.541049 0.058405 0.049652 0.270440
H29   H     H_    0.533134 0.222873 0.049611 0.240510
H30   H     H_    0.581727 0.111129 0.831902 0.222277
H31   H     H_    0.538544 0.242110 0.821058 0.242062
C53   C     C_3   0.605553 0.574801 0.119498 -0.349812
C54   C     C_3   0.602890 0.705395 0.180179 -0.715243
H32   H     H_    0.567915 0.759725 0.136052 0.267111
H33   H     H_    0.597378 0.703113 0.290818 0.271383
H34   H     H_    0.643807 0.756187 0.158519 0.224333
H35   H     H_    0.625548 0.504687 0.182539 0.214326
H36   H     H_    0.638128 0.582545 0.036160 0.184729
C55   C     C_3   0.059605 0.097866 0.515528 -0.374129
C56   C     C_3   0.093414 0.069098 0.642123 -0.702838
H37   H     H_    0.126421 0.141398 0.660933 0.282046
H38   H     H_    0.064653 0.063238 0.732482 0.228326
H39   H     H_    0.114941 0.978500 0.629581 0.276372
H40   H     H_    0.028486 0.021386 0.499089 0.170075
H41   H     H_    0.086888 0.091669 0.423194 0.270020
C57   C     C_3   0.939335 0.800294 0.494937 -0.380260
C58   C     C_3   0.938735 0.862569 0.356377 -0.761402
H42   H     H_    0.983211 0.879748 0.318199 0.240655
H43   H     H_    0.915998 0.803425 0.283012 0.296114
H44   H     H_    0.916711 0.952978 0.364094 0.245640
H45   H     H_    0.895886 0.794714 0.541771 0.247480
H46   H     H_    0.963138 0.861316 0.564274 0.160811
Cl4   Cl    Cl    0.200627 0.625840 0.270738 -0.461326
Cl5   Cl    Cl    0.332090 0.679053 0.306289 -0.408742
Cl6   Cl    Cl    0.333867 0.285856 0.668897 -0.588372

loop_
_geom_bond_atom_site_label_1
_geom_bond_atom_site_label_2
_ccdc_geom_bond_type
C39   H7    S    
C53   H35   S    
C33   N3    A    
C40   O12   S    
C41   C42   A    
C35   C36   A    
C41   O2    S    
C43   C44   A    
C36   N4    A    
C10   O4    S    
C7    C8    A    
C38   H5    S    
C57   H45   S    
C26   C27   A    
C29   C30   A    
C35   N3    A    
C18   C24   A    
C5    C6    A    
C23   C29   S    
C28   C29   A    
C18   C19   A    
C30   C31   S    
C47   H21   S    
C54   H32   S    
O1    Zn1   S    
C47   H20   S    
O8    Zn1   S    
C23   O8    A    
C49   H25   S    
C19   C20   A    
C16   C17   A    
C40   N1    A    
C52   H29   S    
O5    Zn2   S    
C28   Cl2   S    
C34   O11   A    
C2    C45   S    
C58   H44   S    
N4    Zn1   S    
C56   H39   S    
C20   C34   S    
C25   C32   S    
C39   H8    S    
C53   H36   S    
C45   H16   S    
C21   C22   A    
C55   C56   S    
C58   H43   S    
C45   C46   S    
C9    O3    S    
C10   N2    A    
C1    O1    A    
C49   C50   S    
O9    Zn2   S    
O7    Zn2   S    
C12   O7    A    
C50   H24   S    
C33   C37   A    
C23   O9    A    
O10   Zn1   S    
C46   H12   S    
C41   N1    A    
C37   C38   S    
C35   C53   S    
C52   H27   S    
C3    C55   S    
C31   Cl3   S    
C11   Cl4   S    
O11   Zn2   S    
C50   H23   S    
C33   C39   S    
C49   H26   S    
C46   H13   S    
C34   O10   A    
C37   N4    A    
C18   H11   S    
C57   H46   S    
C27   H2    S    
C52   H28   S    
C12   C14   S    
C47   C48   S    
C31   C49   S    
C45   H15   S    
C1    C26   S    
C32   H3    S    
C22   C24   A    
C48   H17   S    
C42   C43   A    
C7    H9    S    
C3    C4    A    
C1    O5    A    
C22   C47   S    
C58   H42   S    
C56   H37   S    
C53   C54   S    
C25   C30   A    
C11   C17   A    
C48   H18   S    
C31   C32   S    
C8    C44   A    
C21   Cl1   S    
C4    C5    A    
C6    C10   A    
C57   C58   S    
C19   H1    S    
C6    C7    A    
C38   H6    S    
C24   N1    S    
O6    Zn1   S    
C12   O6    A    
C55   H40   S    
C15   Cl6   S    
C2    C3    A    
C25   C26   A    
C51   H30   S    
C55   H41   S    
C11   C13   A    
C38   C39   S    
C54   H33   S    
C2    C42   A    
C51   H31   S    
C50   H22   S    
C32   C51   S    
C36   H4    S    
C9    N2    A    
C5    C43   A    
C46   H14   S    
C16   H10   S    
C13   Cl5   S    
C40   C44   A    
C48   H19   S    
C20   C21   A    
C8    C57   S    
C51   C52   S    
C27   C28   A    
C14   C15   A    
C4    C9    A    
C13   C14   A    
C15   C16   A    
N3    Zn2   S    
C17   N2    S    
C56   H38   S    
C54   H34   S    
