data_mof_unit_35182.cif
_audit_creation_date              2012-12-11T15:08:41-0500
_audit_creation_method            fapswitch 2.2
_symmetry_space_group_name_H-M    P1
_symmetry_Int_Tables_number       1
_space_group_crystal_system       monoclinic
_cell_length_a                    26.011945
_cell_length_b                    27.577901
_cell_length_c                    8.367311
_cell_angle_alpha                 90.0
_cell_angle_beta                  96.137711
_cell_angle_gamma                 90.0
_cell_volume                      5967.92444166

loop_
_atom_site_label
_atom_site_type_symbol
_atom_type_description
_atom_site_fract_x
_atom_site_fract_y
_atom_site_fract_z
_atom_type_partial_charge
Ba1   Ba    Ba6+2 0.999910 0.465960 0.844870 1.648359
Ba2   Ba    Ba6+2 0.999910 0.534040 0.344870 1.648361
Ba3   Ba    Ba6+2 0.499910 0.965960 0.844870 1.648363
Ba4   Ba    Ba6+2 0.499910 0.034040 0.344870 1.648364
C1    C     C_3   0.029148 0.231837 0.588164 -0.233977
C2    C     C_3   0.029167 0.768148 0.088165 -0.233956
C3    C     C_3   0.529149 0.731837 0.588193 -0.233966
C4    C     C_3   0.529155 0.268159 0.088201 -0.233953
C5    C     C_R   0.885013 0.390818 0.151039 0.064628
C6    C     C_R   0.885013 0.609182 0.651039 0.064627
C7    C     C_R   0.385014 0.890818 0.151039 0.064625
C8    C     C_R   0.385014 0.109182 0.651039 0.064625
C9    C     C_R   0.845429 0.357809 0.098804 -0.129024
C10   C     C_R   0.845430 0.642191 0.598804 -0.129023
C11   C     C_R   0.345430 0.857808 0.098804 -0.129022
C12   C     C_R   0.345430 0.142192 0.598805 -0.129021
C13   C     C_R   0.834353 0.317722 0.195520 -0.009573
C14   C     C_R   0.834354 0.682279 0.695520 -0.009570
C15   C     C_R   0.334354 0.817721 0.195520 -0.009570
C16   C     C_R   0.334355 0.182279 0.695520 -0.009568
C17   C     C_R   0.863191 0.312458 0.347737 -0.139519
C18   C     C_R   0.863192 0.687542 0.847737 -0.139525
C19   C     C_R   0.363192 0.812457 0.347737 -0.139522
C20   C     C_R   0.363193 0.187543 0.847736 -0.139526
C21   C     C_R   0.902366 0.345681 0.399795 -0.014153
C22   C     C_R   0.902367 0.654319 0.899795 -0.014160
C23   C     C_R   0.402368 0.845680 0.399794 -0.014160
C24   C     C_R   0.402368 0.154320 0.899794 -0.014166
C25   C     C_R   0.795717 0.233125 0.180006 -0.074646
C26   C     C_R   0.795718 0.766875 0.680005 -0.074645
C27   C     C_R   0.295718 0.733125 0.180006 -0.074644
C28   C     C_R   0.295718 0.266876 0.680006 -0.074643
C29   C     C_R   0.255304 0.700662 0.132088 -0.071493
C30   C     C_R   0.255304 0.299338 0.632087 -0.071494
C31   C     C_R   0.755303 0.200663 0.132087 -0.071494
C32   C     C_R   0.755304 0.799338 0.632087 -0.071494
C33   C     C_R   0.209232 0.716811 0.044257 0.053983
C34   C     C_R   0.209233 0.283189 0.544257 0.053984
C35   C     C_R   0.709232 0.216811 0.044257 0.053983
C36   C     C_R   0.709232 0.783189 0.544257 0.053983
C37   C     C_R   0.205113 0.766490 0.005822 -0.080399
C38   C     C_R   0.205114 0.233511 0.505823 -0.080397
C39   C     C_R   0.705112 0.266490 0.005823 -0.080398
C40   C     C_R   0.705113 0.733510 0.505823 -0.080397
C41   C     C_R   0.745413 0.298954 0.054017 -0.072662
C42   C     C_R   0.745414 0.701046 0.554018 -0.072663
C43   C     C_R   0.245414 0.798954 0.054017 -0.072662
C44   C     C_R   0.245414 0.201047 0.554018 -0.072664
C45   C     C_3   0.980859 0.291602 0.073898 0.398777
C46   C     C_3   0.980860 0.708399 0.573902 0.398782
C47   C     C_3   0.480862 0.791599 0.073923 0.398799
C48   C     C_3   0.480863 0.208402 0.573932 0.398813
C49   C     C_R   0.791441 0.282856 0.141943 0.059118
C50   C     C_R   0.791442 0.717144 0.641943 0.059118
C51   C     C_R   0.291442 0.782855 0.141943 0.059119
C52   C     C_R   0.291442 0.217145 0.641943 0.059120
C53   C     C_R   0.136912 0.687470 0.839538 -0.122679
C54   C     C_R   0.136912 0.312530 0.339538 -0.122675
C55   C     C_R   0.636910 0.187471 0.839539 -0.122679
C56   C     C_R   0.636911 0.812529 0.339538 -0.122677
C57   C     C_R   0.097410 0.654466 0.788343 -0.003479
C58   C     C_R   0.097410 0.345534 0.288342 -0.003480
C59   C     C_R   0.597408 0.154467 0.788343 -0.003491
C60   C     C_R   0.597409 0.845533 0.288343 -0.003487
C61   C     C_R   0.114753 0.609566 0.037708 0.076471
C62   C     C_R   0.114753 0.390434 0.537708 0.076469
C63   C     C_R   0.614753 0.109566 0.037708 0.076470
C64   C     C_R   0.614753 0.890434 0.537708 0.076468
C65   C     C_R   0.154649 0.642374 0.088981 -0.115581
C66   C     C_R   0.154649 0.357626 0.588980 -0.115577
C67   C     C_R   0.654648 0.142375 0.088980 -0.115580
C68   C     C_R   0.654649 0.857626 0.588980 -0.115578
C69   C     C_R   0.165985 0.682171 0.991459 -0.015959
C70   C     C_R   0.165985 0.317829 0.491459 -0.015954
C71   C     C_R   0.665984 0.182172 0.991459 -0.015951
C72   C     C_R   0.665984 0.817828 0.491459 -0.015951
C73   C     C_R   0.085416 0.616937 0.890108 -0.279095
C74   C     C_R   0.085416 0.383064 0.390107 -0.279105
C75   C     C_R   0.585415 0.116937 0.890108 -0.279094
C76   C     C_R   0.585415 0.883063 0.390107 -0.279100
C77   C     C_3   0.955129 0.242123 0.056421 -0.356640
C78   C     C_3   0.955129 0.757878 0.556414 -0.356639
C79   C     C_3   0.455133 0.742120 0.056441 -0.356658
C80   C     C_3   0.455134 0.257881 0.556444 -0.356667
C81   C     C_3   0.147995 0.469545 0.223030 0.300688
C82   C     C_3   0.147995 0.530455 0.723028 0.300684
C83   C     C_3   0.647995 0.969545 0.223030 0.300689
C84   C     C_3   0.647994 0.030456 0.723025 0.300684
C85   C     C_3   0.196721 0.438258 0.239906 -0.282022
C86   C     C_3   0.196721 0.561742 0.739904 -0.282021
C87   C     C_3   0.696721 0.938258 0.239906 -0.282023
C88   C     C_3   0.696720 0.061743 0.739899 -0.282021
C89   C     C_3   0.852177 0.531146 0.968098 0.311824
C90   C     C_3   0.852176 0.468855 0.468097 0.311823
C91   C     C_3   0.352177 0.031146 0.968098 0.311825
C92   C     C_3   0.352177 0.968854 0.468097 0.311822
C93   C     C_3   0.803443 0.562040 0.950412 -0.385976
C94   C     C_3   0.803442 0.437961 0.450411 -0.385973
C95   C     C_3   0.303444 0.062040 0.950412 -0.385974
C96   C     C_3   0.303443 0.937960 0.450413 -0.385972
C97   C     C_3   0.993211 0.273562 0.532335 0.302307
C98   C     C_3   0.993211 0.726439 0.032323 0.302312
C99   C     C_3   0.493211 0.773560 0.532352 0.302300
C100  C     C_3   0.493211 0.226441 0.032352 0.302301
C101  C     C_R   0.914292 0.383363 0.298646 -0.276380
C102  C     C_R   0.914292 0.616637 0.798647 -0.276377
C103  C     C_R   0.414293 0.883362 0.298646 -0.276382
C104  C     C_R   0.414293 0.116638 0.798646 -0.276382
H1    H     H_    0.017010 0.303053 0.486473 -0.016454
H2    H     H_    0.016995 0.696944 0.986413 -0.016492
H3    H     H_    0.517009 0.803050 0.486484 -0.016453
H4    H     H_    0.517004 0.196950 0.986463 -0.016468
H5    H     H_    0.227669 0.456655 0.319448 0.108544
H6    H     H_    0.227668 0.543346 0.819449 0.108543
H7    H     H_    0.727669 0.956655 0.319448 0.108545
H8    H     H_    0.727667 0.043348 0.819449 0.108540
H9    H     H_    0.188684 0.402921 0.294515 0.020363
H10   H     H_    0.188682 0.597080 0.794508 0.020363
H11   H     H_    0.688683 0.902921 0.294515 0.020363
H12   H     H_    0.688681 0.097081 0.794497 0.020364
H13   H     H_    0.867020 0.527908 0.849642 0.010308
H14   H     H_    0.867020 0.472092 0.349641 0.010307
H15   H     H_    0.367021 0.027908 0.849643 0.010305
H16   H     H_    0.367020 0.972092 0.349641 0.010306
H17   H     H_    0.881377 0.549012 0.055317 0.062699
H18   H     H_    0.881377 0.450988 0.555317 0.062700
H19   H     H_    0.381378 0.049012 0.055318 0.062703
H20   H     H_    0.381377 0.950988 0.555316 0.062702
H21   H     H_    0.773933 0.545284 0.861544 0.127055
H22   H     H_    0.773933 0.454716 0.361542 0.127054
H23   H     H_    0.273934 0.045285 0.861543 0.127054
H24   H     H_    0.273933 0.954716 0.361546 0.127053
H25   H     H_    0.812056 0.598906 0.908617 0.066827
H26   H     H_    0.812056 0.401095 0.408619 0.066827
H27   H     H_    0.312058 0.098906 0.908619 0.066827
H28   H     H_    0.312057 0.901094 0.408617 0.066827
H29   H     H_    0.787586 0.565065 0.068115 0.127913
H30   H     H_    0.787585 0.434936 0.568114 0.127914
H31   H     H_    0.287586 0.065065 0.068115 0.127914
H32   H     H_    0.287586 0.934934 0.568116 0.127914
H33   H     H_    0.964223 0.260283 0.434717 -0.016676
H34   H     H_    0.964219 0.739732 0.934737 -0.016653
H35   H     H_    0.464223 0.760278 0.434737 -0.016668
H36   H     H_    0.464221 0.239729 0.934750 -0.016658
H37   H     H_    0.060253 0.245130 0.678926 0.115728
H38   H     H_    0.060279 0.754836 0.178874 0.115711
H39   H     H_    0.560254 0.745134 0.678948 0.115731
H40   H     H_    0.560264 0.254855 0.178937 0.115726
H41   H     H_    0.975796 0.215979 0.141296 0.125386
H42   H     H_    0.975798 0.784024 0.641273 0.125394
H43   H     H_    0.475815 0.715970 0.141258 0.125419
H44   H     H_    0.475824 0.284035 0.641224 0.125438
H45   H     H_    0.177005 0.636449 0.203908 0.100329
H46   H     H_    0.177005 0.363551 0.703908 0.100330
H47   H     H_    0.677005 0.136449 0.203907 0.100326
H48   H     H_    0.677005 0.863551 0.703908 0.100330
H49   H     H_    0.260664 0.662651 0.161504 0.075075
H50   H     H_    0.260664 0.337349 0.661503 0.075075
H51   H     H_    0.760663 0.162652 0.161502 0.075074
H52   H     H_    0.760664 0.837349 0.661502 0.075075
H53   H     H_    0.830744 0.219032 0.245138 0.063555
H54   H     H_    0.830745 0.780968 0.745137 0.063555
H55   H     H_    0.330744 0.719032 0.245139 0.063554
H56   H     H_    0.330745 0.280969 0.745138 0.063554
H57   H     H_    0.823170 0.363785 0.983687 0.084551
H58   H     H_    0.823170 0.636216 0.483687 0.084550
H59   H     H_    0.323170 0.863784 0.983687 0.084551
H60   H     H_    0.323170 0.136216 0.483688 0.084550
H61   H     H_    0.170279 0.780603 0.940244 0.095473
H62   H     H_    0.170280 0.219397 0.440245 0.095477
H63   H     H_    0.670278 0.280604 0.940244 0.095478
H64   H     H_    0.670279 0.719396 0.440245 0.095479
H65   H     H_    0.739959 0.336964 0.024758 0.067162
H66   H     H_    0.739960 0.663037 0.524759 0.067162
H67   H     H_    0.239960 0.836963 0.024758 0.067161
H68   H     H_    0.239960 0.163037 0.524759 0.067161
H69   H     H_    0.146056 0.716036 0.758490 0.086916
H70   H     H_    0.146056 0.283964 0.258490 0.086915
H71   H     H_    0.646054 0.216037 0.758491 0.086908
H72   H     H_    0.646055 0.783963 0.258491 0.086909
H73   H     H_    0.854103 0.283758 0.428366 0.072335
H74   H     H_    0.854104 0.716243 0.928366 0.072332
H75   H     H_    0.354104 0.783757 0.428366 0.072333
H76   H     H_    0.354105 0.216243 0.928365 0.072331
H77   H     H_    0.055359 0.591297 0.849270 0.062349
H78   H     H_    0.055360 0.408703 0.349270 0.062350
H79   H     H_    0.555359 0.091297 0.849270 0.062348
H80   H     H_    0.555359 0.908703 0.349270 0.062349
H81   H     H_    0.006997 0.203005 0.643281 0.097277
H82   H     H_    0.007035 0.796980 0.143352 0.097295
H83   H     H_    0.506999 0.703007 0.643324 0.097282
H84   H     H_    0.507012 0.296989 0.143358 0.097288
H85   H     H_    0.944162 0.409103 0.340201 0.063864
H86   H     H_    0.944162 0.590897 0.840202 0.063864
H87   H     H_    0.444163 0.909103 0.340201 0.063864
H88   H     H_    0.444163 0.090898 0.840201 0.063865
H89   H     H_    0.958608 0.316961 0.989633 0.094095
H90   H     H_    0.958608 0.683038 0.489645 0.094088
H91   H     H_    0.458605 0.816961 0.989680 0.094066
H92   H     H_    0.458604 0.183039 0.489704 0.094051
H93   H     H_    0.979383 0.304323 0.199208 -0.106904
H94   H     H_    0.979385 0.695681 0.699216 -0.106913
H95   H     H_    0.479394 0.804315 0.199242 -0.106929
H96   H     H_    0.479399 0.195689 0.699256 -0.106943
H97   H     H_    0.914377 0.244980 0.083539 0.063232
H98   H     H_    0.914378 0.755022 0.583545 0.063228
H99   H     H_    0.414388 0.744971 0.083634 0.063222
H100  H     H_    0.414394 0.255033 0.583677 0.063214
H101  H     H_    0.955665 0.228551 0.931660 0.146039
H102  H     H_    0.955661 0.771446 0.431646 0.146038
H103  H     H_    0.455647 0.728559 0.931658 0.146028
H104  H     H_    0.455636 0.271435 0.431649 0.146022
H105  H     H_    0.133897 0.473098 0.342500 0.004085
H106  H     H_    0.133896 0.526903 0.842497 0.004084
H107  H     H_    0.633897 0.973098 0.342500 0.004082
H108  H     H_    0.633896 0.026904 0.842495 0.004080
H109  H     H_    0.117898 0.451705 0.138494 0.044533
H110  H     H_    0.117898 0.548295 0.638490 0.044537
H111  H     H_    0.617898 0.951705 0.138494 0.044533
H112  H     H_    0.617897 0.048295 0.638486 0.044541
O1    O     O_2   0.898940 0.431940 0.867860 -0.460124
O2    O     O_2   0.898940 0.568060 0.367860 -0.460126
O3    O     O_2   0.398940 0.931940 0.867860 -0.460121
O4    O     O_2   0.398940 0.068060 0.367860 -0.460122
O5    O     O_3   0.160580 0.484579 0.667518 -0.630140
O6    O     O_3   0.160580 0.515421 0.167517 -0.630141
O7    O     O_3   0.660580 0.984579 0.667519 -0.630141
O8    O     O_3   0.660580 0.015421 0.167517 -0.630139
O9    O     O_3   0.032172 0.287995 0.036806 -0.578190
O10   O     O_3   0.032171 0.712005 0.536803 -0.578184
O11   O     O_3   0.532171 0.787996 0.036796 -0.578185
O12   O     O_3   0.532170 0.212004 0.536789 -0.578179
O13   O     O_3   0.058810 0.523750 0.066650 -0.498315
O14   O     O_3   0.058810 0.476250 0.566650 -0.498316
O15   O     O_3   0.558810 0.023750 0.066650 -0.498316
O16   O     O_3   0.558810 0.976250 0.566650 -0.498318
O17   O     O_3   0.941140 0.476130 0.123050 -0.496009
O18   O     O_3   0.941140 0.523870 0.623050 -0.496009
O19   O     O_3   0.441140 0.976130 0.123050 -0.496011
O20   O     O_3   0.441140 0.023870 0.623050 -0.496011
O21   O     O_3   0.982430 0.389880 0.635700 -0.466914
O22   O     O_3   0.982430 0.610120 0.135700 -0.466908
O23   O     O_3   0.482430 0.889880 0.635700 -0.466913
O24   O     O_3   0.482430 0.110120 0.135700 -0.466909
O25   O     O_2   0.897212 0.350984 0.731390 -0.488853
O26   O     O_2   0.897214 0.649018 0.231394 -0.488856
O27   O     O_2   0.397211 0.850986 0.731387 -0.488844
O28   O     O_2   0.397211 0.149014 0.231388 -0.488842
O29   O     O_3   0.839326 0.485302 0.022614 -0.634309
O30   O     O_3   0.839326 0.514698 0.522614 -0.634309
O31   O     O_3   0.339326 0.985302 0.022613 -0.634310
O32   O     O_3   0.339326 0.014698 0.522614 -0.634309
O33   O     O_3   0.967505 0.289607 0.661817 -0.584491
O34   O     O_3   0.967509 0.710392 0.161814 -0.584486
O35   O     O_3   0.467504 0.789608 0.661829 -0.584482
O36   O     O_3   0.467506 0.210392 0.161832 -0.584476
O37   O     O_2   0.100770 0.431440 0.821660 -0.454576
O38   O     O_2   0.100770 0.568560 0.321660 -0.454578
O39   O     O_2   0.600770 0.931440 0.821660 -0.454573
O40   O     O_2   0.600770 0.068560 0.321660 -0.454577
O41   O     O_3   0.017130 0.389790 0.053700 -0.493712
O42   O     O_3   0.017130 0.610210 0.553700 -0.493712
O43   O     O_3   0.517130 0.889790 0.053700 -0.493706
O44   O     O_3   0.517130 0.110210 0.553700 -0.493704
O45   O     O_2   0.101271 0.349185 0.955386 -0.470382
O46   O     O_2   0.101271 0.650814 0.455388 -0.470384
O47   O     O_2   0.601272 0.849187 0.955388 -0.470382
O48   O     O_2   0.601272 0.150813 0.455389 -0.470384
P1    P     P_3+3 0.893960 0.447890 0.040050 0.982612
P2    P     P_3+3 0.893960 0.552110 0.540050 0.982612
P3    P     P_3+3 0.393960 0.947890 0.040050 0.982614
P4    P     P_3+3 0.393960 0.052110 0.540050 0.982614
P5    P     P_3+3 0.105800 0.447360 0.649510 1.000035
P6    P     P_3+3 0.105800 0.552640 0.149510 1.000035
P7    P     P_3+3 0.605800 0.947360 0.649510 1.000035
P8    P     P_3+3 0.605800 0.052640 0.149510 1.000036
P9    P     P_3+3 0.063088 0.343373 0.083733 0.972100
P10   P     P_3+3 0.063087 0.656627 0.583733 0.972103
P11   P     P_3+3 0.563088 0.843373 0.083731 0.972105
P12   P     P_3+3 0.563087 0.156627 0.583731 0.972107
P13   P     P_3+3 0.936001 0.656060 0.105595 0.955123
P14   P     P_3+3 0.936000 0.343940 0.605595 0.955115
P15   P     P_3+3 0.436000 0.156060 0.105597 0.955133
P16   P     P_3+3 0.436000 0.843940 0.605596 0.955126
C105  C     C_1   0.215048 0.429399 0.082507 0.327695
N1    N     N_1   0.229513 0.422437 0.958475 -0.293571
C106  C     C_1   0.215049 0.570600 0.582505 0.327696
N2    N     N_1   0.229515 0.577560 0.458473 -0.293572
C107  C     C_1   0.715048 0.929398 0.082507 0.327698
N3    N     N_1   0.729513 0.922437 0.958475 -0.293571
C108  C     C_1   0.715049 0.070598 0.582500 0.327700
N4    N     N_1   0.729516 0.077557 0.458468 -0.293571
C109  C     C_1   0.052559 0.211170 0.451490 0.197731
N5    N     N_1   0.070790 0.194833 0.343313 -0.284264
C110  C     C_1   0.052566 0.788824 0.951484 0.197720
N6    N     N_1   0.070789 0.805168 0.843301 -0.284262
C111  C     C_1   0.552558 0.711165 0.451525 0.197727
N7    N     N_1   0.570789 0.694824 0.343352 -0.284278
C112  C     C_1   0.552561 0.288834 0.951530 0.197721
N8    N     N_1   0.570789 0.305178 0.843355 -0.284282

loop_
_geom_bond_atom_site_label_1
_geom_bond_atom_site_label_2
_ccdc_geom_bond_type
Ba4   P4    S    
C77   H101  S    
C85   C105  S    
C83   C87   S    
C20   H76   S    
C57   P10   S    
C108  N4    T    
C95   H31   S    
C46   H90   S    
C21   C101  A    
O46   P10   D    
C94   H30   S    
C89   H13   S    
C2    H38   S    
C91   C95   S    
C59   P12   S    
C84   O7    S    
C60   P11   S    
Ba1   O1    S    
C48   C80   S    
C5    C9    A    
C22   P13   S    
C38   H62   S    
Ba3   O15   S    
C7    C11   A    
C8    C12   A    
Ba1   O13   S    
C66   C70   A    
C42   H66   S    
C74   H78   S    
Ba4   O40   S    
O15   P8    S    
C40   C42   A    
C46   H94   S    
C85   H5    S    
C61   C73   A    
C63   C75   A    
C82   C86   S    
C8    C104  A    
C37   H61   S    
C56   C72   A    
C13   C17   A    
C36   C72   S    
C28   C30   A    
C15   C19   A    
C40   H64   S    
O3    P3    D    
O27   P16   D    
C41   H65   S    
Ba2   P6    S    
Ba2   O13   S    
C64   C68   A    
C88   H8    S    
C90   H14   S    
C26   H54   S    
C47   C79   S    
C87   C107  S    
O5    P5    S    
O32   P4    S    
C99   H35   S    
C96   H24   S    
C53   C57   A    
C26   C32   A    
C25   C31   A    
C55   C59   A    
C1    C97   S    
O11   P11   S    
C56   C60   A    
O12   P12   S    
C1    H81   S    
Ba2   O42   S    
O8    P8    S    
C77   H41   S    
O13   P6    S    
O9    P9    S    
Ba4   O19   S    
C86   H6    S    
C83   O8    S    
C62   P5    S    
C68   H48   S    
O38   P6    D    
C93   H25   S    
C16   C52   S    
C102  H86   S    
C45   H89   S    
C26   C50   A    
O10   P10   S    
C24   C104  A    
C61   C65   A    
Ba1   P1    S    
C5    C101  A    
Ba3   P3    S    
O26   P13   D    
O18   P2    S    
C82   H110  S    
C53   C69   A    
C63   P8    S    
C79   H99   S    
C57   C73   A    
C48   H92   S    
C35   C71   S    
C10   H58   S    
Ba3   O20   S    
C2    C98   S    
C41   C49   A    
C3    C99   S    
Ba4   O16   S    
C11   H59   S    
C90   O30   S    
C93   H29   S    
C3    H39   S    
C37   C43   A    
C45   H93   S    
C1    H37   S    
C47   O11   S    
C6    C10   A    
C23   P16   S    
C100  H4    S    
C39   H63   S    
C2    C110  S    
C82   H106  S    
C19   H75   S    
C109  N5    T    
O23   P16   S    
C39   C41   A    
C80   H100  S    
Ba4   O44   S    
C107  N3    T    
C76   H80   S    
C54   H70   S    
C38   C44   A    
O39   P7    D    
Ba2   O22   S    
Ba1   O21   S    
C85   H9    S    
C6    P2    S    
C87   H11   S    
C6    C102  A    
Ba3   Ba4   S    
C30   H50   S    
C78   H98   S    
C54   C70   A    
C65   H45   S    
C34   C70   S    
C91   H15   S    
C5    P1    S    
Ba3   O3    S    
O36   P15   S    
C14   C18   A    
C7    P3    S    
C58   C74   A    
C20   C24   A    
Ba3   O39   S    
Ba2   O17   S    
Ba3   P7    S    
C62   C66   A    
Ba3   O43   S    
C9    C13   A    
C27   C51   A    
C88   H12   S    
C18   H74   S    
C53   H69   S    
C64   P7    S    
C28   H56   S    
C46   O10   S    
C33   C37   A    
O40   P8    D    
C36   C40   A    
O41   P9    S    
C82   O5    S    
C98   H34   S    
Ba4   O24   S    
C43   H67   S    
C96   H28   S    
C44   H68   S    
C54   C58   A    
C89   C93   S    
C99   O35   S    
O21   P14   S    
C22   C102  A    
C11   C15   A    
O14   P5    S    
C86   H10   S    
C77   H97   S    
C90   C94   S    
C97   H1    S    
Ba2   O2    S    
C92   H20   S    
C99   H3    S    
C45   C77   S    
C17   C21   A    
Ba2   O14   S    
C29   H49   S    
C65   C69   A    
C58   P9    S    
C104  H88   S    
C79   H43   S    
C3    C111  S    
C66   H46   S    
C60   C76   A    
C3    H83   S    
C4    H40   S    
Ba2   P2    S    
C47   H95   S    
Ba1   O37   S    
C62   C74   A    
O29   P1    S    
C91   O31   S    
C110  N6    T    
C81   C85   S    
C29   C33   A    
C84   H112  S    
C48   H96   S    
C31   C35   A    
C112  N8    T    
C105  N1    T    
C1    C109  S    
Ba3   O16   S    
C9    H57   S    
C106  N2    T    
C23   C103  A    
Ba1   O14   S    
C67   H47   S    
C42   C50   A    
C95   H27   S    
C98   H2    S    
C92   O32   S    
C13   C49   S    
O33   P14   S    
C46   C78   S    
C15   C51   S    
O24   P15   S    
C8    P4    S    
C80   H104  S    
O19   P3    S    
C56   H72   S    
O48   P12   D    
O16   P7    S    
C55   H71   S    
O7    P7    S    
C101  H85   S    
O45   P9    D    
O43   P11   S    
O47   P11   D    
C87   H7    S    
C63   C67   A    
C45   O9    S    
C4    H84   S    
C89   H17   S    
C91   H19   S    
C18   C22   A    
C86   C106  S    
C83   H107  S    
O17   P1    S    
O6    P6    S    
C98   O34   S    
C21   P14   S    
C28   C52   A    
O28   P15   D    
C64   C76   A    
C24   P15   S    
C73   H77   S    
C111  N7    T    
C10   C14   A    
C97   O33   S    
C68   C72   A    
C103  H87   S    
C59   C75   A    
C17   H73   S    
C75   H79   S    
C34   C38   A    
O4    P4    D    
O42   P10   S    
C92   C96   S    
Ba1   Ba2   S    
C81   H109  S    
C96   H32   S    
C97   H33   S    
C84   C88   S    
O35   P16   S    
C27   C29   A    
C83   H111  S    
O22   P13   S    
Ba1   P5    S    
C12   C16   A    
C94   H22   S    
C89   O29   S    
C90   H18   S    
C27   H55   S    
C92   H16   S    
Ba4   P8    S    
C16   C20   A    
C32   C36   A    
O31   P3    S    
C14   C50   S    
C48   O12   S    
C35   C39   A    
Ba4   O4    S    
C81   H105  S    
C4    C100  S    
C4    C112  S    
C2    H82   S    
C100  H36   S    
Ba3   O23   S    
C78   H42   S    
C47   H91   S    
Ba1   O41   S    
C80   H44   S    
Ba2   O38   S    
C19   C23   A    
C7    C103  A    
Ba4   O15   S    
O30   P2    S    
C55   C71   A    
O1    P1    D    
C43   C51   A    
C44   C52   A    
C33   C69   S    
C84   H108  S    
C61   P6    S    
C30   C34   A    
Ba1   O18   S    
C94   H26   S    
O37   P5    D    
C100  O36   S    
C95   H23   S    
O20   P4    S    
C93   H21   S    
C67   C71   A    
C25   C49   A    
C12   H60   S    
C88   C108  S    
O44   P12   S    
C31   H51   S    
C32   H52   S    
O2    P2    D    
O34   P13   S    
O25   P14   D    
C81   O6    S    
C25   H53   S    
C78   H102  S    
C79   H103  S    
