data_mof_unit_63340.cif
_audit_creation_date              2013-03-05T16:38:19-0500
_audit_creation_method            fapswitch 2.2
_symmetry_space_group_name_H-M    P1
_symmetry_Int_Tables_number       1
_space_group_crystal_system       triclinic
_cell_length_a                    15.733787
_cell_length_b                    19.223811
_cell_length_c                    18.466409
_cell_angle_alpha                 89.27945
_cell_angle_beta                  89.263857
_cell_angle_gamma                 90.364035
_cell_volume                      5584.39068651

loop_
_atom_site_label
_atom_site_type_symbol
_atom_site_description
_atom_site_fract_x
_atom_site_fract_y
_atom_site_fract_z
_atom_type_partial_charge
O1    O     O_R   0.500000 0.398180 0.560840 -0.569878
O2    O     O_R   0.500000 0.601820 0.439160 -0.566266
O3    O     O_R   0.499960 0.398180 0.439210 -0.617317
O4    O     O_R   0.500040 0.601820 0.560790 -0.624823
C1    C     C_R   0.499609 0.365896 0.500487 0.946254
C2    C     C_R   0.500371 0.634105 0.499526 0.947711
O5    O     O_R   0.376800 0.500000 0.560800 -0.570091
O6    O     O_R   0.623200 0.500000 0.439200 -0.573903
O7    O     O_R   0.376760 0.499990 0.439180 -0.624471
O8    O     O_R   0.623240 0.500010 0.560820 -0.617764
C3    C     C_R   0.337863 0.500131 0.500433 0.914772
C4    C     C_R   0.662136 0.499841 0.499556 0.912672
Zn1   Zn    Zn3+2 0.500030 0.500000 0.581210 1.057726
Zn2   Zn    Zn3+2 0.499970 0.500000 0.418790 1.057998
C5    C     C_3   0.969242 0.506084 0.567980 0.067226
C6    C     C_3   0.030765 0.493577 0.431580 0.068893
C7    C     C_3   0.027452 0.446373 0.541303 0.077809
C8    C     C_3   0.972540 0.553287 0.458256 0.080690
C9    C     C_1   0.249245 0.500583 0.501371 -0.053784
C10   C     C_1   0.750749 0.499262 0.498541 -0.046653
C11   C     C_3   0.025949 0.559249 0.527061 0.206928
C12   C     C_3   0.974039 0.440415 0.472499 0.209390
C13   C     C_3   0.083509 0.500658 0.500909 -0.167270
C14   C     C_3   0.916486 0.499006 0.498661 -0.168503
C15   C     C_1   0.174147 0.500865 0.501555 0.157733
C16   C     C_1   0.825847 0.498872 0.498183 0.161126
C17   C     C_R   0.431384 0.745219 0.471238 0.097732
C18   C     C_R   0.568028 0.254701 0.529408 0.103850
C19   C     C_R   0.432851 0.817905 0.470163 0.170838
C20   C     C_R   0.566204 0.182021 0.530895 0.170842
C21   C     C_R   0.504840 0.852962 0.495910 -0.054310
C22   C     C_R   0.494176 0.147057 0.505090 -0.053990
C23   C     C_R   0.575388 0.816889 0.522774 0.197537
C24   C     C_R   0.423922 0.183219 0.477803 0.197069
C25   C     C_R   0.574098 0.744205 0.523710 0.086207
C26   C     C_R   0.425607 0.255898 0.476375 0.089027
C27   C     C_R   0.501876 0.709055 0.498308 -0.195718
C28   C     C_R   0.497882 0.290951 0.501812 -0.193013
C29   C     C_R   0.478592 0.959551 0.561531 -0.231199
C30   C     C_R   0.520238 0.040461 0.439504 -0.230971
H1    H     H_    0.461533 0.927175 0.608034 0.211773
H2    H     H_    0.537314 0.072829 0.392998 0.212260
C31   C     C_R   0.472270 0.031550 0.565941 0.340513
C32   C     C_R   0.526541 0.968472 0.435088 0.340980
C33   C     C_R   0.493813 0.071728 0.503883 -0.043049
C34   C     C_R   0.505047 0.928289 0.497153 -0.042524
C35   C     C_R   0.545406 0.549783 0.724120 -0.077044
C36   C     C_R   0.440943 0.461018 0.275840 -0.076546
H3    H     H_    0.580788 0.588096 0.692484 0.186612
H4    H     H_    0.395507 0.430579 0.307443 0.186782
C37   C     C_R   0.546937 0.551992 0.800155 0.151578
C38   C     C_R   0.438313 0.459814 0.199806 0.151379
C39   C     C_R   0.501363 0.501806 0.841569 0.042527
C40   C     C_R   0.497851 0.499101 0.158467 0.041077
C41   C     C_R   0.455005 0.450541 0.804784 0.078987
C42   C     C_R   0.558396 0.539201 0.195330 0.080217
C43   C     C_R   0.455057 0.450651 0.728282 0.367791
C44   C     C_R   0.558215 0.539031 0.271828 0.370377
N1    N     N_R   0.500010 0.499980 0.689440 -0.174473
N2    N     N_R   0.499990 0.500020 0.310560 -0.175322
C45   C     C_R   0.556515 0.457657 0.961610 0.201079
C46   C     C_R   0.442190 0.543130 0.038432 0.203103
C47   C     C_R   0.554723 0.456169 0.038417 0.200746
C48   C     C_R   0.444703 0.545268 0.961627 0.202072
C49   C     C_R   0.497344 0.498726 0.077153 -0.170871
C50   C     C_R   0.501730 0.502389 0.922879 -0.170812
I1    I     I_    0.073571 0.361259 0.605028 0.006321
I2    I     I_    0.926347 0.638326 0.394462 0.013813
I3    I     I_    0.620004 0.631088 0.849160 -0.077047
I4    I     I_    0.344507 0.397116 0.150723 -0.074038
I5    I     I_    0.381769 0.374520 0.863801 0.026759
I6    I     I_    0.648354 0.602235 0.136510 0.025157
N3    N     N_R   0.407358 0.398984 0.691268 0.231853
O9    O     O_R   0.328942 0.411449 0.674215 -0.326478
O10   O     O_R   0.434923 0.335348 0.689719 -0.309930
N4    N     N_R   0.619056 0.580319 0.308972 0.230545
O11   O     O_R   0.697371 0.559383 0.312528 -0.329017
O12   O     O_R   0.601778 0.644878 0.322928 -0.310952
N5    N     N_R   0.612134 0.411629 0.922984 0.253138
O13   O     O_R   0.613558 0.345678 0.939606 -0.250577
O14   O     O_R   0.661538 0.435308 0.871166 -0.316859
N6    N     N_R   0.381547 0.584818 0.076965 0.253378
O15   O     O_R   0.301587 0.582882 0.059816 -0.253256
O16   O     O_R   0.405994 0.625486 0.128626 -0.313587
N7    N     N_R   0.613555 0.412957 0.077036 0.253246
O17   O     O_R   0.694147 0.414878 0.060337 -0.252278
O18   O     O_R   0.586997 0.371602 0.128964 -0.317499
N8    N     N_R   0.390645 0.592689 0.923188 0.253230
O19   O     O_R   0.387918 0.657889 0.941106 -0.251220
O20   O     O_R   0.343205 0.570926 0.870808 -0.317772
I7    I     I_    0.917993 0.517714 0.674993 -0.031571
I8    I     I_    0.082147 0.481923 0.324607 -0.041651
N9    N     N_R   0.945891 0.374595 0.442250 0.256128
O21   O     O_R   0.001725 0.328921 0.422092 -0.280642
O22   O     O_R   0.865387 0.361072 0.435078 -0.322392
N10   N     N_R   0.054051 0.625083 0.557309 0.255551
O23   O     O_R   0.998184 0.670747 0.577424 -0.281152
O24   O     O_R   0.134542 0.638633 0.564520 -0.323957
I9    I     I_    0.321677 0.689529 0.434986 -0.106089
I10   I     I_    0.677783 0.310240 0.565811 -0.101034
I11   I     I_    0.326313 0.875921 0.431462 -0.069927
I12   I     I_    0.672306 0.123875 0.570246 -0.068874
I13   I     I_    0.683701 0.873549 0.560310 -0.066811
I14   I     I_    0.315459 0.126701 0.440341 -0.065024
I15   I     I_    0.682292 0.687077 0.560362 -0.165766
I16   I     I_    0.317928 0.313174 0.438869 -0.163911
N11   N     N_R   0.445173 0.062399 0.633171 0.233901
O25   O     O_R   0.407103 0.122271 0.634046 -0.304059
O26   O     O_R   0.452765 0.028081 0.693928 -0.292604
N12   N     N_R   0.553582 0.937639 0.367836 0.233593
O27   O     O_R   0.545716 0.971896 0.307072 -0.292129
O28   O     O_R   0.591918 0.877883 0.366942 -0.307824

loop_
_geom_bond_atom_site_label_1
_geom_bond_atom_site_label_2
_geom_bond_distance
_ccdc_geom_bond_type
O5    Zn1   1.979917 S    
C47   C49   1.415446 A    
N9    O21   1.300314 A    
C17   C19   1.397239 A    
C8    C11   1.537381 S    
N3    O10   1.301052 A    
N3    O9    1.300249 A    
C44   N4    1.427487 S    
C35   H3    1.081331 S    
C40   C49   1.501820 S    
N7    O17   1.301308 A    
O5    C3    1.278865 A    
C17   I9    2.144272 S    
C7    C13   1.541150 S    
O1    C1    1.282525 A    
C25   C27   1.407039 A    
C14   C16   1.426229 S    
C36   C38   1.405680 A    
C43   N1    1.369415 A    
C8    I2    2.139433 S    
C22   C33   1.448529 S    
C43   N3    1.427493 S    
O4    Zn1   1.988696 S    
C45   C47   1.418200 A    
N12   O27   1.301589 A    
C46   C48   1.418409 A    
C45   C50   1.415555 A    
C32   C34   1.410349 A    
C42   I6    2.134726 S    
C21   C34   1.448524 S    
N10   O24   1.300174 A    
O6    Zn2   1.979915 S    
N11   O25   1.301058 A    
C21   C23   1.405109 A    
C24   C26   1.397157 A    
C18   I10   2.144374 S    
C36   H4    1.081400 S    
C46   N6    1.437213 S    
N9    O22   1.300183 A    
C1    C28   1.440708 S    
C47   N7    1.437815 S    
N11   O26   1.301586 A    
C4    C10   1.394230 S    
O2    C2    1.282733 A    
O2    Zn2   1.997822 S    
C38   C40   1.410257 A    
C36   N2    1.361944 A    
C39   C41   1.408939 A    
C30   C33   1.398560 A    
C40   C42   1.409108 A    
C7    I1    2.139421 S    
N7    O18   1.300940 A    
C26   I16   2.144057 S    
N4    O11   1.300882 A    
O4    C2    1.283467 A    
N5    O14   1.300952 A    
C29   C31   1.391640 A    
C35   N1    1.362127 A    
C24   I14   2.144060 S    
C37   C39   1.410085 A    
C48   C50   1.415719 A    
O7    Zn2   1.970034 S    
C25   I15   2.144000 S    
O7    C3    1.279185 A    
C18   C28   1.406649 A    
O6    C4    1.278679 A    
C3    C9    1.394261 S    
N10   O23   1.300314 A    
C20   I12   2.144488 S    
C2    C27   1.440751 S    
C19   I11   2.144500 S    
C31   N11   1.443223 S    
C39   C50   1.501779 S    
C31   C33   1.410376 A    
O3    Zn2   1.988697 S    
O8    C4    1.279361 A    
C29   C34   1.398629 A    
C5    C14   1.541530 S    
N8    O20   1.300975 A    
C6    I8    2.139720 S    
C6    C13   1.541613 S    
N6    O16   1.301396 A    
C41   C43   1.412686 A    
C12   N9    1.458135 S    
C8    C14   1.541173 S    
O1    Zn1   1.997826 S    
C26   C28   1.407054 A    
C5    C7    1.554054 S    
C6    C12   1.537424 S    
C46   C49   1.415278 A    
C23   I13   2.144030 S    
N4    O12   1.300431 A    
O3    C1    1.283655 A    
O8    Zn1   1.970032 S    
C35   C37   1.405793 A    
Zn1   N1    1.998612 S    
C11   N10   1.458153 S    
Zn2   N2    1.998609 S    
C7    C12   1.537401 S    
C11   C13   1.528880 S    
C18   C20   1.397199 A    
C19   C21   1.405481 A    
C20   C22   1.405503 A    
C5    C11   1.537290 S    
C10   C16   1.181572 T    
C45   N5    1.437755 S    
C30   H2    1.084161 S    
C23   C25   1.397161 A    
C42   C44   1.412580 A    
C12   C14   1.528869 S    
C13   C15   1.426250 S    
C9    C15   1.181591 T    
N12   O28   1.301040 A    
C38   I4    2.119399 S    
C5    I7    2.139576 S    
N5    O13   1.301116 A    
C30   C32   1.391428 A    
N8    O19   1.301169 A    
C29   H1    1.084143 S    
C6    C8    1.554172 S    
N6    O15   1.301678 A    
C37   I3    2.119358 S    
C44   N2    1.368991 A    
C48   N8    1.437859 S    
C41   I5    2.134825 S    
C17   C27   1.406641 A    
C22   C24   1.405094 A    
C32   N12   1.443195 S    
