data_mof_unit_33950.cif
_audit_creation_date              2012-12-10T18:13:28-0500
_audit_creation_method            fapswitch 2.2
_symmetry_space_group_name_H-M    P1
_symmetry_Int_Tables_number       1
_space_group_crystal_system       triclinic
_cell_length_a                    12.668198
_cell_length_b                    12.973158
_cell_length_c                    16.764805
_cell_angle_alpha                 90.151904
_cell_angle_beta                  98.543667
_cell_angle_gamma                 98.724611
_cell_volume                      2692.24079252

loop_
_atom_site_label
_atom_site_type_symbol
_atom_type_description
_atom_site_fract_x
_atom_site_fract_y
_atom_site_fract_z
_atom_type_partial_charge
C1    C     C_R   0.561004 0.692107 0.510499 0.812422
C2    C     C_R   0.629860 0.521472 0.242249 -0.189140
C3    C     C_R   0.604131 0.617489 0.856665 -0.137869
C4    C     C_R   0.596658 0.573346 0.780376 -0.195416
C5    C     C_R   0.400979 0.554203 0.765474 -0.148822
C6    C     C_R   0.408546 0.596931 0.842607 -0.168363
C7    C     C_R   0.509988 0.626146 0.889160 0.193285
C8    C     C_2   0.580394 0.599958 0.027893 -0.219126
C9    C     C_2   0.514747 0.647492 0.975233 -0.231329
C10   C     C_R   0.495056 0.540471 0.734534 -0.033106
C11   C     C_R   0.336038 0.072138 0.361210 -0.182834
C12   C     C_R   0.513937 0.500439 0.349429 0.842440
C13   C     C_R   0.401624 0.199148 0.469775 -0.037450
C14   C     C_R   0.685686 0.844038 0.584456 -0.019919
C15   C     C_R   0.708799 0.952019 0.599202 -0.094696
C16   C     C_R   0.640401 0.017120 0.561443 -0.272373
C17   C     C_R   0.549638 0.976142 0.505260 0.071074
C18   C     C_R   0.541482 0.873414 0.475940 0.119299
C19   C     C_R   0.469583 0.036085 0.474222 -0.000212
C20   C     C_R   0.403463 0.005204 0.399468 0.180173
C21   C     C_R   0.407191 0.908886 0.363679 -0.245760
C22   C     C_R   0.473127 0.842258 0.402613 -0.181902
C23   C     C_R   0.439273 0.308464 0.489380 0.971467
C24   C     C_R   0.452355 0.125520 0.515070 -0.096769
C25   C     C_R   0.339743 0.171330 0.394298 -0.256483
C26   C     C_R   0.600482 0.804116 0.521625 -0.205568
C27   C     C_R   0.911788 0.409654 0.645686 -0.230747
C28   C     C_R   0.208112 0.615645 0.394811 0.032833
C29   C     C_R   0.106261 0.642903 0.371297 -0.245290
C30   C     C_R   0.022633 0.606621 0.414137 -0.169800
C31   C     C_R   0.041242 0.543497 0.481457 0.028231
C32   C     C_R   0.146514 0.517153 0.503379 0.115253
C33   C     C_R   0.958964 0.501648 0.526416 -0.000667
C34   C     C_R   0.489113 0.507627 0.650699 0.936825
C35   C     C_R   0.989209 0.457034 0.601688 0.096175
C36   C     C_R   0.095864 0.446905 0.627918 -0.280162
C37   C     C_R   0.166057 0.454839 0.571690 -0.040382
C38   C     C_R   0.847893 0.497361 0.498733 -0.054379
C39   C     C_R   0.803590 0.400676 0.613419 0.091624
C40   C     C_R   0.527614 0.519229 0.265651 -0.030858
C41   C     C_R   0.442006 0.545487 0.210583 -0.221440
C42   C     C_R   0.458705 0.574983 0.133441 -0.140356
C43   C     C_R   0.561808 0.579659 0.110765 0.203213
C44   C     C_R   0.646617 0.551438 0.165261 -0.175852
H1    H     H_    0.362337 0.544029 0.227139 0.153340
H2    H     H_    0.335264 0.602709 0.867317 0.136297
H3    H     H_    0.299091 0.227889 0.359355 0.155019
H4    H     H_    0.357333 0.884045 0.306626 0.141003
H5    H     H_    0.287058 0.050839 0.303203 0.142570
H6    H     H_    0.658854 0.099665 0.576711 0.143304
H7    H     H_    0.775340 0.985664 0.644473 0.191345
H8    H     H_    0.472566 0.767435 0.373665 0.152273
H9    H     H_    0.670611 0.566907 0.756877 0.173604
H10   H     H_    0.115476 0.405771 0.683260 0.184178
H11   H     H_    0.935923 0.373798 0.702571 0.186078
H12   H     H_    0.818307 0.533643 0.443829 0.128536
H13   H     H_    0.273142 0.644034 0.361604 0.128289
H14   H     H_    0.945220 0.630984 0.395035 0.135998
H15   H     H_    0.092282 0.692340 0.320092 0.146215
H16   H     H_    0.321847 0.531525 0.730336 0.176293
H17   H     H_    0.450932 0.684166 0.994446 0.149210
H18   H     H_    0.725903 0.552265 0.148076 0.131009
H19   H     H_    0.683365 0.641953 0.891191 0.142695
H20   H     H_    0.697632 0.502023 0.283707 0.154519
H21   H     H_    0.643065 0.562550 0.007379 0.158707
H22   H     H_    0.389926 0.591085 0.091656 0.126610
N1    N     N_R   0.774070 0.445420 0.541180 -0.150108
N2    N     N_R   0.226730 0.554050 0.459240 -0.132242
O1    O     O_R   0.631480 0.627510 0.519670 -0.624083
O2    O     O_R   0.455770 0.662400 0.493360 -0.598275
O3    O     O_R   0.598240 0.480510 0.398910 -0.618558
O4    O     O_R   0.422540 0.515400 0.372600 -0.637299
O5    O     O_R   0.544230 0.337600 0.506640 -0.635233
O6    O     O_R   0.368520 0.372490 0.480330 -0.637779
O7    O     O_R   0.577460 0.484600 0.627400 -0.641678
O8    O     O_R   0.401760 0.519490 0.601090 -0.600375
Zn1   Zn    Zn3+2 0.617320 0.476700 0.517570 0.934447
Zn2   Zn    Zn3+2 0.382680 0.523300 0.482430 0.943050
C45   C     C_2   0.471071 0.134652 0.605189 0.360619
H23   H     H_    0.496275 0.070906 0.641162 0.097888
O9    O     O_2   0.452685 0.210768 0.640655 -0.531075
C46   C     C_2   0.747235 0.776264 0.638815 0.405562
H24   H     H_    0.714168 0.696038 0.647878 0.086751
O10   O     O_2   0.835927 0.810582 0.676250 -0.564418
C47   C     C_2   0.723338 0.342496 0.658861 0.413592
H25   H     H_    0.644110 0.310749 0.629380 0.151342
O11   O     O_2   0.745871 0.327521 0.730872 -0.577615
C48   C     C_2   0.214845 0.360117 0.567183 0.522219
H26   H     H_    0.196753 0.313450 0.511639 0.049720
O12   O     O_2   0.267138 0.328230 0.626646 -0.540790

loop_
_geom_bond_atom_site_label_1
_geom_bond_atom_site_label_2
_ccdc_geom_bond_type
C4    H9    S    
O2    Zn2   S    
C41   C42   A    
C37   C48   S    
O1    Zn1   S    
C35   C36   A    
N1    Zn1   S    
C8    C43   S    
C28   H13   S    
C9    H17   S    
C36   C37   A    
C28   N2    A    
O8    Zn2   S    
C3    C7    A    
C5    C6    A    
C27   H11   S    
C11   C25   A    
C15   C16   A    
C13   C23   S    
O4    Zn2   S    
C33   C35   A    
C29   H15   S    
C2    C44   A    
C8    C9    D    
C18   C26   A    
C31   C33   A    
C15   H7    S    
C25   H3    S    
C34   O7    A    
C32   N2    A    
C21   H4    S    
C48   H26   S    
C12   O4    A    
C8    H21   S    
C21   C22   A    
C13   C25   A    
C23   O5    A    
C2    H20   S    
C47   O11   D    
N2    Zn2   S    
C11   C20   A    
C38   N1    A    
C27   C39   A    
C45   O9    D    
C16   C17   A    
C44   H18   S    
C47   H25   S    
C1    O1    A    
C13   C24   A    
C12   C40   S    
C43   C44   A    
C29   C30   A    
C11   H5    S    
C39   C47   S    
C24   C45   S    
C31   C32   A    
C17   C18   A    
C10   C34   S    
C32   C37   A    
C14   C26   A    
O7    Zn1   S    
C40   C41   A    
C12   O3    A    
C48   O12   D    
C46   O10   D    
C1    C26   S    
C42   C43   A    
C14   C46   S    
C23   O6    A    
C4    C10   A    
C3    C4    A    
O3    Zn1   S    
C22   H8    S    
C7    C9    S    
C28   C29   A    
C41   H1    S    
C6    H2    S    
C5    H16   S    
C18   C22   A    
C39   N1    A    
C33   C38   A    
C16   H6    S    
C6    C7    A    
C3    H19   S    
C1    O2    A    
C27   C35   A    
C19   C20   A    
C19   C24   A    
C5    C10   A    
C30   C31   A    
C30   H14   S    
C17   C19   A    
C36   H10   S    
C45   H23   S    
C2    C40   A    
C38   H12   S    
C20   C21   A    
C46   H24   S    
O6    Zn2   S    
C42   H22   S    
O5    Zn1   S    
C14   C15   A    
C34   O8    A    
