data_mof_unit_8111.cif
_audit_creation_date              2012-12-10T18:45:32-0500
_audit_creation_method            fapswitch 2.2
_symmetry_space_group_name_H-M    P1
_symmetry_Int_Tables_number       1
_space_group_crystal_system       triclinic
_cell_length_a                    19.592346
_cell_length_b                    18.070488
_cell_length_c                    10.695495
_cell_angle_alpha                 89.999075
_cell_angle_beta                  88.997498
_cell_angle_gamma                 89.986182
_cell_volume                      3786.08811758

loop_
_atom_site_label
_atom_site_type_symbol
_atom_type_description
_atom_site_fract_x
_atom_site_fract_y
_atom_site_fract_z
_atom_type_partial_charge
C1    C     C_R   0.367111 0.500010 0.496034 0.807655
C2    C     C_R   0.632889 0.499990 0.503966 0.807654
C3    C     C_R   0.709368 0.499956 0.510659 -0.153643
C4    C     C_R   0.290632 0.500044 0.489341 -0.153643
C5    C     C_R   0.963559 0.517661 0.392583 -0.139604
C6    C     C_R   0.036441 0.482338 0.607419 -0.139604
C7    C     C_R   0.034578 0.517750 0.388325 -0.146826
C8    C     C_R   0.965421 0.482250 0.611677 -0.146826
C9    C     C_R   0.071039 0.500119 0.495763 0.102391
C10   C     C_R   0.928961 0.499881 0.504238 0.102391
C11   C     C_R   0.471299 0.721115 0.403532 0.119215
C12   C     C_R   0.528701 0.278884 0.596468 0.119215
C13   C     C_R   0.528705 0.721098 0.596464 0.119203
C14   C     C_R   0.471295 0.278901 0.403536 0.119204
C15   C     C_R   0.470859 0.798641 0.401639 -0.246537
C16   C     C_R   0.529141 0.201359 0.598361 -0.246538
C17   C     C_R   0.529146 0.798624 0.598355 -0.246507
C18   C     C_R   0.470854 0.201376 0.401645 -0.246507
C19   C     C_R   0.500002 0.838288 0.499997 0.115590
C20   C     C_R   0.499998 0.161711 0.500002 0.115590
C21   C     C_R   0.562012 0.960827 0.488056 -0.071991
C22   C     C_R   0.437988 0.039173 0.511944 -0.071991
C23   C     C_R   0.437989 0.960857 0.511943 -0.072006
C24   C     C_R   0.562011 0.039143 0.488057 -0.072006
C25   C     C_R   0.499999 0.078819 0.500001 -0.014425
C26   C     C_R   0.500001 0.921181 0.499999 -0.014425
C27   C     C_R   0.510615 0.499998 0.261712 0.817258
C28   C     C_R   0.489385 0.500002 0.738288 0.817258
C29   C     C_R   0.543935 0.635686 0.101565 0.011596
C30   C     C_R   0.456065 0.364313 0.898435 0.011596
C31   C     C_R   0.456032 0.635697 0.898426 0.011456
C32   C     C_R   0.543968 0.364303 0.101574 0.011456
C33   C     C_R   0.523329 0.702449 0.048168 -0.210423
C34   C     C_R   0.476671 0.297551 0.951832 -0.210422
C35   C     C_R   0.476622 0.702455 0.951821 -0.210413
C36   C     C_R   0.523378 0.297545 0.048179 -0.210413
C37   C     C_R   0.483010 0.567665 0.942403 0.028141
C38   C     C_R   0.516990 0.432334 0.057597 0.028141
C39   C     C_R   0.516973 0.567661 0.057593 0.028115
C40   C     C_R   0.483027 0.432339 0.942407 0.028115
C41   C     C_R   0.477311 0.500003 0.876292 -0.217212
C42   C     C_R   0.522689 0.499997 0.123708 -0.217212
C43   C     C_R   0.746598 0.432038 0.514198 -0.079461
C44   C     C_R   0.253402 0.567962 0.485802 -0.079461
C45   C     C_R   0.253373 0.432166 0.485916 -0.079614
C46   C     C_R   0.746627 0.567834 0.514085 -0.079614
C47   C     C_R   0.818389 0.432494 0.511481 -0.059961
C48   C     C_R   0.181611 0.567506 0.488520 -0.059961
C49   C     C_R   0.181579 0.432711 0.488369 -0.060219
C50   C     C_R   0.818421 0.567289 0.511633 -0.060218
C51   C     C_R   0.853944 0.499875 0.508642 -0.027443
C52   C     C_R   0.146055 0.500125 0.491359 -0.027443
Cu1   Cu    Cu3+1 0.500000 0.573360 0.500000 0.978424
Cu2   Cu    Cu3+1 0.500000 0.426640 0.500000 0.978424
H1    H     H_    0.448190 0.691046 0.327860 0.132858
H2    H     H_    0.551810 0.308954 0.672140 0.132858
H3    H     H_    0.551816 0.691016 0.672134 0.132927
H4    H     H_    0.448184 0.308984 0.327866 0.132927
N1    N     N_R   0.500000 0.683620 0.500000 -0.176776
N2    N     N_R   0.500000 0.316380 0.500000 -0.176776
O1    O     O_R   0.400190 0.561980 0.499980 -0.568694
O2    O     O_R   0.599810 0.438020 0.500020 -0.568693
O3    O     O_R   0.599810 0.561980 0.500020 -0.568677
O4    O     O_R   0.400190 0.438020 0.499980 -0.568678
O5    O     O_R   0.500000 0.561950 0.319660 -0.590959
O6    O     O_R   0.500000 0.438050 0.680340 -0.590959
O7    O     O_R   0.500000 0.561950 0.680340 -0.590962
O8    O     O_R   0.500000 0.438050 0.319660 -0.590962
H5    H     H_    0.542665 0.245285 0.082598 0.152676
H6    H     H_    0.457335 0.754715 0.917402 0.152676
H7    H     H_    0.457395 0.245295 0.917418 0.152655
H8    H     H_    0.542605 0.754704 0.082582 0.152655
C53   C     C_1   0.599637 0.637961 0.188110 0.253818
N3    N     N_1   0.644647 0.639956 0.256538 -0.262389
C54   C     C_1   0.400363 0.362039 0.811890 0.253818
N4    N     N_1   0.355353 0.360044 0.743462 -0.262389
C55   C     C_1   0.400335 0.637986 0.811869 0.253787
N5    N     N_1   0.355329 0.639992 0.743432 -0.261532
C56   C     C_1   0.599665 0.362014 0.188131 0.253787
N6    N     N_1   0.644671 0.360007 0.256568 -0.261532
C57   C     C_1   0.712887 0.360677 0.523835 0.322800
N7    N     N_1   0.686766 0.303384 0.531666 -0.251445
C58   C     C_1   0.287113 0.639323 0.476164 0.322800
N8    N     N_1   0.313234 0.696616 0.468332 -0.251446
C59   C     C_1   0.287063 0.360776 0.476278 0.323173
N9    N     N_1   0.313171 0.303462 0.468446 -0.251283
C60   C     C_1   0.712937 0.639224 0.523723 0.323172
N10   N     N_1   0.686828 0.696538 0.531554 -0.251283
C61   C     C_1   0.856175 0.363216 0.509857 0.259352
N11   N     N_1   0.886307 0.308119 0.508551 -0.228582
C62   C     C_1   0.143825 0.636784 0.490144 0.259352
N12   N     N_1   0.113693 0.691881 0.491450 -0.228582
C63   C     C_1   0.143721 0.363526 0.486162 0.258965
N13   N     N_1   0.113528 0.308507 0.484422 -0.228585
C64   C     C_1   0.856279 0.636474 0.513840 0.258964
N14   N     N_1   0.886471 0.691493 0.515580 -0.228585
H9    H     H_    0.935487 0.531281 0.309306 0.143665
H10   H     H_    0.064513 0.468719 0.690695 0.143665
H11   H     H_    0.061205 0.531408 0.301760 0.141275
H12   H     H_    0.938795 0.468592 0.698241 0.141275
H13   H     H_    0.448001 0.827490 0.324107 0.140549
H14   H     H_    0.551999 0.172510 0.675893 0.140549
H15   H     H_    0.552005 0.827460 0.675886 0.140595
H16   H     H_    0.447994 0.172540 0.324114 0.140595
C65   C     C_1   0.625864 0.920927 0.472647 0.261616
N15   N     N_1   0.676773 0.889038 0.460340 -0.227665
C66   C     C_1   0.374136 0.079073 0.527353 0.261616
N16   N     N_1   0.323227 0.110962 0.539660 -0.227665
C67   C     C_1   0.374139 0.920987 0.527350 0.261576
N17   N     N_1   0.323230 0.889122 0.539655 -0.227496
C68   C     C_1   0.625861 0.079013 0.472650 0.261576
N18   N     N_1   0.676770 0.110878 0.460345 -0.227496

loop_
_geom_bond_atom_site_label_1
_geom_bond_atom_site_label_2
_ccdc_geom_bond_type
C21   C26   A    
C63   N13   T    
C53   N3    T    
C14   C18   A    
C28   O6    A    
C64   N14   T    
C60   N10   T    
C44   C58   S    
C6    C9    A    
C57   N7    T    
Cu1   N1    S    
Cu2   N2    S    
C55   N5    T    
C2    O3    A    
C15   C19   A    
C24   C68   S    
C3    C43   A    
C7    H11   S    
C32   C36   A    
C29   C53   S    
C38   C42   A    
C50   C64   S    
C13   H3    S    
C20   C25   S    
C22   C66   S    
C29   C33   A    
C28   C41   S    
C23   C26   A    
C19   C26   S    
C27   O8    A    
C33   H8    S    
C33   C35   A    
Cu1   O1    S    
C68   N18   T    
C35   H6    S    
C22   C25   A    
C66   N16   T    
C32   C38   A    
Cu1   O5    S    
C18   C20   A    
C37   C41   A    
C47   C61   S    
C9    C52   S    
C11   C15   A    
C11   N1    A    
C10   C51   S    
C31   C55   S    
C39   C42   A    
C4    C45   A    
C14   H4    S    
C30   C34   A    
C12   C16   A    
C28   O7    A    
C24   C25   A    
C62   N12   T    
C5    C7    A    
C6    C8    A    
Cu2   O2    S    
C59   N9    T    
C48   C62   S    
C31   C37   A    
C45   C59   S    
C54   N4    T    
C27   O5    A    
C58   N8    T    
C45   C49   A    
C16   C20   A    
C49   C52   A    
C29   C39   A    
C50   C51   A    
C30   C40   A    
C18   H16   S    
C15   H13   S    
C12   H2    S    
C4    C44   A    
Cu2   O6    S    
C16   H14   S    
C40   C41   A    
C5    H9    S    
C43   C57   S    
C31   C35   A    
C1    O4    A    
C6    H10   S    
C11   H1    S    
C36   H5    S    
C46   C60   S    
C7    C9    A    
C1    O1    A    
C47   C51   A    
Cu1   Cu2   S    
C13   N1    A    
C14   N2    A    
C65   N15   T    
C46   C50   A    
C3    C46   A    
C13   C17   A    
C1    C4    S    
C2    C3    S    
C17   H15   S    
C5    C10   A    
C37   C39   A    
C67   N17   T    
C32   C56   S    
C38   C40   A    
C30   C54   S    
Cu1   O3    S    
C27   C42   S    
Cu2   O4    S    
C17   C19   A    
C34   C36   A    
C8    H12   S    
Cu1   O7    S    
C56   N6    T    
C12   N2    A    
C44   C48   A    
C48   C52   A    
Cu2   O8    S    
C8    C10   A    
C21   C24   A    
C22   C23   A    
C49   C63   S    
C61   N11   T    
C43   C47   A    
C34   H7    S    
C21   C65   S    
C2    O2    A    
C23   C67   S    
