data_mof_unit_19366.cif
_audit_creation_date              2012-12-10T17:16:41-0500
_audit_creation_method            fapswitch 2.2
_symmetry_space_group_name_H-M    P1
_symmetry_Int_Tables_number       1
_space_group_crystal_system       triclinic
_cell_length_a                    10.181836
_cell_length_b                    10.78294
_cell_length_c                    10.653812
_cell_angle_alpha                 88.892373
_cell_angle_beta                  91.519693
_cell_angle_gamma                 80.720597
_cell_volume                      1153.64015569

loop_
_atom_site_label
_atom_site_type_symbol
_atom_type_description
_atom_site_fract_x
_atom_site_fract_y
_atom_site_fract_z
_atom_type_partial_charge
C1    C     C_R   0.447400 0.516922 0.265869 0.844718
C2    C     C_R   0.496511 0.739593 0.480914 0.892874
C3    C     C_R   0.647748 0.118715 0.304228 0.220601
C4    C     C_R   0.242422 0.927980 0.502512 0.238713
C5    C     C_R   0.770263 0.059247 0.264281 -0.181337
C6    C     C_R   0.162808 0.983180 0.598442 -0.241607
C7    C     C_R   0.807452 0.932194 0.288078 -0.261886
C8    C     C_R   0.207626 0.070861 0.675481 -0.191069
C9    C     C_R   0.716999 0.862259 0.340493 0.037441
C10   C     C_R   0.324557 0.116228 0.647658 0.040735
C11   C     C_R   0.598048 0.926090 0.398663 0.024505
C12   C     C_R   0.551871 0.496098 0.734037 0.917585
C13   C     C_R   0.400569 0.067554 0.544241 -0.020506
C14   C     C_R   0.581619 0.058453 0.396753 0.040304
C15   C     C_R   0.374989 0.955672 0.492961 0.085861
C16   C     C_R   0.488735 0.873208 0.449921 -0.206880
C17   C     C_R   0.496924 0.126049 0.484372 -0.227990
C18   C     C_3   0.569640 0.216220 0.216263 -0.413969
C19   C     C_3   0.528726 0.154620 0.096751 -0.808918
C20   C     C_3   0.170844 0.862208 0.402971 -0.431256
C21   C     C_3   0.232310 0.857022 0.274289 -0.824911
C22   C     C_1   0.743181 0.733906 0.301528 0.213883
C23   C     C_2   0.422852 0.531075 0.130121 -0.210712
C24   C     C_1   0.370919 0.200673 0.735203 0.185813
C25   C     C_1   0.413992 0.712216 0.852443 0.197453
C26   C     C_1   0.503686 0.731691 0.110253 0.146826
C27   C     C_1   0.672037 0.428326 0.937703 0.186088
C28   C     C_1   0.332555 0.456323 0.073168 0.168113
C29   C     C_3   0.892097 0.346675 0.366712 -0.172454
C30   C     C_3   0.955603 0.229105 0.441932 -0.881554
C31   C     C_3   0.113398 0.632248 0.654387 -0.242370
C32   C     C_3   0.096326 0.555085 0.772637 -0.805888
C33   C     C_2   0.570239 0.513659 0.868293 -0.215387
C34   C     C_2   0.480638 0.613201 0.061254 -0.028784
C35   C     C_2   0.487119 0.605928 0.924410 -0.045819
C36   C     C_2   0.074052 0.494878 0.487597 -0.059181
C37   C     C_2   0.924497 0.511532 0.506651 -0.043900
C38   C     C_R   0.500146 0.258924 0.500580 0.887769
H1    H     H_    0.147761 0.107788 0.753092 0.158704
H2    H     H_    0.477027 0.262722 0.258753 0.201557
H3    H     H_    0.630658 0.288322 0.190768 0.224591
H4    H     H_    0.259191 0.949348 0.246502 0.262771
H5    H     H_    0.320655 0.783082 0.276576 0.260901
H6    H     H_    0.160476 0.831074 0.203095 0.240017
H7    H     H_    0.159661 0.766606 0.435260 0.234104
H8    H     H_    0.068438 0.915198 0.389430 0.195451
H9    H     H_    0.038804 0.248754 0.503605 0.262389
H10   H     H_    0.880277 0.194322 0.500912 0.274047
H11   H     H_    0.995724 0.154414 0.376585 0.241524
H12   H     H_    0.896721 0.885723 0.244437 0.151693
H13   H     H_    0.806817 0.323235 0.311216 0.203691
H14   H     H_    0.961036 0.375712 0.296959 0.156626
H15   H     H_    0.013387 0.500827 0.759737 0.247971
H16   H     H_    0.189447 0.488719 0.794874 0.287831
H17   H     H_    0.074362 0.618660 0.852810 0.237080
H18   H     H_    0.191183 0.690079 0.674687 0.230293
H19   H     H_    0.022206 0.700216 0.628978 0.138168
H20   H     H_    0.827176 0.106283 0.199340 0.155441
H21   H     H_    0.064657 0.959508 0.612371 0.144142
H22   H     H_    0.879792 0.581665 0.570596 0.147798
H23   H     H_    0.117039 0.432497 0.415972 0.158037
H24   H     H_    0.479262 0.228103 0.030584 0.270808
H25   H     H_    0.616536 0.102891 0.049944 0.266221
H26   H     H_    0.458140 0.089329 0.118631 0.269757
N1    N     N_2   0.157300 0.551390 0.551120 -0.083725
N2    N     N_2   0.842700 0.448610 0.448880 -0.062256
N3    N     N_1   0.767382 0.633206 0.263932 -0.184338
N4    N     N_1   0.408084 0.268476 0.805427 -0.223831
N5    N     N_1   0.357345 0.798433 0.796722 -0.215481
N6    N     N_1   0.517785 0.830553 0.142252 -0.230280
N7    N     N_1   0.754331 0.360353 0.992435 -0.226520
N8    N     N_1   0.258777 0.397144 0.029187 -0.210041
O1    O     O_R   0.568940 0.489660 0.307530 -0.610826
O2    O     O_R   0.431060 0.510340 0.692470 -0.592185
O3    O     O_R   0.348880 0.522640 0.340350 -0.619127
O4    O     O_R   0.651120 0.477360 0.659650 -0.609348
O5    O     O_R   0.610030 0.300280 0.483580 -0.613861
O6    O     O_R   0.389970 0.699720 0.516420 -0.617915
O7    O     O_R   0.389970 0.333270 0.516400 -0.605948
O8    O     O_R   0.610030 0.666730 0.483600 -0.627769
Zn1   Zn    Zn3+2 0.646940 0.477980 0.478080 0.952886
Zn2   Zn    Zn3+2 0.353060 0.522020 0.521920 0.946047

loop_
_geom_bond_atom_site_label_1
_geom_bond_atom_site_label_2
_ccdc_geom_bond_type
C12   O2    A    
C27   C33   S    
C5    H20   S    
C30   H10   S    
C36   C37   S    
C18   C19   S    
C11   C14   A    
C9    C22   S    
C38   O7    A    
C19   H24   S    
C15   C16   A    
C3    C18   S    
C31   N1    S    
C34   C35   S    
O1    Zn1   S    
C18   H2    S    
C21   H5    S    
C26   C34   S    
C19   H25   S    
C8    H1    S    
C31   H18   S    
C2    C16   S    
C32   H17   S    
C20   H7    S    
C14   C17   A    
C28   N8    T    
O2    Zn2   S    
C32   H16   S    
C1    O3    A    
C30   H9    S    
C4    C6    A    
C18   H3    S    
C5    C7    A    
C36   N1    D    
C6    C8    A    
C10   C24   S    
C21   H4    S    
C29   C30   S    
C2    O6    A    
C21   H6    S    
C11   C16   A    
O6    Zn2   S    
C31   C32   S    
O5    Zn1   S    
C19   H26   S    
C23   C34   D    
C37   N2    D    
C23   C28   S    
C9    C11   A    
C3    C14   A    
C25   C35   S    
C30   H11   S    
C1    C23   S    
C13   C15   A    
C26   N6    T    
C25   N5    T    
C36   H23   S    
C32   H15   S    
C27   N7    T    
C29   H13   S    
C7    C9    A    
C6    H21   S    
C7    H12   S    
O8    Zn1   S    
C3    C5    A    
C10   C13   A    
O4    Zn1   S    
O7    Zn2   S    
O3    Zn2   S    
C38   O5    A    
C13   C17   A    
C1    O1    A    
C31   H19   S    
C4    C15   A    
C12   O4    A    
N2    Zn1   S    
N1    Zn2   S    
C33   C35   D    
C17   C38   S    
C22   N3    T    
C37   H22   S    
C2    O8    A    
C24   N4    T    
C29   N2    S    
C4    C20   S    
C20   C21   S    
C8    C10   A    
C12   C33   S    
C20   H8    S    
C29   H14   S    
