data_mof_unit_41987.cif
_audit_creation_date              2013-03-05T15:55:53-0500
_audit_creation_method            fapswitch 2.2
_symmetry_space_group_name_H-M    P1
_symmetry_Int_Tables_number       1
_space_group_crystal_system       triclinic
_cell_length_a                    12.342579
_cell_length_b                    13.108741
_cell_length_c                    15.863061
_cell_angle_alpha                 77.155093
_cell_angle_beta                  101.257029
_cell_angle_gamma                 116.242787
_cell_volume                      2230.60193883

loop_
_atom_site_label
_atom_site_type_symbol
_atom_site_description
_atom_site_fract_x
_atom_site_fract_y
_atom_site_fract_z
_atom_type_partial_charge
O1    O     O_R   0.972510 0.318130 0.524770 -0.543132
O2    O     O_R   0.806530 0.359650 0.491510 -0.617900
C1    C     C_R   0.855015 0.285439 0.508300 0.808148
O3    O     O_R   0.082970 0.479240 0.637550 -0.565578
O4    O     O_R   0.916990 0.520750 0.604290 -0.586147
C2    C     C_R   0.999413 0.499382 0.659927 0.816511
Cu1   Cu    Cu3+1 0.098270 0.475420 0.519690 1.012391
Cu2   Cu    Cu3+1 0.901730 0.524580 0.480310 1.070625
O5    O     O_R   0.193470 0.640350 0.508490 -0.605870
O6    O     O_R   0.027490 0.681870 0.475230 -0.508654
O7    O     O_R   0.083010 0.479250 0.395710 -0.591937
O8    O     O_R   0.917030 0.520760 0.362450 -0.504864
C3    C     C_R   0.144668 0.714406 0.490064 0.852465
C4    C     C_R   0.000101 0.499956 0.340093 0.829768
C5    C     C_3   0.048988 0.430106 0.049336 -0.212971
C6    C     C_3   0.933610 0.390034 0.981916 -0.278516
H1    H     H_    0.879950 0.301188 0.966806 0.223087
H2    H     H_    0.093111 0.375319 0.090125 0.212309
C7    C     C_1   0.998466 0.498630 0.749411 -0.050674
C8    C     C_1   0.999870 0.499848 0.250534 -0.067035
C9    C     C_3   0.110133 0.537591 0.982974 0.337641
C10   C     C_3   0.997753 0.498395 0.916323 -0.095626
C11   C     C_3   0.061473 0.608314 0.017882 -0.282325
C12   C     C_3   0.997313 0.499652 0.083194 -0.052100
C13   C     C_3   0.946834 0.566848 0.951182 0.330850
C14   C     C_3   0.884443 0.460337 0.016907 0.305479
C15   C     C_1   0.997908 0.498211 0.824835 0.156054
C16   C     C_1   0.998766 0.499835 0.174911 0.121161
H3    H     H_    0.114575 0.697428 0.032551 0.217211
C17   C     C_R   0.272094 0.038425 0.421226 -0.115900
H4    H     H_    0.239103 0.103336 0.391520 0.239321
C18   C     C_R   0.226538 0.838520 0.480653 -0.154288
C19   C     C_R   0.813890 0.077316 0.566106 0.256464
C20   C     C_R   0.729557 0.964365 0.591673 0.288972
C21   C     C_R   0.606098 0.934964 0.566990 -0.268185
C22   C     C_R   0.563492 0.011736 0.509350 0.065949
C23   C     C_R   0.648551 0.123722 0.480342 -0.016608
C24   C     C_R   0.437738 0.981242 0.482123 0.082753
C25   C     C_R   0.397459 0.065740 0.434483 -0.033977
C26   C     C_R   0.483477 0.173699 0.399768 0.398099
C27   C     C_R   0.606606 0.197071 0.417808 -0.209191
C28   C     C_R   0.351081 0.867677 0.499022 -0.238749
C29   C     C_R   0.186534 0.927159 0.447960 0.346988
C30   C     C_R   0.773102 0.160189 0.514887 -0.215222
H5    H     H_    0.379469 0.798863 0.522696 0.168994
H6    H     H_    0.545338 0.850694 0.594764 0.192750
H7    H     H_    0.669607 0.273843 0.382174 0.212214
C31   C     C_R   0.334222 0.310630 0.630444 0.260221
H8    H     H_    0.157309 0.297035 0.641677 0.201617
N1    N     N_R   0.246280 0.438200 0.549540 -0.218783
C32   C     C_R   0.753890 0.650749 0.384559 0.624805
C33   C     C_R   0.669406 0.696591 0.378337 -0.197008
C34   C     C_R   0.574025 0.643816 0.428016 -0.253291
C35   C     C_R   0.558777 0.541774 0.485121 0.059888
C36   C     C_R   0.655861 0.505812 0.500495 0.204810
C37   C     C_R   0.451112 0.476436 0.528316 -0.038448
C38   C     C_R   0.444615 0.379569 0.592419 -0.056186
C39   C     C_R   0.548567 0.355404 0.616364 0.291258
C40   C     C_R   0.648522 0.414819 0.568651 -0.199873
C41   C     C_R   0.346989 0.501605 0.507305 0.044560
C42   C     C_R   0.239795 0.346421 0.610958 0.089351
N2    N     N_R   0.754330 0.561180 0.450980 -0.254485
H9    H     H_    0.342432 0.569642 0.456393 0.129718
H10   H     H_    0.512379 0.684296 0.418861 0.155822
H11   H     H_    0.672125 0.770690 0.330779 0.219815
H12   H     H_    0.721407 0.389666 0.590434 0.216107
N3    N     N_R   0.939531 0.108821 0.597608 0.146192
O9    O     O_R   0.973510 0.104136 0.680834 -0.281774
O10   O     O_R   0.015108 0.121639 0.545146 -0.282760
N4    N     N_R   0.767785 0.879142 0.645291 0.163203
O11   O     O_R   0.868780 0.876568 0.635662 -0.191385
O12   O     O_R   0.696163 0.796670 0.698149 -0.294491
N5    N     N_R   0.559654 0.277311 0.693432 0.159469
O13   O     O_R   0.606905 0.206545 0.691972 -0.322889
O14   O     O_R   0.544392 0.291884 0.768082 -0.234668
N6    N     N_R   0.310399 0.198841 0.680658 0.181133
O15   O     O_R   0.322882 0.122254 0.648207 -0.265213
O16   O     O_R   0.252875 0.166025 0.749162 -0.227054
S1    S     S_3+6 0.836532 0.700329 0.291962 0.086452
O17   O     O_2   0.971149 0.740424 0.314940 -0.288348
O18   O     O_2   0.789674 0.604522 0.238830 -0.214933
O19   O     O_3   0.812551 0.811598 0.228849 -0.504978
H13   H     H_    0.851986 0.827029 0.175860 0.402926
N7    N     N_R   0.758778 0.417754 0.034234 0.175536
O20   O     O_R   0.670923 0.383399 0.972375 -0.217249
O21   O     O_R   0.733480 0.412596 0.111312 -0.260812
S2    S     S_3+6 0.878186 0.656686 0.885763 0.119664
O22   O     O_2   0.971497 0.756643 0.834650 -0.196603
O23   O     O_2   0.775420 0.588521 0.824342 -0.198529
O24   O     O_3   0.824792 0.705390 0.950516 -0.456943
H14   H     H_    0.788245 0.754232 0.910309 0.409037
N8    N     N_R   0.235936 0.580188 0.966091 0.169872
O25   O     O_R   0.323012 0.609939 0.029147 -0.272768
O26   O     O_R   0.262125 0.588764 0.888578 -0.292454
N9    N     N_R   0.061312 0.907216 0.442086 0.158474
O27   O     O_R   0.002486 0.856708 0.510085 -0.265789
O28   O     O_R   0.015123 0.961181 0.376984 -0.289308
S3    S     S_3+6 0.441173 0.279742 0.330331 0.024959
O29   O     O_2   0.551376 0.384360 0.300993 -0.240208
O30   O     O_2   0.360576 0.230032 0.252085 -0.226639
O31   O     O_3   0.364406 0.318612 0.384256 -0.563716
H15   H     H_    0.348062 0.380631 0.343415 0.381943

loop_
_geom_bond_atom_site_label_1
_geom_bond_atom_site_label_2
_geom_bond_distance
_ccdc_geom_bond_type
C5    H2    1.110280 S    
S2    O22   1.502781 D    
O31   H15   0.990551 S    
C36   C40   1.403273 A    
N5    O13   1.301713 A    
C31   N6    1.435197 S    
C3    C18   1.478993 S    
C21   C22   1.412987 A    
C31   C42   1.397291 A    
C31   C38   1.423586 A    
C34   C35   1.396588 A    
Cu1   O7    1.930219 S    
C2    C7    1.419627 S    
C41   H9    1.075749 S    
C11   H3    1.110213 S    
C22   C23   1.412191 A    
N6    O16   1.301278 A    
C24   C28   1.399436 A    
C40   H12   1.061920 S    
C26   S3    1.776173 S    
O4    C2    1.297631 A    
C34   H10   1.077605 S    
C5    C6    1.562474 S    
C36   N2    1.399992 A    
C13   S2    1.782549 S    
C37   C38   1.421453 A    
C20   C21   1.392341 A    
O5    C3    1.308769 A    
N9    O27   1.300836 A    
C6    H1    1.110192 S    
C10   C13   1.536565 S    
C29   N9    1.436335 S    
C11   C12   1.547924 S    
N4    O11   1.300833 A    
C7    C15   1.196591 T    
C20   N4    1.442591 S    
C9    C10   1.531185 S    
N5    O14   1.301435 A    
C32   N2    1.393603 A    
O3    Cu1   1.929114 S    
C6    C14   1.542470 S    
C24   C25   1.418907 A    
C35   C37   1.434215 A    
C1    C30   1.491907 S    
H8    C42   1.078722 S    
N3    O9    1.301223 A    
C4    C8    1.420431 S    
Cu1   Cu2   2.702205 S    
N7    O20   1.300273 A    
O3    C2    1.297976 A    
C25   C26   1.409347 A    
S1    O18   1.503378 D    
C8    C16   1.197062 T    
C39   C40   1.397924 A    
C37   C41   1.424920 A    
O1    C1    1.306611 A    
C28   H5    1.074735 S    
S1    O19   1.683518 S    
Cu2   O8    1.929114 S    
N8    O26   1.300222 A    
C19   C20   1.405384 A    
C27   H7    1.078707 S    
N6    O15   1.301609 A    
C26   C27   1.393835 A    
O8    C4    1.297565 A    
S3    O29   1.503726 D    
S3    O30   1.503042 D    
C10   C15   1.452193 S    
C9    C11   1.541866 S    
C17   C29   1.400043 A    
O24   H14   0.990815 S    
C33   C34   1.372987 A    
C19   N3    1.431049 S    
Cu1   O5    1.936666 S    
C35   C36   1.432459 A    
C5    C12   1.546614 S    
C6    C10   1.548264 S    
O1    Cu1   1.952381 S    
C19   C30   1.423125 A    
O2    Cu2   1.936666 S    
C12   C16   1.452055 S    
Cu1   N1    2.036506 S    
N7    O21   1.300260 A    
O6    C3    1.302018 A    
O4    Cu2   1.930219 S    
N9    O28   1.301516 A    
S3    O31   1.681160 S    
N1    C41   1.359656 A    
C23   C30   1.424680 A    
S2    O23   1.502953 D    
O2    C1    1.308745 A    
C13   C14   1.531284 S    
C32   C33   1.394916 A    
C14   N7    1.457878 S    
C12   C14   1.531703 S    
C38   C39   1.416490 A    
C17   H4    1.079400 S    
C22   C24   1.421893 A    
N8    O25   1.300295 A    
O7    C4    1.298420 A    
C18   C29   1.415045 A    
C17   C25   1.408235 A    
C11   C13   1.551802 S    
C23   C27   1.411441 A    
C32   S1    1.787357 S    
S1    O17   1.498738 D    
C5    C9    1.540551 S    
Cu2   O6    1.952381 S    
O19   H13   0.990686 S    
S2    O24   1.680770 S    
N1    C42   1.351745 A    
C18   C28   1.396053 A    
N4    O12   1.301718 A    
N3    O10   1.301248 A    
C21   H6    1.075542 S    
C33   H11   1.081211 S    
C39   N5    1.436454 S    
Cu2   N2    2.024522 S    
C9    N8    1.457255 S    
