data_mof_unit_61540.cif
_audit_creation_date              2012-12-10T17:09:35-0500
_audit_creation_method            fapswitch 2.2
_symmetry_space_group_name_H-M    P1
_symmetry_Int_Tables_number       1
_space_group_crystal_system       triclinic
_cell_length_a                    21.699076
_cell_length_b                    21.688817
_cell_length_c                    21.932937
_cell_angle_alpha                 120.805493
_cell_angle_beta                  118.238629
_cell_angle_gamma                 88.419426
_cell_volume                      7489.62198887

loop_
_atom_site_label
_atom_site_type_symbol
_atom_type_description
_atom_site_fract_x
_atom_site_fract_y
_atom_site_fract_z
_atom_type_partial_charge
C1    C     C_R   0.498479 0.119190 0.498721 0.867699
C2    C     C_R   0.501521 0.880810 0.501279 0.867701
C3    C     C_1   0.868723 0.374053 0.249628 0.005312
C4    C     C_1   0.131277 0.625947 0.750372 0.005311
C5    C     C_3   0.701957 0.205352 0.917837 -0.059930
C6    C     C_3   0.298043 0.794649 0.082163 -0.059929
C7    C     C_3   0.722380 0.322340 0.052556 -0.469882
C8    C     C_3   0.277608 0.677648 0.947445 -0.469878
C9    C     C_3   0.784907 0.288023 0.082971 -0.111269
C10   C     C_3   0.215094 0.711977 0.917029 -0.111269
C11   C     C_3   0.748104 0.206734 0.050401 0.466093
C12   C     C_3   0.251915 0.793260 0.949597 0.466090
C13   C     C_3   0.700984 0.157371 0.951596 0.193611
C14   C     C_3   0.299034 0.842624 0.048403 0.193614
C15   C     C_1   0.830441 0.335498 0.174661 0.155447
C16   C     C_1   0.169560 0.664502 0.825339 0.155445
C17   C     C_1   0.656880 0.160880 0.826156 0.108820
C18   C     C_1   0.343119 0.839120 0.173844 0.108820
C19   C     C_1   0.621123 0.124447 0.751081 -0.088865
C20   C     C_1   0.378877 0.875553 0.248919 -0.088866
C21   C     C_R   0.485479 0.109341 0.357322 -0.251674
C22   C     C_R   0.514525 0.890660 0.642679 -0.251671
C23   C     C_R   0.579687 0.080998 0.662102 0.863582
C24   C     C_R   0.420313 0.919002 0.337898 0.863583
C25   C     C_R   0.493141 0.106423 0.296688 0.241935
C26   C     C_R   0.506866 0.893578 0.703315 0.241925
C27   C     C_R   0.515407 0.172836 0.307471 0.368024
C28   C     C_R   0.484599 0.827165 0.692532 0.368024
C29   C     C_R   0.526462 0.242208 0.377588 0.280166
C30   C     C_R   0.473541 0.757792 0.622414 0.280168
C31   C     C_R   0.508949 0.245305 0.434119 -0.087653
C32   C     C_R   0.491053 0.754695 0.565882 -0.087654
C33   C     C_R   0.495669 0.178271 0.427482 0.008098
C34   C     C_R   0.504332 0.821729 0.572518 0.008099
C35   C     C_R   0.493318 0.181347 0.491792 -0.094303
C36   C     C_R   0.506682 0.818653 0.508207 -0.094303
C37   C     C_R   0.491581 0.245771 0.554231 -0.213282
C38   C     C_R   0.508417 0.754229 0.445768 -0.213281
C39   C     C_R   0.494941 0.309993 0.556238 0.375818
C40   C     C_R   0.505057 0.690006 0.443760 0.375819
C41   C     C_R   0.505287 0.311409 0.497943 -0.170700
C42   C     C_R   0.494713 0.688591 0.502057 -0.170702
C43   C     C_R   0.755439 0.509932 0.446102 0.378658
C44   C     C_R   0.244561 0.490068 0.553898 0.378659
C45   C     C_R   0.731795 0.451595 0.591660 -0.132750
C46   C     C_R   0.268206 0.548406 0.408341 -0.132750
C47   C     C_R   0.816472 0.506180 0.507276 -0.163803
C48   C     C_R   0.183528 0.493820 0.492724 -0.163804
C49   C     C_R   0.881304 0.502427 0.503184 0.943150
C50   C     C_R   0.118696 0.497573 0.496816 0.943150
C51   C     C_R   0.915461 0.419099 0.338433 0.925548
C52   C     C_R   0.084539 0.580901 0.661567 0.925548
C53   C     C_R   0.619443 0.498134 0.498074 0.923127
C54   C     C_R   0.380557 0.501866 0.501926 0.923128
C55   C     C_R   0.503084 0.379005 0.499376 0.948133
C56   C     C_R   0.496916 0.620995 0.500624 0.948130
C57   C     C_R   0.741497 0.478662 0.549369 0.086588
C58   C     C_R   0.258503 0.521339 0.450632 0.086587
C59   C     C_R   0.871644 0.503168 0.635174 0.218183
C60   C     C_R   0.128356 0.496833 0.364826 0.218184
C61   C     C_R   0.861318 0.474558 0.675542 0.325096
C62   C     C_R   0.138683 0.525443 0.324458 0.325095
C63   C     C_R   0.791067 0.446344 0.651240 -0.218074
C64   C     C_R   0.208933 0.553657 0.348760 -0.218074
C65   C     C_R   0.690286 0.505029 0.442280 -0.171192
C66   C     C_R   0.309714 0.494971 0.557720 -0.171190
C67   C     C_R   0.683756 0.491011 0.494446 -0.103445
C68   C     C_R   0.316244 0.508989 0.505554 -0.103446
C69   C     C_R   0.810920 0.495315 0.563476 -0.067093
C70   C     C_R   0.189080 0.504686 0.436525 -0.067092
C71   C     C_3   0.674264 0.274285 0.955292 0.067883
C72   C     C_3   0.325723 0.725703 0.044709 0.067880
C73   C     C_3   0.781515 0.234762 0.946563 -0.483756
C74   C     C_3   0.218480 0.765257 0.053437 -0.483752
C75   C     C_3   0.831087 0.285673 0.043965 0.587055
C76   C     C_3   0.168908 0.714345 0.956034 0.587051
H1    H     H_    0.782568 0.424684 0.682345 0.196557
H2    H     H_    0.217433 0.575317 0.317655 0.196557
H3    H     H_    0.688905 0.327922 0.079779 0.264730
H4    H     H_    0.311087 0.672054 0.920223 0.264730
H5    H     H_    0.487473 0.245957 0.601736 0.194361
H6    H     H_    0.512523 0.754042 0.398261 0.194361
H7    H     H_    0.470463 0.056870 0.348366 0.183158
H8    H     H_    0.529541 0.943130 0.651635 0.183156
H9    H     H_    0.678401 0.433335 0.578278 0.182740
H10   H     H_    0.321600 0.566666 0.421723 0.182739
H11   H     H_    0.644616 0.512606 0.398785 0.221976
H12   H     H_    0.355384 0.487394 0.601214 0.221977
H13   H     H_    0.744712 0.380676 0.075814 0.245713
H14   H     H_    0.255265 0.619316 0.924188 0.245713
H15   H     H_    0.678338 0.309403 0.933324 0.187742
H16   H     H_    0.321635 0.690590 0.066677 0.187744
H17   H     H_    0.802729 0.186849 0.920291 0.254872
H18   H     H_    0.197274 0.813179 0.079707 0.254872
H19   H     H_    0.782078 0.265927 0.919211 0.220072
H20   H     H_    0.217905 0.734098 0.080790 0.220074
H21   H     H_    0.643585 0.136598 0.929876 0.206277
H22   H     H_    0.356437 0.863383 0.070122 0.206275
O1    O     O_R   0.448260 0.091600 0.499990 -0.604966
O2    O     O_R   0.551740 0.908400 0.500010 -0.604964
O3    O     O_R   0.556960 0.465330 0.430620 -0.553746
O4    O     O_R   0.443040 0.534670 0.569380 -0.553746
O5    O     O_R   0.534700 0.443070 0.569370 -0.588483
O6    O     O_R   0.465300 0.556930 0.430630 -0.588483
O7    O     O_R   0.465330 0.373710 0.430660 -0.585090
O8    O     O_R   0.534670 0.626290 0.569340 -0.585091
O9    O     O_R   0.551730 0.091620 0.499980 -0.608760
O10   O     O_R   0.448270 0.908380 0.500020 -0.608758
O11   O     O_R   0.509690 0.061420 0.622860 -0.601011
O12   O     O_R   0.490310 0.938580 0.377140 -0.601010
O13   O     O_R   0.613170 0.061430 0.622850 -0.599785
O14   O     O_R   0.386830 0.938570 0.377150 -0.599788
O15   O     O_R   0.908550 0.551730 0.500000 -0.568395
O16   O     O_R   0.091450 0.448270 0.500000 -0.568395
O17   O     O_R   0.908530 0.448300 0.500020 -0.611776
O18   O     O_R   0.091470 0.551700 0.499980 -0.611775
O19   O     O_R   0.938770 0.490290 0.377130 -0.578381
O20   O     O_R   0.061230 0.509710 0.622870 -0.578386
O21   O     O_R   0.938740 0.386860 0.377150 -0.594903
O22   O     O_R   0.061260 0.613140 0.622850 -0.594901
O23   O     O_R   0.626330 0.534680 0.569330 -0.634873
O24   O     O_R   0.373670 0.465320 0.430670 -0.634873
Zn1   Zn    Zn3+2 0.430910 0.999990 0.500010 1.070796
Zn2   Zn    Zn3+2 0.569090 0.000010 0.499990 1.070799
Zn3   Zn    Zn3+2 0.000200 0.569060 0.499990 1.139919
Zn4   Zn    Zn3+2 0.999800 0.430940 0.500010 1.139914
Zn5   Zn    Zn3+2 0.546330 0.546310 0.592620 1.132282
Zn6   Zn    Zn3+2 0.453670 0.453690 0.407380 1.132283
Cl1   Cl    Cl    0.725929 0.073089 0.903438 -0.440170
Cl2   Cl    Cl    0.274105 0.926919 0.096559 -0.440166
Br1   Br    Br    0.684158 0.209629 0.091477 -0.281638
Br2   Br    Br    0.315865 0.790341 0.908520 -0.281637
Br3   Br    Br    0.571313 0.246392 0.916489 -0.351896
Br4   Br    Br    0.428678 0.753572 0.083513 -0.351912
Cl3   Cl    Cl    0.813472 0.165385 0.093735 -0.363091
Cl4   Cl    Cl    0.186562 0.834620 0.906263 -0.363088
Br5   Br    Br    0.478635 0.010428 0.203541 -0.275317
Br6   Br    Br    0.521377 0.989573 0.796465 -0.275327
Cl5   Cl    Cl    0.532126 0.168917 0.234277 -0.337926
Cl6   Cl    Cl    0.467882 0.831085 0.765728 -0.337924
Cl7   Cl    Cl    0.577962 0.320721 0.401299 -0.571312
Cl8   Cl    Cl    0.422039 0.679281 0.598703 -0.571308
Cl9   Cl    Cl    0.482484 0.385990 0.631547 -0.529976
Cl10  Cl    Cl    0.517512 0.614009 0.368449 -0.529973
Cl11  Cl    Cl    0.757236 0.518999 0.371375 -0.512222
Cl12  Cl    Cl    0.242764 0.481000 0.628625 -0.512220
Br7   Br    Br    0.961352 0.577164 0.698150 -0.379482
Br8   Br    Br    0.038648 0.422838 0.301851 -0.379483
Br9   Br    Br    0.941650 0.477361 0.767835 -0.267352
Br10  Br    Br    0.058351 0.522640 0.232165 -0.267347
Cl13  Cl    Cl    0.867722 0.378013 0.076299 -0.483035
Cl14  Cl    Cl    0.132255 0.622012 0.923704 -0.483031
Br11  Br    Br    0.917743 0.251705 0.080807 -0.227958
Br12  Br    Br    0.082264 0.748328 0.919188 -0.227964

loop_
_geom_bond_atom_site_label_1
_geom_bond_atom_site_label_2
_ccdc_geom_bond_type
C49   O15   A    
C5    C71   S    
C27   C29   A    
C74   H18   S    
C66   C68   A    
C24   O14   A    
C73   H17   S    
C9    C15   S    
C60   Br8   S    
C1    O1    A    
C39   Cl9   S    
C39   C41   A    
C6    C72   S    
C45   C57   A    
O17   Zn4   S    
C74   C76   S    
C55   O7    A    
O1    Zn1   S    
C35   C37   A    
O23   Zn5   S    
C7    C71   S    
O16   Zn4   S    
C54   C68   S    
C76   Cl14  S    
C7    H13   S    
C55   O5    A    
O3    Zn6   S    
C60   C62   A    
C76   Br12  S    
C61   C63   A    
C20   C24   S    
C72   Br4   S    
C41   C55   S    
C62   C64   A    
O12   Zn2   S    
C10   C76   S    
C47   C69   A    
C21   H7    S    
C75   Cl13  S    
C65   C67   A    
C28   Cl6   S    
C51   O21   A    
C31   C33   A    
C14   H22   S    
C6    C74   S    
C9    C75   S    
O5    Zn5   S    
C5    C13   S    
C42   C56   S    
C48   C50   S    
C54   O24   A    
C2    O2    A    
C38   C40   A    
C38   H6    S    
C5    C73   S    
C73   C75   S    
C37   H5    S    
O9    Zn2   S    
C57   C67   A    
C6    C18   S    
C65   H11   S    
C22   C34   A    
C8    C72   S    
C59   C61   A    
O2    Zn2   S    
C74   H20   S    
C24   O12   A    
C56   O6    A    
O14   Zn1   S    
C47   C49   S    
O4    Zn5   S    
C53   O3    A    
C3    C51   S    
C19   C23   S    
O11   Zn1   S    
C62   Br10  S    
O8    Zn5   S    
C45   C63   A    
C27   Cl5   S    
C25   Br5   S    
C46   C64   A    
C50   O16   A    
C22   H8    S    
C4    C16   T    
C45   H9    S    
C43   Cl11  S    
C11   Cl3   S    
C6    C14   S    
C75   Br11  S    
C44   Cl12  S    
O6    Zn6   S    
C60   C70   A    
C43   C65   A    
C29   Cl7   S    
C50   O18   A    
C13   H21   S    
C31   C41   A    
C66   H12   S    
C9    C11   S    
C56   O8    A    
C44   C66   A    
C10   C12   S    
C1    O9    A    
C52   O22   A    
C58   C68   A    
C49   O17   A    
C4    C52   S    
C5    C17   S    
O18   Zn3   S    
C59   C69   A    
C12   Cl4   S    
C8    H14   S    
C73   H19   S    
O10   Zn1   S    
C17   C19   T    
C52   O20   A    
C3    C15   T    
C1    C35   S    
C7    H3    S    
C63   H1    S    
C2    C36   S    
C7    C9    S    
C14   Cl2   S    
C21   C25   A    
C13   Cl1   S    
C12   Br2   S    
O7    Zn6   S    
O13   Zn2   S    
O22   Zn3   S    
C64   H2    S    
C54   O4    A    
C58   C70   A    
C48   C70   A    
C40   C42   A    
C26   Br6   S    
C11   Br1   S    
C71   Br3   S    
C25   C27   A    
C23   O13   A    
C26   C28   A    
C30   Cl8   S    
C40   Cl10  S    
C21   C33   A    
C36   C38   A    
C12   C14   S    
C28   C30   A    
C29   C31   A    
C53   O23   A    
C30   C32   A    
C11   C13   S    
C33   C35   A    
O19   Zn3   S    
C72   H16   S    
O15   Zn3   S    
C2    O10   A    
C51   O19   A    
C34   C36   A    
C18   C20   T    
O24   Zn6   S    
C53   C67   S    
C43   C47   A    
O21   Zn4   S    
C37   C39   A    
C71   H15   S    
C8    C10   S    
C22   C26   A    
C8    H4    S    
C32   C42   A    
C10   C16   S    
O20   Zn4   S    
C57   C69   A    
C61   Br9   S    
C46   C58   A    
C44   C48   A    
C23   O11   A    
C32   C34   A    
C46   H10   S    
C59   Br7   S    
