data_mof_unit_58353.cif
_audit_creation_date              2012-10-26T21:20:09-0400
_audit_creation_method            fapswitch 2.2
_symmetry_space_group_name_H-M    P1
_symmetry_Int_Tables_number       1
_space_group_crystal_system       triclinic
_cell_length_a                    13.002868
_cell_length_b                    10.830341
_cell_length_c                    9.581244
_cell_angle_alpha                 89.402891
_cell_angle_beta                  95.372371
_cell_angle_gamma                 91.942295
_cell_volume                      1342.54891249

loop_
_atom_site_label
_atom_site_type_symbol
_atom_type_description
_atom_site_fract_x
_atom_site_fract_y
_atom_site_fract_z
_atom_type_partial_charge
C1    C     C_R   0.499798 0.262252 0.500352 0.547201
C2    C     C_R   0.699285 0.500329 0.525613 0.545733
C3    C     C_R   0.811894 0.500669 0.540286 0.001138
C4    C     C_R   0.188105 0.499331 0.459714 0.001138
C5    C     C_R   0.026064 0.496669 0.312737 -0.138500
C6    C     C_R   0.973936 0.503331 0.687263 -0.138500
C7    C     C_R   0.133391 0.496915 0.326159 -0.134296
C8    C     C_R   0.866608 0.503085 0.673841 -0.134296
C9    C     C_R   0.134705 0.501462 0.579888 -0.133228
C10   C     C_R   0.865294 0.498538 0.420112 -0.133228
C11   C     C_R   0.027368 0.501199 0.567311 0.048877
C12   C     C_R   0.500201 0.737747 0.499648 0.547201
C13   C     C_R   0.972632 0.498801 0.432689 0.048877
C14   C     C_R   0.500700 0.065148 0.373487 -0.136995
C15   C     C_R   0.499299 0.934852 0.626513 -0.136995
C16   C     C_R   0.500931 0.937406 0.373054 -0.142793
C17   C     C_R   0.499069 0.062594 0.626946 -0.142793
C18   C     C_3   0.356177 0.331590 0.849223 -0.358356
C19   C     C_3   0.643823 0.668410 0.150777 -0.358356
C20   C     C_R   0.500193 0.871703 0.499542 0.020518
C21   C     C_R   0.499806 0.128297 0.500458 0.020518
C22   C     C_R   0.434132 0.423821 0.069116 0.021595
C23   C     C_R   0.565868 0.576179 0.930884 0.021595
C24   C     C_R   0.433352 0.422478 0.921225 0.116778
C25   C     C_R   0.566648 0.577522 0.078775 0.116778
C26   C     C_R   0.300715 0.499671 0.474387 0.545733
Cu1   Cu    Cu3+1 0.500000 0.500020 0.640660 0.924369
Cu2   Cu    Cu3+1 0.500000 0.499980 0.359340 0.924369
H1    H     H_    0.826613 0.504850 0.767981 0.128455
H2    H     H_    0.015026 0.505197 0.791057 0.100134
H3    H     H_    0.501654 0.890426 0.273908 0.127958
H4    H     H_    0.498346 0.109574 0.726092 0.127958
H5    H     H_    0.355723 0.326077 0.735744 0.201260
H6    H     H_    0.371693 0.237353 0.891172 0.084560
H7    H     H_    0.277085 0.355481 0.872033 0.086528
H8    H     H_    0.644277 0.673923 0.264256 0.201260
H9    H     H_    0.722915 0.644519 0.127967 0.086528
H10   H     H_    0.628306 0.762647 0.108828 0.084560
H11   H     H_    0.173387 0.495150 0.232019 0.128455
H12   H     H_    0.501263 0.114146 0.274402 0.129392
H13   H     H_    0.498736 0.885854 0.725598 0.129392
H14   H     H_    0.381784 0.363044 0.121355 0.113065
H15   H     H_    0.618215 0.636956 0.878645 0.113065
H16   H     H_    0.823615 0.496501 0.316647 0.120941
H17   H     H_    0.176385 0.503498 0.683353 0.120941
H18   H     H_    0.984974 0.494803 0.208943 0.100134
N1    N     N_R   0.500030 0.500030 0.852080 -0.225880
N2    N     N_R   0.499970 0.499970 0.147920 -0.225880
O1    O     O_R   0.499990 0.319660 0.618740 -0.518022
O2    O     O_R   0.500010 0.680340 0.381260 -0.518022
O3    O     O_R   0.499990 0.319630 0.381170 -0.507203
O4    O     O_R   0.500010 0.680370 0.618830 -0.507203
O5    O     O_R   0.349000 0.499990 0.599490 -0.517563
O6    O     O_R   0.651000 0.500010 0.400510 -0.517563
O7    O     O_R   0.348990 0.499960 0.361920 -0.505666
O8    O     O_R   0.651010 0.500040 0.638080 -0.505667

loop_
_geom_bond_atom_site_label_1
_geom_bond_atom_site_label_2
_ccdc_geom_bond_type
C4    C26   S    
Cu1   O5    S    
C1    C21   S    
C19   H10   S    
C11   C13   A    
C5    H18   S    
C5    C13   A    
C1    O3    A    
C16   C20   A    
C26   O7    A    
C12   C20   S    
C2    C3    S    
C14   H12   S    
C3    C10   A    
C2    O8    A    
C16   H3    S    
C9    H17   S    
C9    C11   A    
C25   N2    A    
C22   H14   S    
Cu2   O2    S    
C18   H6    S    
C4    C7    A    
C18   C24   S    
C8    H1    S    
C6    C8    A    
C14   C21   A    
C18   H5    S    
Cu2   O7    S    
C22   N2    A    
C22   C24   A    
C19   H8    S    
C23   C25   A    
C2    O6    A    
C15   C20   A    
C19   C25   S    
Cu2   O3    S    
C14   C16   A    
C23   N1    A    
C10   H16   S    
C26   O5    A    
C6    C11   A    
C23   H15   S    
Cu1   O4    S    
C15   H13   S    
C15   C17   A    
C3    C8    A    
C18   H7    S    
Cu1   N1    S    
Cu1   Cu2   S    
C5    C7    A    
C17   H4    S    
Cu2   O6    S    
Cu1   O8    S    
Cu2   N2    S    
C7    H11   S    
C19   H9    S    
C12   O4    A    
C4    C9    A    
C24   N1    A    
C1    O1    A    
C6    H2    S    
C17   C21   A    
Cu1   O1    S    
C12   O2    A    
C10   C13   A    
