data_mof_unit_46255.cif
_audit_creation_date              2012-12-11T16:51:30-0500
_audit_creation_method            fapswitch 2.2
_symmetry_space_group_name_H-M    P1
_symmetry_Int_Tables_number       1
_space_group_crystal_system       triclinic
_cell_length_a                    24.360754
_cell_length_b                    17.192709
_cell_length_c                    15.559227
_cell_angle_alpha                 89.763268
_cell_angle_beta                  128.669297
_cell_angle_gamma                 90.311555
_cell_volume                      5087.88129637

loop_
_atom_site_label
_atom_site_type_symbol
_atom_type_description
_atom_site_fract_x
_atom_site_fract_y
_atom_site_fract_z
_atom_type_partial_charge
C1    C     C_R   0.833555 0.891393 0.200104 -0.130205
C2    C     C_R   0.184785 0.116785 0.500202 0.006238
C3    C     C_R   0.356274 0.684596 0.497702 0.044090
C4    C     C_R   0.684785 0.616785 0.500202 0.006237
C5    C     C_R   0.869057 0.163321 0.172080 -0.084551
C6    C     C_R   0.130941 0.166355 0.823259 -0.098652
C7    C     C_R   0.369057 0.663321 0.172080 -0.084551
C8    C     C_R   0.630941 0.666355 0.823259 -0.098653
C9    C     C_R   0.854298 0.706421 0.603940 0.165904
C10   C     C_R   0.222763 0.838835 0.393881 0.161308
C11   C     C_R   0.354298 0.206421 0.603941 0.165902
C12   C     C_R   0.166326 0.889804 0.798095 -0.120315
C13   C     C_R   0.722763 0.338835 0.393881 0.161308
C14   C     C_R   0.835838 0.735920 0.504910 0.035464
C15   C     C_R   0.238221 0.860715 0.493444 0.032260
C16   C     C_R   0.335838 0.235920 0.504910 0.035463
C17   C     C_R   0.738221 0.360715 0.493444 0.032261
C18   C     C_R   0.781612 0.697911 0.406666 -0.190638
C19   C     C_R   0.307336 0.849727 0.590990 -0.194120
C20   C     C_R   0.281612 0.197910 0.406666 -0.190638
C21   C     C_R   0.807336 0.349727 0.590990 -0.194120
C22   C     C_R   0.235595 0.148085 0.405796 -0.193163
C23   C     C_R   0.333555 0.391393 0.200104 -0.130204
C24   C     C_R   0.851953 0.298964 0.590917 -0.198441
C25   C     C_R   0.735595 0.648085 0.405796 -0.193164
C26   C     C_R   0.351953 0.798964 0.590917 -0.198440
C27   C     C_R   0.244567 0.136024 0.503428 0.038851
C28   C     C_R   0.826879 0.259521 0.493460 0.043193
C29   C     C_R   0.744567 0.636024 0.503428 0.038852
C30   C     C_R   0.326879 0.759521 0.493460 0.043194
C31   C     C_R   0.309332 0.156772 0.603150 0.143821
C32   C     C_R   0.766482 0.288437 0.393808 0.149060
C33   C     C_R   0.809332 0.656772 0.603149 0.143822
C34   C     C_R   0.666326 0.389803 0.798095 -0.120316
C35   C     C_R   0.266481 0.788436 0.393808 0.149060
C36   C     C_3   0.826753 0.691979 0.705521 -0.475678
C37   C     C_3   0.205605 0.747921 0.292323 -0.495879
C38   C     C_3   0.326753 0.191979 0.705522 -0.475674
C39   C     C_3   0.705605 0.247922 0.292323 -0.495878
C40   C     C_R   0.113569 0.897309 0.407131 -0.146874
C41   C     C_R   0.913991 0.854906 0.592577 -0.131243
C42   C     C_R   0.613569 0.397309 0.407131 -0.146873
C43   C     C_R   0.413991 0.354906 0.592577 -0.131244
C44   C     C_3   0.875544 0.746484 0.706138 -0.533717
C45   C     C_R   0.906699 0.141539 0.590178 -0.107365
C46   C     C_3   0.157997 0.803250 0.292352 -0.523856
C47   C     C_3   0.375544 0.246484 0.706139 -0.533712
C48   C     C_3   0.657997 0.303250 0.292351 -0.523855
C49   C     C_2   0.191310 0.841816 0.973529 -0.176934
C50   C     C_2   0.809525 0.842739 0.026097 -0.173597
C51   C     C_2   0.691310 0.341816 0.973528 -0.176933
C52   C     C_2   0.309525 0.342738 0.026097 -0.173597
C53   C     C_2   0.260726 0.840084 0.029734 -0.148826
C54   C     C_2   0.739849 0.843140 0.968084 -0.154478
C55   C     C_2   0.760726 0.340084 0.029734 -0.148827
C56   C     C_R   0.116231 0.101794 0.408918 -0.035400
C57   C     C_2   0.239849 0.343140 0.968084 -0.154477
C58   C     C_2   0.840275 0.232919 0.104120 -0.157003
C59   C     C_2   0.160742 0.234910 0.893454 -0.167305
C60   C     C_2   0.340275 0.732919 0.104120 -0.157001
C61   C     C_2   0.660742 0.734910 0.893454 -0.167305
C62   C     C_2   0.800557 0.280479 0.112314 -0.055944
C63   C     C_2   0.198744 0.284992 0.883704 -0.054144
C64   C     C_2   0.300557 0.780479 0.112314 -0.055945
C65   C     C_2   0.698744 0.784993 0.883704 -0.054143
C66   C     C_R   0.187605 0.895565 0.590154 -0.121566
C67   C     C_R   0.406699 0.641539 0.590178 -0.107365
C68   C     C_R   0.837339 0.855948 0.408964 -0.121108
C69   C     C_R   0.687605 0.395565 0.590154 -0.121566
C70   C     C_R   0.337339 0.355948 0.408964 -0.121108
C71   C     C_R   0.076150 0.892397 0.801873 -0.143567
C72   C     C_R   0.925362 0.890756 0.200200 -0.134799
C73   C     C_R   0.576150 0.392397 0.801873 -0.143568
C74   C     C_R   0.425362 0.390755 0.200200 -0.134798
C75   C     C_R   0.854947 0.871492 0.138960 0.141846
C76   C     C_R   0.145873 0.871412 0.861108 0.142689
C77   C     C_R   0.354947 0.371492 0.138960 0.141845
C78   C     C_R   0.616230 0.601794 0.408918 -0.035398
C79   C     C_R   0.645873 0.371412 0.861107 0.142689
C80   C     C_R   0.181736 0.880458 0.497329 0.072472
C81   C     C_R   0.862151 0.811636 0.501749 0.065536
C82   C     C_R   0.681736 0.380458 0.497329 0.072472
C83   C     C_R   0.362151 0.311636 0.501749 0.065536
C84   C     C_R   0.836254 0.142066 0.407756 -0.186180
C85   C     C_R   0.189132 0.099980 0.590542 -0.117081
C86   C     C_R   0.336254 0.642066 0.407756 -0.186180
C87   C     C_R   0.689132 0.599980 0.590542 -0.117080
C88   C     C_R   0.934012 0.129458 0.221335 0.443286
C89   C     C_R   0.856274 0.184596 0.497702 0.044090
C90   C     C_R   0.069238 0.126767 0.783492 0.414067
C91   C     C_R   0.434012 0.629458 0.221335 0.443286
C92   C     C_R   0.569238 0.626767 0.783492 0.414067
C93   C     C_R   0.157928 0.129947 0.778135 0.440011
C94   C     C_R   0.839903 0.123869 0.212390 0.405108
C95   C     C_R   0.657928 0.629947 0.778135 0.440011
C96   C     C_R   0.339903 0.623869 0.212390 0.405108
H1    H     H_    0.188932 0.128011 0.327193 0.130754
H2    H     H_    0.198316 0.686818 0.307334 0.205919
H3    H     H_    0.354955 0.150685 0.776011 0.197517
H4    H     H_    0.698316 0.186818 0.307333 0.205919
H5    H     H_    0.857625 0.807891 0.692252 0.205330
H6    H     H_    0.130221 0.843960 0.221187 0.193796
H7    H     H_    0.357625 0.307892 0.692252 0.205329
H8    H     H_    0.630221 0.343960 0.221187 0.193796
H9    H     H_    0.789406 0.268349 0.168697 0.150266
H10   H     H_    0.207688 0.276212 0.824200 0.172095
H11   H     H_    0.289405 0.768348 0.168696 0.150266
H12   H     H_    0.901544 0.283689 0.668927 0.131624
H13   H     H_    0.707688 0.776212 0.824200 0.172095
H14   H     H_    0.285537 0.869333 0.000002 0.130418
H15   H     H_    0.714997 0.872907 0.996945 0.135811
H16   H     H_    0.785537 0.369333 0.000002 0.130418
H17   H     H_    0.214997 0.372907 0.996945 0.135811
H18   H     H_    0.167172 0.811585 0.003980 0.139472
H19   H     H_    0.833467 0.811707 0.996307 0.148234
H20   H     H_    0.667172 0.311585 0.003979 0.139472
H21   H     H_    0.333467 0.311707 0.996308 0.148234
H22   H     H_    0.093568 0.905374 0.323232 0.105106
H23   H     H_    0.688932 0.628011 0.327193 0.130754
H24   H     H_    0.946652 0.837614 0.677540 0.109432
H25   H     H_    0.593568 0.405374 0.323232 0.105105
H26   H     H_    0.446652 0.337614 0.677540 0.109432
H27   H     H_    0.235421 0.899048 0.674220 0.082656
H28   H     H_    0.796669 0.840381 0.324101 0.094731
H29   H     H_    0.735421 0.399048 0.674220 0.082656
H30   H     H_    0.296669 0.340380 0.324101 0.094731
H31   H     H_    0.047341 0.895425 0.833526 0.108906
H32   H     H_    0.955913 0.891718 0.171444 0.102538
H33   H     H_    0.547341 0.395425 0.833526 0.108906
H34   H     H_    0.401544 0.783689 0.668927 0.131624
H35   H     H_    0.455914 0.391717 0.171445 0.102538
H36   H     H_    0.798975 0.159175 0.324005 0.153633
H37   H     H_    0.237196 0.088388 0.671426 0.116620
H38   H     H_    0.298975 0.659175 0.324005 0.153633
H39   H     H_    0.737197 0.588388 0.671426 0.116620
H40   H     H_    0.929921 0.156358 0.673255 0.168732
H41   H     H_    0.098132 0.094640 0.326043 0.149201
H42   H     H_    0.429921 0.656358 0.673255 0.168732
H43   H     H_    0.598132 0.594640 0.326043 0.149201
H44   H     H_    0.768782 0.714002 0.328713 0.130010
H45   H     H_    0.781811 0.722868 0.691657 0.215015
H46   H     H_    0.324045 0.871390 0.669211 0.125268
H47   H     H_    0.268782 0.214002 0.328713 0.130010
H48   H     H_    0.824044 0.371390 0.669211 0.125268
H49   H     H_    0.780565 0.893222 0.172980 0.085993
H50   H     H_    0.218618 0.889042 0.822213 0.084856
H51   H     H_    0.280565 0.393221 0.172980 0.085993
H52   H     H_    0.718618 0.389042 0.822213 0.084857
H53   H     H_    0.931801 0.736840 0.777293 0.197518
H54   H     H_    0.124026 0.773107 0.307073 0.206927
H55   H     H_    0.431802 0.236840 0.777294 0.197517
H56   H     H_    0.204893 0.756560 0.220763 0.200984
H57   H     H_    0.624026 0.273107 0.307073 0.206927
H58   H     H_    0.850623 0.245191 0.046837 0.117856
H59   H     H_    0.152657 0.244488 0.953812 0.117562
H60   H     H_    0.350624 0.745191 0.046838 0.117855
H61   H     H_    0.652657 0.744488 0.953813 0.117561
H62   H     H_    0.957633 0.182537 0.139017 0.311792
H63   H     H_    0.060949 0.161785 0.892570 0.309997
H64   H     H_    0.457633 0.682537 0.139017 0.311792
H65   H     H_    0.560949 0.661785 0.892570 0.309997
H66   H     H_    0.238320 0.079265 0.810772 0.300011
H67   H     H_    0.281811 0.222868 0.691658 0.215014
H68   H     H_    0.761954 0.071073 0.188760 0.307403
H69   H     H_    0.738321 0.579266 0.810772 0.300011
H70   H     H_    0.261954 0.571073 0.188760 0.307403
H71   H     H_    0.704894 0.256561 0.220763 0.200983
H72   H     H_    0.854954 0.650685 0.776010 0.197518
N1    N     N_R   0.888400 0.921830 0.294620 -0.049420
N2    N     N_R   0.874350 0.922400 0.443380 -0.043772
N3    N     N_R   0.625650 0.422400 0.556620 -0.041386
N4    N     N_R   0.374350 0.422400 0.443380 -0.043772
N5    N     N_R   0.054230 0.922730 0.705400 -0.041057
N6    N     N_R   0.945770 0.922730 0.294600 -0.042721
N7    N     N_R   0.554230 0.422730 0.705400 -0.041057
N8    N     N_R   0.445770 0.422730 0.294600 -0.042721
N9    N     N_R   0.873790 0.077030 0.443380 -0.047702
N10   N     N_R   0.126210 0.077030 0.556620 -0.054227
N11   N     N_R   0.373790 0.577030 0.443380 -0.047702
N12   N     N_R   0.111600 0.921830 0.705380 -0.050626
N13   N     N_R   0.626210 0.577030 0.556620 -0.054227
N14   N     N_R   0.945200 0.076700 0.294600 -0.095523
N15   N     N_R   0.054800 0.076700 0.705400 -0.092061
N16   N     N_R   0.445200 0.576700 0.294600 -0.095523
N17   N     N_R   0.554800 0.576700 0.705400 -0.092061
N18   N     N_R   0.111030 0.077600 0.705380 -0.133719
N19   N     N_R   0.888970 0.077600 0.294620 -0.132342
N20   N     N_R   0.611030 0.577600 0.705380 -0.133719
N21   N     N_R   0.388970 0.577600 0.294620 -0.132342
N22   N     N_R   0.919490 0.077280 0.556590 -0.034181
N23   N     N_R   0.388400 0.421830 0.294620 -0.049420
N24   N     N_R   0.080510 0.077280 0.443410 -0.041266
N25   N     N_R   0.419490 0.577280 0.556590 -0.034181
N26   N     N_R   0.580510 0.577280 0.443410 -0.041266
N27   N     N_R   0.611600 0.421830 0.705380 -0.050626
N28   N     N_R   0.079940 0.922160 0.443410 -0.038408
N29   N     N_R   0.920060 0.922160 0.556590 -0.037608
N30   N     N_R   0.579940 0.422160 0.443410 -0.038408
N31   N     N_R   0.420060 0.422160 0.556590 -0.037608
N32   N     N_R   0.125650 0.922400 0.556620 -0.041386
Ni1   Ni    Ni4+2 0.882160 0.999430 0.370180 0.194137
Ni2   Ni    Ni4+2 0.117840 0.999430 0.629820 0.185554
Ni3   Ni    Ni4+2 0.382160 0.499430 0.370180 0.194137
Ni4   Ni    Ni4+2 0.617840 0.499430 0.629820 0.185554
Ni5   Ni    Ni4+2 0.012460 0.999430 0.370180 0.229177
Ni6   Ni    Ni4+2 0.987540 0.999430 0.629820 0.248887
Ni7   Ni    Ni4+2 0.512460 0.499430 0.370180 0.229177
Ni8   Ni    Ni4+2 0.487540 0.499430 0.629820 0.248887
O1    O     O_3   0.978805 0.142378 0.197307 -0.783837
O2    O     O_3   0.037534 0.123445 0.831892 -0.778946
O3    O     O_3   0.478805 0.642378 0.197307 -0.783837
O4    O     O_3   0.537534 0.623445 0.831892 -0.778946
O5    O     O_3   0.227478 0.131631 0.822715 -0.769433
O6    O     O_3   0.768728 0.116450 0.156630 -0.766082
O7    O     O_3   0.727477 0.631631 0.822714 -0.769434
O8    O     O_3   0.268728 0.616450 0.156630 -0.766082

loop_
_geom_bond_atom_site_label_1
_geom_bond_atom_site_label_2
_ccdc_geom_bond_type
C34   N27   A    
C58   C62   D    
C40   H22   S    
C48   H57   S    
C56   N24   A    
C85   H37   S    
C55   H16   S    
C3    C30   S    
C43   C83   A    
N24   Ni5   S    
C14   C18   A    
C13   C32   A    
C1    H49   S    
C42   C82   A    
N28   N32   A    
C78   H43   S    
C68   H28   S    
C23   N23   A    
C5    C94   A    
C62   H9    S    
N21   Ni3   S    
C15   C19   A    
N26   Ni7   S    
C8    C95   A    
C50   C54   D    
H63   O2    S    
C5    C58   S    
C2    C85   A    
C68   C81   A    
N8    Ni7   S    
C35   C37   S    
C17   C82   S    
N3    N30   A    
N12   Ni2   S    
C10   C15   A    
C78   N26   A    
C71   C76   A    
C53   C64   S    
C69   H29   S    
C48   H8    S    
C55   C62   S    
C29   C33   A    
C36   H72   S    
C33   C36   S    
C95   O7    S    
N18   Ni2   S    
N4    N31   A    
C50   H19   S    
C69   N3    A    
C32   C39   S    
C12   H50   S    
N3    Ni4   S    
C19   C26   A    
C67   H42   S    
C70   N4    A    
C86   N11   A    
N2    Ni1   S    
C69   C82   A    
C58   H58   S    
C5    C88   A    
C11   C47   S    
N22   Ni6   S    
C53   H14   S    
C85   N10   A    
C9    C44   S    
C74   C77   A    
C10   C46   S    
N6    Ni5   S    
C34   H52   S    
N1    N6    A    
C40   C80   A    
C10   C35   A    
C24   H12   S    
C72   N6    A    
C45   C89   A    
C74   H35   S    
C4    C29   S    
C26   H34   S    
C8    C61   S    
C52   H21   S    
C70   H30   S    
H62   O1    S    
C49   H18   S    
C11   C31   A    
C28   C89   S    
N25   Ni8   S    
C91   N16   A    
C3    C86   A    
C9    C33   A    
C20   H47   S    
C71   H31   S    
N29   Ni6   S    
N28   Ni5   S    
C18   C25   A    
N23   Ni3   S    
N7    Ni8   S    
C72   C75   A    
C25   H23   S    
N7    N27   A    
C37   H2    S    
C86   H38   S    
C95   N20   A    
C57   C63   S    
C25   C29   A    
H65   O4    S    
C73   H33   S    
C94   O6    S    
C47   H7    S    
C27   C31   A    
C1    C75   A    
C87   H39   S    
C42   N30   A    
C94   N19   A    
C91   O3    S    
N15   N18   A    
C68   N2    A    
C54   C65   S    
C59   H59   S    
C92   N17   A    
N17   N20   A    
C57   H17   S    
N27   Ni4   S    
N5    N12   A    
H68   O6    S    
C6    C90   A    
C93   O5    S    
N20   Ni4   S    
C16   C83   S    
C17   C21   A    
N11   N25   A    
C71   N5    A    
C4    C87   A    
C96   N21   A    
C73   N7    A    
N4    Ni3   S    
C9    C14   A    
C60   H60   S    
C74   N8    A    
C70   C83   A    
C44   H53   S    
C61   H61   S    
C34   C79   A    
N10   N24   A    
C11   C16   A    
C88   N14   A    
C15   C80   S    
C28   C32   A    
C16   C20   A    
C6    C93   A    
C41   C81   A    
C73   C79   A    
C49   C76   S    
N17   Ni8   S    
C63   H10   S    
C18   H44   S    
N13   N26   A    
N16   Ni7   S    
C43   H26   S    
C65   H13   S    
C38   C47   S    
C2    C27   S    
C8    C92   A    
C30   C35   A    
C41   N29   A    
C38   H67   S    
C46   H54   S    
C72   H32   S    
C26   C30   A    
C19   H46   S    
C88   O1    S    
N10   Ni2   S    
C22   C27   A    
N5    Ni6   S    
N9    Ni1   S    
C36   C44   S    
N13   Ni4   S    
C84   C89   A    
C20   C22   A    
C37   H56   S    
C52   C77   S    
C7    C60   S    
C64   H11   S    
H69   O7    S    
C40   N28   A    
C36   H45   S    
C23   C77   A    
C45   H40   S    
N9    N22   A    
C12   N12   A    
N30   Ni7   S    
N16   N21   A    
N11   Ni3   S    
C3    C67   A    
C24   C28   A    
C21   H48   S    
C47   H55   S    
C38   H3    S    
N8    N23   A    
C87   N13   A    
C13   C48   S    
C44   H5    S    
C4    C78   A    
C66   C80   A    
H64   O3    S    
N19   Ni1   S    
C59   C63   D    
C51   H20   S    
C96   O8    S    
C31   C38   S    
C13   C17   A    
C60   C64   D    
N14   Ni5   S    
C12   C76   A    
C2    C56   A    
C50   C75   S    
C93   N18   A    
C7    C91   A    
C56   H41   S    
C39   H4    S    
C23   H51   S    
C49   C53   D    
C6    C59   S    
C1    N1    A    
N31   Ni8   S    
C84   H36   S    
C54   H15   S    
C51   C55   D    
N14   N19   A    
C41   H24   S    
C39   H71   S    
C84   N9    A    
C51   C79   S    
C92   O4    S    
C52   C57   D    
N1    Ni1   S    
C61   C65   D    
C45   N22   A    
C90   N15   A    
N32   Ni2   S    
C90   O2    S    
C21   C24   A    
C7    C96   A    
C22   H1    S    
N15   Ni6   S    
C66   H27   S    
C43   N31   A    
C14   C81   S    
C37   C46   S    
C67   N25   A    
N2    N29   A    
C66   N32   A    
C42   H25   S    
H70   O8    S    
C39   C48   S    
C46   H6    S    
H66   O5    S    
