data_mof_unit_68096.cif
_audit_creation_date              2012-12-11T15:55:45-0500
_audit_creation_method            fapswitch 2.2
_symmetry_space_group_name_H-M    P1
_symmetry_Int_Tables_number       1
_space_group_crystal_system       triclinic
_cell_length_a                    6.99847
_cell_length_b                    14.795709
_cell_length_c                    16.070971
_cell_angle_alpha                 90.032633
_cell_angle_beta                  90.532441
_cell_angle_gamma                 89.376166
_cell_volume                      1663.93539795

loop_
_atom_site_label
_atom_site_type_symbol
_atom_type_description
_atom_site_fract_x
_atom_site_fract_y
_atom_site_fract_z
_atom_type_partial_charge
O1    O     O_R   0.505680 0.583900 0.413320 -0.527553
O2    O     O_R   0.176010 0.594950 0.586080 -0.513513
O3    O     O_R   0.005680 0.416100 0.586680 -0.521920
C1    C     C_R   0.346647 0.619882 0.612687 0.767251
O4    O     O_R   0.175960 0.594930 0.413930 -0.528194
O5    O     O_R   0.005640 0.416080 0.413300 -0.508348
C2    C     C_R   0.344833 0.618314 0.385773 0.796360
O6    O     O_R   0.505720 0.583920 0.586700 -0.546978
O7    O     O_3   0.339190 0.441320 0.500000 -0.346987
V1    V     V_3+5 0.064350 0.510890 0.500000 1.601511
O8    O     O_R   0.675920 0.405050 0.413920 -0.533154
C3    C     C_R   0.845276 0.379716 0.387918 0.753889
O9    O     O_R   0.675960 0.405070 0.586070 -0.526929
C4    C     C_R   0.846466 0.381509 0.613401 0.748078
V2    V     V_3+5 0.564340 0.489110 0.500000 1.576283
O10   O     O_3   0.839370 0.558680 0.500000 -0.379089
C5    C     C_R   0.992698 0.318074 0.746271 -0.256757
C6    C     C_R   0.857899 0.312291 0.681153 -0.249004
C7    C     C_R   0.724218 0.241465 0.685967 0.548081
C8    C     C_R   0.726868 0.179977 0.753668 0.536950
C9    C     C_R   0.869746 0.183773 0.816021 -0.251083
C10   C     C_R   0.999179 0.253651 0.810058 -0.234794
C11   C     C_3   0.208320 0.244968 0.808811 1.049249
C12   C     C_3   0.206663 0.319437 0.742787 0.853720
C13   C     C_R   0.039530 0.220048 0.221096 -0.339540
H1    H     H_    0.177264 0.200580 0.197744 0.230347
C14   C     C_R   0.029449 0.284902 0.284535 0.589352
C15   C     C_R   0.855238 0.307517 0.321953 -0.324894
C16   C     C_R   0.690133 0.263561 0.291935 0.286816
C17   C     C_R   0.695400 0.214778 0.216451 0.363967
C18   C     C_R   0.873963 0.185085 0.184196 -0.304276
C19   C     C_R   0.202593 0.741481 0.703737 0.567475
C20   C     C_R   0.210367 0.800373 0.772271 -0.338668
H2    H     H_    0.080888 0.831798 0.794303 0.204592
C21   C     C_R   0.384657 0.823171 0.809287 -0.290113
C22   C     C_R   0.552265 0.791823 0.769450 0.339998
C23   C     C_R   0.542460 0.719932 0.711686 0.296888
C24   C     C_R   0.363870 0.692996 0.677903 -0.326246
C25   C     C_R   0.202595 0.746512 0.298997 0.238727
C26   C     C_R   0.213341 0.805797 0.229662 0.445627
C27   C     C_R   0.379326 0.810708 0.180614 -0.350048
C28   C     C_R   0.533816 0.750737 0.197785 0.265537
C29   C     C_R   0.527815 0.693157 0.268822 0.280796
C30   C     C_R   0.357340 0.686922 0.316180 -0.320122
O11   O     O_R   0.229200 0.915950 0.913350 -0.552432
O12   O     O_R   0.559090 0.905000 0.086080 -0.520928
O13   O     O_R   0.729280 0.083880 0.086680 -0.530230
C31   C     C_R   0.390584 0.881203 0.113489 0.785369
O14   O     O_R   0.558920 0.904980 0.913920 -0.540124
O15   O     O_R   0.729110 0.083860 0.913300 -0.522555
C32   C     C_R   0.390971 0.885983 0.882710 0.755523
O16   O     O_R   0.229360 0.915970 0.086730 -0.510181
O17   O     O_3   0.395680 0.058580 0.000030 -0.367994
V3    V     V_3+5 0.670570 0.989070 0.999990 1.547554
O18   O     O_R   0.058820 0.094950 0.913870 -0.506386
C33   C     C_R   0.887880 0.115608 0.884288 0.778936
O19   O     O_R   0.058990 0.094970 0.086020 -0.545524
C34   C     C_R   0.888958 0.117432 0.114582 0.770691
V4    V     V_3+5 0.170560 0.010930 0.999930 1.557411
O20   O     O_3   0.895590 0.941310 0.999960 -0.384980
F1    F     F_    0.599081 0.227867 0.622384 -0.625446
O21   O     O_3   0.523191 0.193582 0.178422 -0.563565
C35   C     C_3   0.495177 0.246308 0.105174 0.149148
H3    H     H_    0.388731 0.210832 0.065973 0.198086
H4    H     H_    0.626242 0.249802 0.066660 0.067082
C36   C     C_3   0.421127 0.342915 0.123417 -0.378726
H5    H     H_    0.396932 0.353282 0.190592 0.292918
H6    H     H_    0.529895 0.391730 0.103841 0.183176
C37   C     C_3   0.239397 0.367478 0.074972 -0.792262
H7    H     H_    0.258940 0.354532 0.008096 0.285587
H8    H     H_    0.207266 0.440520 0.083126 0.217532
H9    H     H_    0.116502 0.327577 0.096146 0.246383
F2    F     F_    0.040258 0.735911 0.658817 -0.669625
O22   O     O_3   0.726794 0.832528 0.783470 -0.576309
C38   C     C_3   0.728748 0.919046 0.745153 0.143069
H10   H     H_    0.815516 0.964018 0.785288 0.141960
H11   H     H_    0.584218 0.950832 0.739007 0.179214
C39   C     C_3   0.821786 0.914775 0.659416 -0.316267
H12   H     H_    0.972657 0.893363 0.665906 0.246977
H13   H     H_    0.744623 0.865336 0.620126 0.235370
C40   C     C_3   0.821342 0.006601 0.616514 -0.766227
H14   H     H_    0.673208 0.032964 0.609352 0.282629
H15   H     H_    0.886273 0.000054 0.554055 0.222332
H16   H     H_    0.908401 0.054997 0.653062 0.251206
O23   O     O_3   0.710649 0.687507 0.678824 -0.508490
C41   C     C_3   0.769465 0.607950 0.720881 0.295730
H17   H     H_    0.874554 0.572799 0.680620 0.161156
H18   H     H_    0.649828 0.560982 0.728465 0.004446
C42   C     C_3   0.860140 0.627593 0.806095 -0.356153
H19   H     H_    0.921770 0.695422 0.808057 0.261973
H20   H     H_    0.746828 0.627000 0.853316 0.154238
C43   C     C_3   0.017527 0.559518 0.827963 -0.807252
H21   H     H_    0.970153 0.490377 0.813275 0.248624
H22   H     H_    0.055134 0.563539 0.895010 0.224680
H23   H     H_    0.147186 0.573729 0.791218 0.245367
O24   O     O_3   0.044328 0.741390 0.351209 -0.553487
C44   C     C_3   0.938177 0.822472 0.359905 0.212014
H24   H     H_    0.837569 0.829389 0.306420 0.223160
H25   H     H_    0.032386 0.882574 0.364778 0.103947
C45   C     C_3   0.818273 0.817176 0.438759 -0.294492
H26   H     H_    0.757277 0.748557 0.445330 0.256775
H27   H     H_    0.911437 0.829872 0.493744 0.207860
C46   C     C_3   0.653882 0.885891 0.436209 -0.888552
H28   H     H_    0.710247 0.955282 0.429198 0.240418
H29   H     H_    0.570305 0.882076 0.494387 0.246326
H30   H     H_    0.555927 0.871325 0.383183 0.237004
F3    F     F_    0.060839 0.858508 0.208472 -0.687797
O25   O     O_3   0.694056 0.750834 0.147544 -0.522200
C47   C     C_3   0.653522 0.703465 0.072513 0.177721
H31   H     H_    0.580196 0.748400 0.026755 0.098249
H32   H     H_    0.557222 0.645101 0.082142 0.027704
C48   C     C_3   0.838401 0.666733 0.033831 -0.376850
H33   H     H_    0.930104 0.632353 0.080296 0.185297
H34   H     H_    0.800803 0.615292 0.986868 0.155150
C49   C     C_3   0.956626 0.740274 0.994024 -0.631109
H35   H     H_    0.871670 0.776480 0.945588 0.231357
H36   H     H_    0.085240 0.710083 0.964616 0.167230
H37   H     H_    0.005077 0.787676 0.042911 0.280174
O26   O     O_3   0.693693 0.659269 0.306236 -0.547658
C50   C     C_3   0.810618 0.603725 0.256420 0.212205
H38   H     H_    0.924464 0.577364 0.298501 0.150917
H39   H     H_    0.889678 0.643346 0.210800 0.160633
C51   C     C_3   0.711055 0.520571 0.220134 -0.405349
H40   H     H_    0.648222 0.481047 0.271291 0.217628
H41   H     H_    0.592024 0.539833 0.177844 0.181407
C52   C     C_3   0.855701 0.461890 0.173283 -0.885009
H42   H     H_    0.875310 0.487583 0.109389 0.227639
H43   H     H_    0.805878 0.391646 0.168273 0.231472
H44   H     H_    0.996106 0.459929 0.206023 0.257077
F4    F     F_    0.599507 0.112216 0.754183 -0.638166
F5    F     F_    0.265188 0.161638 0.778546 -0.613049
F6    F     F_    0.286743 0.265026 0.885654 -0.753794
F7    F     F_    0.274426 0.293369 0.665734 -0.618244
O27   O     O_3   0.275095 0.404192 0.769110 -0.610837
C53   C     C_3   0.468817 0.399223 0.794337 0.121287
H45   H     H_    0.557608 0.426745 0.744419 0.105747
H46   H     H_    0.524585 0.329604 0.804314 0.140955
C54   C     C_3   0.492545 0.454018 0.874558 -0.295729
H47   H     H_    0.516888 0.525719 0.859272 0.152195
H48   H     H_    0.358313 0.452639 0.910594 0.226135
C55   C     C_3   0.653854 0.416891 0.929604 -0.810458
H49   H     H_    0.616262 0.348806 0.952488 0.257304
H50   H     H_    0.676077 0.462350 0.983572 0.216752
H51   H     H_    0.788468 0.410488 0.894734 0.237556
F8    F     F_    0.189139 0.328917 0.306940 -0.664182
O28   O     O_3   0.517561 0.274851 0.331096 -0.516204
C56   C     C_3   0.506513 0.216077 0.400401 0.260802
H52   H     H_    0.410912 0.249267 0.446323 0.203837
H53   H     H_    0.646329 0.204942 0.433059 0.070776
C57   C     C_3   0.420077 0.125293 0.374681 -0.357690
H54   H     H_    0.298666 0.136811 0.331082 0.235325
H55   H     H_    0.529791 0.083786 0.342262 0.184465
C58   C     C_3   0.347031 0.073460 0.449809 -0.780652
H56   H     H_    0.464126 0.062447 0.495711 0.256918
H57   H     H_    0.291972 0.006827 0.429432 0.222845
H58   H     H_    0.228941 0.111674 0.479966 0.253253

loop_
_geom_bond_atom_site_label_1
_geom_bond_atom_site_label_2
_ccdc_geom_bond_type
C12   F7    S    
C13   C18   A    
C53   C54   S    
C36   H6    S    
O18   C33   A    
C35   H4    S    
C52   H42   S    
O18   V4    S    
C27   C28   A    
C4    C6    S    
C21   C22   A    
C1    O6    A    
C44   C45   S    
C48   H34   S    
C40   H14   S    
O17   V4    S    
C51   H40   S    
V3    O20   S    
O17   V3    S    
C16   C17   A    
C3    C15   S    
C18   C34   S    
C23   O23   S    
C15   C16   A    
C56   H53   S    
C55   H50   S    
O5    C3    A    
C17   C18   A    
C39   H13   S    
O19   V4    S    
C36   C37   S    
O11   C32   A    
V2    O10   S    
O25   C47   S    
C6    C7    A    
C37   H8    S    
C45   H26   S    
C56   H52   S    
C44   H25   S    
O8    V2    S    
C7    C8    A    
O14   C32   A    
C57   C58   S    
C11   C12   S    
O1    V2    S    
C19   C24   A    
C58   H57   S    
O7    V1    S    
C50   C51   S    
C36   H5    S    
C35   C36   S    
V4    O20   S    
O14   V3    S    
O9    C4    A    
C55   H49   S    
C43   H22   S    
C48   H33   S    
C40   H15   S    
C50   H39   S    
C44   H24   S    
C10   C11   S    
O12   C31   A    
C5    C12   S    
O22   C38   S    
C53   H45   S    
C56   C57   S    
C55   H51   S    
C42   H19   S    
C19   F2    S    
O4    C2    A    
C41   H17   S    
C51   C52   S    
C52   H44   S    
C49   H36   S    
C13   H1    S    
O23   C41   S    
C41   C42   S    
C45   C46   S    
O15   C33   A    
C42   C43   S    
C37   H9    S    
O2    C1    A    
C38   H10   S    
C23   C24   A    
O16   V4    S    
O9    V2    S    
C14   F8    S    
C49   H37   S    
O24   C44   S    
O12   V3    S    
O21   C35   S    
C45   H27   S    
C5    C6    A    
C11   F5    S    
C46   H29   S    
O15   V3    S    
C2    C30   S    
C58   H58   S    
C38   H11   S    
O27   C53   S    
O3    C4    A    
C22   O22   S    
O13   V3    S    
C26   C27   A    
C1    C24   S    
O6    V2    S    
C26   F3    S    
C29   C30   A    
C21   C32   S    
C57   H55   S    
C47   C48   S    
C42   H20   S    
C28   C29   A    
O2    V1    S    
C16   O28   S    
C40   H16   S    
C50   H38   S    
O28   C56   S    
C12   O27   S    
C53   H46   S    
O11   V4    S    
C52   H43   S    
O1    C2    A    
C8    F4    S    
C54   C55   S    
O5    V1    S    
C9    C33   S    
O26   C50   S    
C25   C30   A    
C54   H48   S    
C13   C14   A    
C5    C10   A    
C19   C20   A    
C17   O21   S    
O7    V2    S    
O4    V1    S    
O3    V1    S    
V1    O10   S    
C47   H31   S    
O13   C34   A    
C39   H12   S    
C39   C40   S    
O19   C34   A    
C7    F1    S    
C47   H32   S    
C43   H21   S    
C20   C21   A    
C27   C31   S    
C20   H2    S    
C11   F6    S    
C46   H30   S    
C41   H18   S    
C43   H23   S    
C37   H7    S    
C38   C39   S    
C25   O24   S    
C51   H41   S    
C54   H47   S    
C35   H3    S    
C25   C26   A    
C31   O16   A    
C8    C9    A    
C22   C23   A    
C46   H28   S    
C57   H54   S    
C58   H56   S    
C9    C10   A    
C28   O25   S    
C48   C49   S    
C49   H35   S    
O8    C3    A    
C29   O26   S    
C14   C15   A    
