data_mof_unit_52154.cif
_audit_creation_date              2013-03-05T16:03:18-0500
_audit_creation_method            fapswitch 2.2
_symmetry_space_group_name_H-M    P1
_symmetry_Int_Tables_number       1
_space_group_crystal_system       triclinic
_cell_length_a                    27.819865
_cell_length_b                    11.765539
_cell_length_c                    10.460816
_cell_angle_alpha                 89.989937
_cell_angle_beta                  90.010811
_cell_angle_gamma                 90.120757
_cell_volume                      3423.98166278

loop_
_atom_site_label
_atom_site_type_symbol
_atom_site_description
_atom_site_fract_x
_atom_site_fract_y
_atom_site_fract_z
_atom_type_partial_charge
O1    O     O_R   0.500000 0.337200 0.605810 -0.568869
O2    O     O_R   0.500000 0.662800 0.394190 -0.568704
O3    O     O_R   0.500000 0.662800 0.605810 -0.566678
O4    O     O_R   0.500000 0.337200 0.394190 -0.567206
C1    C     C_R   0.499995 0.283258 0.500009 0.828951
C2    C     C_R   0.500008 0.716742 0.499991 0.829540
O5    O     O_R   0.430260 0.500000 0.605800 -0.580681
O6    O     O_R   0.569740 0.500000 0.394200 -0.577635
O7    O     O_R   0.569740 0.500000 0.605800 -0.577763
O8    O     O_R   0.430260 0.500000 0.394200 -0.577099
C3    C     C_R   0.407116 0.500111 0.500006 0.834886
C4    C     C_R   0.592820 0.500122 0.500020 0.833657
Cu1   Cu    Cu3+1 0.500000 0.500000 0.625300 0.986742
Cu2   Cu    Cu3+1 0.500000 0.500000 0.374700 0.987036
C5    C     C_R   0.178001 0.406775 0.514692 0.563221
C6    C     C_R   0.821976 0.604489 0.515998 0.564333
C7    C     C_R   0.177606 0.608037 0.487492 0.542984
C8    C     C_R   0.822331 0.403303 0.488012 0.573908
O9    O     O_2   0.203816 0.309926 0.519274 -0.525745
O10   O     O_2   0.796192 0.701327 0.521943 -0.521251
O11   O     O_2   0.202951 0.705782 0.481654 -0.514935
O12   O     O_2   0.796954 0.305778 0.479039 -0.504886
N1    N     N_R   0.201613 0.507706 0.500050 -0.455330
N2    N     N_R   0.798289 0.503563 0.501478 -0.442448
C9    C     C_R   0.278324 0.494438 0.384608 0.274943
C10   C     C_R   0.721307 0.540356 0.392194 0.262199
C11   C     C_R   0.278627 0.517114 0.616707 0.256613
C12   C     C_R   0.721268 0.464112 0.609340 0.258033
C13   C     C_R   0.328589 0.490535 0.385280 -0.280137
C14   C     C_R   0.670991 0.539185 0.392682 -0.287781
C15   C     C_R   0.328927 0.514617 0.615302 -0.219232
C16   C     C_R   0.670965 0.463246 0.608020 -0.285475
C17   C     C_R   0.253227 0.508351 0.500286 0.269439
C18   C     C_R   0.746608 0.502727 0.500979 0.306291
C19   C     C_R   0.101710 0.506398 0.503342 -0.136937
C20   C     C_R   0.898254 0.504841 0.504048 -0.134261
C21   C     C_R   0.127312 0.403845 0.522732 -0.091195
C22   C     C_R   0.872679 0.607393 0.523581 -0.092292
C23   C     C_R   0.126969 0.609500 0.483262 -0.040589
C24   C     C_R   0.872975 0.401781 0.483905 -0.050270
C25   C     C_R   0.101664 0.302214 0.549466 0.291135
C26   C     C_R   0.898371 0.709016 0.550193 0.290313
C27   C     C_R   0.100824 0.710491 0.460496 0.276294
C28   C     C_R   0.899118 0.300842 0.460592 0.275182
C29   C     C_R   0.354177 0.501547 0.500156 -0.130399
C30   C     C_R   0.645643 0.500723 0.500160 -0.099380
H1    H     H_    0.348264 0.523926 0.704594 0.177428
H2    H     H_    0.651708 0.432903 0.691396 0.166425
H3    H     H_    0.347501 0.479228 0.295660 0.172195
H4    H     H_    0.651745 0.568900 0.309071 0.166351
C31   C     C_R   0.974785 0.401677 0.497695 0.034896
C32   C     C_R   0.025184 0.609589 0.497687 0.034480
C33   C     C_R   0.974506 0.609044 0.512741 0.014434
C34   C     C_R   0.025478 0.402188 0.512443 0.014513
C35   C     C_R   0.949218 0.505206 0.504768 0.069017
C36   C     C_R   0.050754 0.506038 0.504414 0.068373
C37   C     C_R   0.949129 0.301173 0.471877 -0.286908
C38   C     C_R   0.050824 0.710160 0.471976 -0.289714
C39   C     C_R   0.948745 0.708769 0.540343 -0.243843
C40   C     C_R   0.051274 0.302428 0.539818 -0.243924
H5    H     H_    0.967630 0.222499 0.451715 0.136994
H6    H     H_    0.032324 0.788898 0.452080 0.137661
H7    H     H_    0.968145 0.785381 0.563326 0.149384
H8    H     H_    0.031893 0.225782 0.562788 0.149533
C41   C     C_1   0.500000 0.161866 0.500023 -0.172000
C42   C     C_1   0.500007 0.838134 0.499977 -0.171208
C43   C     C_1   0.500003 0.059733 0.500012 0.013605
C44   C     C_1   0.500006 0.940266 0.499988 0.013900
N3    N     N_1   0.500000 0.500000 0.186410 -0.143277
N4    N     N_1   0.500000 0.500000 0.813590 -0.143160
C45   C     C_1   0.499999 0.500000 0.072040 0.084396
C46   C     C_1   0.499999 0.500000 0.927960 0.084561
N5    N     N_2   0.254043 0.530138 0.735350 -0.423518
H9    H     H_    0.219684 0.562220 0.728956 0.259923
C47   C     C_3   0.257064 0.433091 0.819901 -0.677332
H10   H     H_    0.237979 0.452087 0.910549 0.221749
H11   H     H_    0.295107 0.413600 0.843215 0.234661
H12   H     H_    0.239941 0.357691 0.774760 0.247004
N6    N     N_2   0.746417 0.423475 0.718531 -0.405583
H13   H     H_    0.729238 0.357072 0.764133 0.259941
C48   C     C_3   0.760878 0.511233 0.807398 -0.688150
H14   H     H_    0.782640 0.472828 0.885084 0.223296
H15   H     H_    0.728715 0.552296 0.850109 0.226068
H16   H     H_    0.783214 0.576526 0.759024 0.245364
N7    N     N_2   0.252748 0.480578 0.268025 -0.418321
H17   H     H_    0.265128 0.413275 0.214180 0.256768
C49   C     C_3   0.249035 0.583269 0.192764 -0.673497
H18   H     H_    0.224679 0.568169 0.110444 0.222635
H19   H     H_    0.284981 0.608634 0.156029 0.225999
H20   H     H_    0.233976 0.653571 0.250772 0.265554
N8    N     N_2   0.746473 0.582158 0.283502 -0.400297
H21   H     H_    0.729030 0.647894 0.237690 0.260184
C50   C     C_3   0.761621 0.495105 0.194789 -0.688289
H22   H     H_    0.783436 0.534423 0.117674 0.224038
H23   H     H_    0.729792 0.452898 0.151305 0.225228
H24   H     H_    0.784110 0.430624 0.243584 0.243592
N9    N     N_2   0.126694 0.203690 0.594472 -0.365903
H25   H     H_    0.147636 0.218113 0.674269 0.269280
C51   C     C_3   0.103459 0.093601 0.593520 -0.692350
H26   H     H_    0.130734 0.026840 0.611905 0.248351
H27   H     H_    0.086797 0.077346 0.498748 0.224052
H28   H     H_    0.075934 0.088803 0.670252 0.206889
N10   N     N_2   0.873421 0.807587 0.595309 -0.365656
H29   H     H_    0.852747 0.793305 0.675617 0.269903
C52   C     C_3   0.896595 0.917744 0.593475 -0.689990
H30   H     H_    0.869314 0.984510 0.611726 0.249089
H31   H     H_    0.913107 0.933648 0.498453 0.223727
H32   H     H_    0.924232 0.922962 0.669921 0.206398
N11   N     N_2   0.124080 0.812533 0.421346 -0.372724
H33   H     H_    0.107663 0.884882 0.455043 0.237311
C53   C     C_3   0.132765 0.819125 0.285192 -0.606449
H34   H     H_    0.153961 0.896839 0.263548 0.234416
H35   H     H_    0.098098 0.823234 0.232538 0.197848
H36   H     H_    0.153429 0.744105 0.251885 0.233044
N12   N     N_2   0.875872 0.198759 0.421458 -0.373225
H37   H     H_    0.892534 0.126379 0.454275 0.237439
C54   C     C_3   0.866607 0.192702 0.285516 -0.604100
H38   H     H_    0.845962 0.114160 0.263882 0.235235
H39   H     H_    0.901049 0.190544 0.231706 0.197109
H40   H     H_    0.845119 0.266908 0.253511 0.230653

loop_
_geom_bond_atom_site_label_1
_geom_bond_atom_site_label_2
_geom_bond_distance
_ccdc_geom_bond_type
C38   H6    1.080887 S    
O5    Cu1   1.950813 S    
C42   C44   1.201649 T    
C49   H18   1.109748 S    
C50   H22   1.109919 S    
N5    C47   1.446767 S    
N5    H9    1.030585 S    
C53   H34   1.110283 S    
O3    C2    1.275891 A    
C26   N10   1.432909 S    
N9    H25   1.031729 S    
C33   C39   1.406201 A    
C13   H3    1.083492 S    
N7    H17   1.031655 S    
C11   C17   1.411568 A    
O5    C3    1.280248 A    
C52   H31   1.110781 S    
C7    N1    1.363817 A    
O1    C1    1.275914 A    
C19   C21   1.416955 A    
C22   C26   1.419289 A    
C54   H39   1.111709 S    
C41   C43   1.201650 T    
Cu1   N4    1.969668 S    
N12   H37   1.029285 S    
C7    C23   1.409556 A    
N3    C45   1.196401 T    
C12   N6    1.422569 S    
O7    Cu1   1.950887 S    
C5    C21   1.413028 A    
C20   C24   1.416244 A    
C8    C24   1.409721 A    
C27   C38   1.396182 A    
N9    C51   1.446392 S    
C5    O9    1.349040 S    
C10   C18   1.409710 A    
C28   N12   1.423082 S    
N12   C54   1.446925 S    
C31   C37   1.406096 A    
C31   C35   1.413792 A    
O3    Cu1   1.926214 S    
C6    O10   1.349063 S    
C5    N1    1.364486 A    
C14   H4    1.083698 S    
C12   C18   1.409633 A    
C6    N2    1.365320 A    
C15   H1    1.083275 S    
Cu1   Cu2   2.621480 S    
C21   C25   1.418991 A    
C16   H2    1.083709 S    
O2    C2    1.275914 A    
C48   H15   1.111634 S    
C48   H14   1.109929 S    
C33   C35   1.410986 A    
C9    C13   1.399210 A    
C52   H32   1.110864 S    
C34   C36   1.410946 A    
N7    C49   1.445841 S    
C11   C15   1.399778 A    
C43   C44   1.405588 S    
C12   C16   1.399495 A    
C1    C41   1.428239 S    
O8    Cu2   1.950890 S    
C54   H40   1.110746 S    
N8    H21   1.031837 S    
N6    C48   1.445891 S    
C34   C40   1.406419 A    
N1    C17   1.435892 S    
C10   N8    1.422495 S    
C7    O11   1.349068 S    
C13   C29   1.402471 A    
C19   C23   1.416250 A    
C47   H10   1.109856 S    
O7    C4    1.279448 A    
N8    C50   1.445732 S    
C51   H26   1.110004 S    
C2    C42   1.428235 S    
C28   C37   1.396252 A    
O6    C4    1.279604 A    
C9    N7    1.421072 S    
C53   H35   1.111688 S    
C47   H11   1.110450 S    
C32   C38   1.406293 A    
C4    C30   1.469531 S    
C51   H27   1.110779 S    
C10   C14   1.399825 A    
C50   H24   1.108717 S    
C49   H19   1.111579 S    
N10   C52   1.446455 S    
C8    N2    1.364584 A    
C3    C29   1.472914 S    
O1    Cu1   1.926286 S    
C48   H16   1.109187 S    
C32   C33   1.418640 A    
O6    Cu2   1.950810 S    
C19   C36   1.417655 A    
C8    O12   1.349225 S    
C16   C30   1.401641 A    
C14   C30   1.401743 A    
C25   C40   1.405440 A    
O4    C1    1.275892 A    
C26   C39   1.405212 A    
C23   C27   1.414597 A    
C37   H5    1.080897 S    
C52   H30   1.110029 S    
C39   H7    1.076823 S    
C40   H8    1.076846 S    
C31   C34   1.418673 A    
N11   C53   1.446717 S    
C45   C46   1.507198 S    
C20   C35   1.417803 A    
C11   N5    1.425623 S    
N11   H33   1.029190 S    
C20   C22   1.416897 A    
Cu2   N3    1.969667 S    
C53   H36   1.110513 S    
C25   N9    1.432950 S    
O4    Cu2   1.926214 S    
O2    Cu2   1.926286 S    
C47   H12   1.111388 S    
N2    C18   1.437774 S    
O8    C3    1.280574 A    
N6    H13   1.031857 S    
C24   C28   1.415159 A    
C51   H28   1.110811 S    
C50   H23   1.111616 S    
C15   C29   1.403143 A    
C49   H20   1.108883 S    
C9    C17   1.406939 A    
N10   H29   1.031741 S    
N4    C46   1.196401 T    
C27   N11   1.422799 S    
C54   H38   1.110329 S    
C32   C36   1.413830 A    
C6    C22   1.413092 A    
