data_mof_unit_24353.cif
_audit_creation_date              2013-03-05T15:55:17-0500
_audit_creation_method            fapswitch 2.2
_symmetry_space_group_name_H-M    P1
_symmetry_Int_Tables_number       1
_space_group_crystal_system       triclinic
_cell_length_a                    27.548234
_cell_length_b                    10.715357
_cell_length_c                    9.894063
_cell_angle_alpha                 90.766314
_cell_angle_beta                  90.391622
_cell_angle_gamma                 93.311446
_cell_volume                      2915.39814785

loop_
_atom_site_label
_atom_site_type_symbol
_atom_site_description
_atom_site_fract_x
_atom_site_fract_y
_atom_site_fract_z
_atom_type_partial_charge
O1    O     O_R   0.500000 0.316780 0.614690 -0.633320
O2    O     O_R   0.500000 0.316750 0.385360 -0.656777
C1    C     C_R   0.500712 0.260877 0.499016 0.832621
O3    O     O_R   0.428760 0.500030 0.614650 -0.627646
O4    O     O_R   0.428750 0.500010 0.385320 -0.641077
C2    C     C_R   0.405874 0.497917 0.499233 0.924745
Zn1   Zn    Zn3+2 0.500000 0.500020 0.653130 0.981595
Zn2   Zn    Zn3+2 0.500000 0.499980 0.346870 0.948738
O5    O     O_R   0.500000 0.683250 0.614640 -0.581070
O6    O     O_R   0.500000 0.683220 0.385310 -0.617333
O7    O     O_R   0.571250 0.499990 0.614680 -0.609453
O8    O     O_R   0.571240 0.499970 0.385350 -0.625961
C3    C     C_R   0.503370 0.740093 0.500846 0.959891
C4    C     C_R   0.593472 0.489501 0.500471 0.946438
C5    C     C_R   0.175352 0.349946 0.501982 0.524715
O9    O     O_2   0.200160 0.252404 0.543930 -0.541979
N1    N     N_R   0.199661 0.461265 0.474065 -0.359330
C6    C     C_R   0.176090 0.560584 0.426343 0.527413
C7    C     C_R   0.278311 0.476298 0.363463 -0.097915
C8    C     C_R   0.328626 0.486532 0.369551 -0.209468
C9    C     C_R   0.325618 0.485181 0.614990 -0.197614
C10   C     C_R   0.274989 0.475032 0.608473 -0.093430
C11   C     C_R   0.251428 0.470734 0.482554 0.307157
C12   C     C_R   0.099582 0.439076 0.441347 -0.046744
C13   C     C_R   0.124782 0.336484 0.485073 -0.047472
C14   C     C_R   0.099599 0.220854 0.501097 -0.151896
C15   C     C_R   0.125684 0.550763 0.407316 -0.041161
C16   C     C_R   0.352723 0.490970 0.495284 -0.018375
H1    H     H_    0.343438 0.487883 0.712993 0.165081
H2    H     H_    0.254077 0.470758 0.700730 0.147718
H3    H     H_    0.119668 0.138544 0.519335 0.230593
C17   C     C_R   0.645276 0.466338 0.501299 -0.006032
C18   C     C_R   0.971351 0.319498 0.489354 0.063361
C19   C     C_R   0.973256 0.538787 0.416283 0.057373
C20   C     C_R   0.947072 0.429913 0.461246 0.083184
C21   C     C_R   0.944631 0.220557 0.553030 -0.147208
C22   C     C_R   0.894617 0.221300 0.567442 -0.133062
C23   C     C_R   0.869949 0.325437 0.529132 -0.014415
C24   C     C_R   0.896365 0.432987 0.483072 -0.048436
C25   C     C_R   0.872135 0.543879 0.461014 -0.104478
C26   C     C_R   0.820985 0.536369 0.461898 0.579316
N2    N     N_R   0.796166 0.428716 0.500129 -0.342670
C27   C     C_R   0.819379 0.325964 0.538831 0.588378
C28   C     C_R   0.717301 0.408058 0.379335 0.003356
C29   C     C_R   0.667624 0.428932 0.381599 -0.232657
C30   C     C_R   0.672272 0.478110 0.621583 -0.145379
C31   C     C_R   0.721552 0.458229 0.620957 -0.101258
C32   C     C_R   0.744367 0.425746 0.500745 0.235709
O10   O     O_2   0.793416 0.224009 0.582860 -0.528946
C33   C     C_R   0.022327 0.317245 0.467746 -0.016441
C34   C     C_R   0.048338 0.430544 0.432909 0.069511
C35   C     C_R   0.023667 0.535979 0.390551 0.003811
C36   C     C_R   0.049232 0.207818 0.481728 -0.076793
H4    H     H_    0.646248 0.416651 0.289546 0.186861
H5    H     H_    0.961761 0.142773 0.597159 0.155767
O11   O     O_2   0.201491 0.668306 0.397248 -0.532550
C37   C     C_R   0.101528 0.646614 0.346612 -0.164093
H6    H     H_    0.348545 0.490169 0.275545 0.168980
H7    H     H_    0.260041 0.472453 0.266084 0.144956
C38   C     C_R   0.949756 0.652106 0.416887 -0.186099
C39   C     C_R   0.899997 0.656629 0.438306 -0.020742
O12   O     O_2   0.795866 0.633336 0.420092 -0.497362
C40   C     C_R   0.051165 0.636016 0.327835 -0.100332
H8    H     H_    0.970508 0.740258 0.409589 0.155985
H9    H     H_    0.655632 0.505751 0.715374 0.177169
H10   H     H_    0.742657 0.472878 0.713158 0.164048
H11   H     H_    0.441346 0.109511 0.623502 0.166628
C41   C     C_R   0.575922 0.145078 0.349258 -0.177794
H12   H     H_    0.575585 0.244973 0.339855 0.158308
C42   C     C_R   0.613211 0.089280 0.283289 -0.120280
H13   H     H_    0.639085 0.145294 0.224414 0.167086
C43   C     C_R   0.619916 0.964203 0.302717 -0.172999
C44   C     C_R   0.588421 0.892117 0.385796 -0.123464
C45   C     C_R   0.545358 0.943814 0.438043 0.047035
C46   C     C_R   0.541330 0.073621 0.425972 0.116313
C47   C     C_R   0.504065 0.129749 0.496838 -0.095505
C48   C     C_R   0.469713 0.061889 0.571500 -0.244468
C49   C     C_R   0.468989 0.933845 0.571259 -0.037331
C50   C     C_R   0.506645 0.874006 0.504240 -0.190157
H14   H     H_    0.555147 0.642934 0.128598 0.142947
C51   C     C_R   0.435681 0.333703 0.137288 -0.165204
H15   H     H_    0.433775 0.328663 0.244618 0.201130
C52   C     C_R   0.403827 0.251642 0.065337 -0.177007
C53   C     C_R   0.403657 0.251676 0.925308 -0.158953
H16   H     H_    0.378815 0.187741 0.869550 0.178269
C54   C     C_R   0.435330 0.333791 0.856391 -0.160769
H17   H     H_    0.432977 0.328624 0.748972 0.191943
C55   C     C_R   0.468172 0.418003 0.925992 0.172675
C56   C     C_R   0.468262 0.417970 0.070739 0.166261
N3    N     N_R   0.499540 0.498800 0.142780 -0.126418
C57   C     C_R   0.530401 0.578624 0.073296 -0.093135
H18   H     H_    0.555241 0.642618 0.877436 0.168347
C58   C     C_R   0.530421 0.578514 0.930036 -0.093603
N4    N     N_R   0.499520 0.498720 0.857170 -0.126572
H19   H     H_    0.122255 0.726433 0.305962 0.224606
C59   C     C_2   0.880425 0.782621 0.449286 0.992455
O13   O     O_2   0.852906 0.807059 0.541187 -0.569079
O14   O     O_R   0.895933 0.875730 0.358986 -0.753135
H20   H     H_    0.881198 0.958541 0.378697 0.364440
C60   C     C_2   0.029987 0.719145 0.226415 0.922952
O15   O     O_2   0.048022 0.824767 0.209515 -0.585360
O16   O     O_R   0.990199 0.675063 0.147232 -0.764093
H21   H     H_    0.979144 0.739949 0.081898 0.369438
H22   H     H_    0.652681 0.927295 0.262279 0.171439
C61   C     C_2   0.609031 0.778806 0.439489 0.919185
O17   O     O_2   0.606708 0.758356 0.560455 -0.595352
O18   O     O_R   0.636378 0.702735 0.357080 -0.765033
H23   H     H_    0.632441 0.718501 0.257008 0.299800
C62   C     C_2   0.426929 0.867109 0.637803 0.937147
O19   O     O_2   0.406593 0.774613 0.584405 -0.631850
O20   O     O_R   0.409195 0.914197 0.759205 -0.805949
H24   H     H_    0.380129 0.862104 0.793924 0.349657
H25   H     H_    0.379104 0.187726 0.118693 0.166177
C63   C     C_2   0.739991 0.370888 0.249515 0.933508
O21   O     O_2   0.717571 0.378591 0.143041 -0.627472
O22   O     O_R   0.786543 0.325415 0.247851 -0.793707
H26   H     H_    0.797583 0.303502 0.153365 0.362439
H27   H     H_    0.875497 0.140678 0.611478 0.205831
C64   C     C_2   0.028444 0.078690 0.455374 0.926161
O23   O     O_2   0.996187 0.059483 0.370781 -0.562910
O24   O     O_R   0.047113 0.978388 0.523801 -0.787891
H28   H     H_    0.030502 0.895017 0.496310 0.345815

loop_
_geom_bond_atom_site_label_1
_geom_bond_atom_site_label_2
_geom_bond_distance
_ccdc_geom_bond_type
C3    C50   1.432476 S    
C58   N4    1.366200 A    
C26   N2    1.365754 A    
C52   H25   1.082731 S    
C20   C24   1.417132 A    
O20   H24   1.013906 S    
H11   C48   1.086435 S    
C12   C15   1.406180 A    
C63   O21   1.223681 D    
C39   C59   1.485292 S    
C48   C49   1.371001 A    
C41   C46   1.418314 A    
Zn1   O7    2.001907 S    
C61   O18   1.399415 S    
N1    C11   1.425651 S    
C21   C22   1.386616 A    
C53   C54   1.391381 A    
C62   O20   1.398679 S    
C23   C24   1.409629 A    
O7    C4    1.295494 A    
C54   C55   1.409815 A    
C5    C13   1.400907 A    
C5    O9    1.349820 S    
C18   C21   1.413078 A    
O22   H26   1.013834 S    
C5    N1    1.366243 A    
C19   C20   1.414301 A    
C44   C45   1.434592 A    
O5    C3    1.288591 A    
C60   O15   1.223509 D    
C2    C16   1.462024 S    
C22   H27   1.083593 S    
C52   C53   1.385437 A    
C41   H12   1.076246 S    
C59   O14   1.398537 S    
O18   H23   1.012803 S    
C37   C40   1.396444 A    
C42   H13   1.083155 S    
C31   H10   1.083160 S    
C6    O11   1.350252 S    
C51   C56   1.408831 A    
C12   C34   1.411181 A    
C28   C63   1.491720 S    
C14   H3    1.084125 S    
C9    C10   1.393663 A    
C19   C38   1.408627 A    
C26   O12   1.349134 S    
O3    Zn1   1.996578 S    
C51   C52   1.391248 A    
C33   C34   1.421353 A    
C47   C48   1.383634 A    
C64   O24   1.398775 S    
C55   N4    1.376595 A    
C33   C36   1.430641 A    
C45   C46   1.408319 A    
C34   C35   1.418250 A    
C12   C13   1.405126 A    
C30   H9    1.083108 S    
O3    C2    1.299948 A    
C15   C37   1.395861 A    
C24   C25   1.414810 A    
C54   H17   1.064849 S    
C27   O10   1.349662 S    
C8    C16   1.404979 A    
C40   C60   1.488846 S    
C7    H7    1.083145 S    
C18   C33   1.423447 A    
C9    H1    1.083119 S    
O6    C3    1.288452 A    
C51   H15   1.065524 S    
C25   C39   1.414820 A    
C38   C39   1.391997 A    
O1    C1    1.285448 A    
C7    C11   1.396092 A    
C46   C47   1.406086 A    
C22   C23   1.394992 A    
C57   C58   1.417412 A    
C44   C61   1.473619 S    
C31   C32   1.398296 A    
Zn2   O8    1.996574 S    
C59   O13   1.223141 D    
C60   O16   1.398878 S    
N1    C6    1.366114 A    
C17   C29   1.402884 A    
N2    C32   1.425546 S    
C53   H16   1.082862 S    
C1    C47   1.413321 S    
O24   H28   1.012936 S    
C41   C42   1.381460 A    
C25   C26   1.406847 A    
C9    C16   1.404592 A    
O8    C4    1.298792 A    
C29   H4    1.083567 S    
C45   C50   1.434014 A    
Zn2   N3    2.019098 S    
N2    C27   1.362750 A    
C8    H6    1.083139 S    
C14   C36   1.398094 A    
C28   C29   1.399627 A    
Zn1   O5    2.004962 S    
Zn1   N4    2.019146 S    
C30   C31   1.386343 A    
C10   H2    1.082787 S    
O1    Zn1   1.994978 S    
C17   C30   1.399428 A    
O2    Zn2   2.004959 S    
C6    C15   1.397780 A    
C4    C17   1.462552 S    
C43   C44   1.405126 A    
C35   C40   1.427693 A    
O4    Zn2   2.001910 S    
C63   O22   1.398046 S    
C64   O23   1.223375 D    
C36   C64   1.485670 S    
C43   H22   1.083116 S    
C61   O17   1.221063 D    
C19   C35   1.415553 A    
C38   H8    1.079014 S    
C7    C8    1.384937 A    
O2    C1    1.281576 A    
C13   C14   1.396082 A    
C23   C27   1.397407 A    
C21   H5    1.077190 S    
C62   O19   1.221939 D    
C49   C50   1.414843 A    
N3    C57   1.366279 A    
O4    C2    1.294864 A    
H14   C57   1.081445 S    
H18   C58   1.081840 S    
C18   C20   1.422025 A    
C49   C62   1.488178 S    
O16   H21   1.013809 S    
C55   C56   1.432133 A    
Zn2   O6    1.994977 S    
O14   H20   1.014032 S    
C37   H19   1.084084 S    
C10   C11   1.399834 A    
C42   C43   1.379257 A    
C56   N3    1.374605 A    
C28   C32   1.414286 A    
