data_mof_unit_39393.cif
_audit_creation_date              2013-03-05T16:10:28-0500
_audit_creation_method            fapswitch 2.2
_symmetry_space_group_name_H-M    P1
_symmetry_Int_Tables_number       1
_space_group_crystal_system       triclinic
_cell_length_a                    10.668773
_cell_length_b                    9.842689
_cell_length_c                    14.887585
_cell_angle_alpha                 90.184018
_cell_angle_beta                  90.516709
_cell_angle_gamma                 90.061842
_cell_volume                      1563.26399145

loop_
_atom_site_label
_atom_site_type_symbol
_atom_site_description
_atom_site_fract_x
_atom_site_fract_y
_atom_site_fract_z
_atom_type_partial_charge
O1    O     O_R   0.316770 0.614620 0.499990 -0.627504
O2    O     O_R   0.683230 0.385380 0.500010 -0.628424
O3    O     O_R   0.683230 0.614620 0.500010 -0.625997
O4    O     O_R   0.316770 0.385380 0.499990 -0.625859
C1    C     C_R   0.259970 0.499968 0.499713 0.855112
C2    C     C_R   0.740035 0.500067 0.499777 0.856105
O5    O     O_R   0.499980 0.614680 0.367850 -0.617475
O6    O     O_R   0.500020 0.385320 0.632150 -0.618559
O7    O     O_R   0.500020 0.614680 0.632150 -0.616403
O8    O     O_R   0.499980 0.385320 0.367850 -0.625175
C3    C     C_R   0.503533 0.499733 0.326883 0.901535
C4    C     C_R   0.499544 0.500330 0.672865 0.902288
Zn1   Zn    Zn3+2 0.500000 0.653120 0.500000 0.943902
Zn2   Zn    Zn3+2 0.500000 0.346880 0.500000 0.938598
C5    C     C_R   0.609094 0.476642 0.812381 -0.315822
C6    C     C_R   0.412926 0.570003 0.187092 -0.315110
C7    C     C_R   0.497049 0.502679 0.768236 -0.055713
C8    C     C_R   0.508596 0.501152 0.231056 -0.071524
C9    C     C_R   0.387669 0.541428 0.813504 0.116457
C10   C     C_R   0.609467 0.442484 0.184501 0.103288
C11   C     C_R   0.396328 0.566891 0.906951 0.048939
C12   C     C_R   0.620662 0.471539 0.091941 0.060202
C13   C     C_R   0.508314 0.526122 0.952629 0.009870
C14   C     C_R   0.513548 0.524760 0.046390 0.013634
C15   C     C_R   0.614440 0.483160 0.904684 0.122500
C16   C     C_R   0.410368 0.573952 0.094697 0.113202
C17   C     C_R   0.298589 0.628477 0.957374 -0.005050
C18   C     C_R   0.732424 0.449129 0.042539 -0.001184
C19   C     C_R   0.306843 0.629497 0.050732 -0.253123
C20   C     C_R   0.726331 0.451620 0.949008 -0.283073
H1    H     H_    0.691642 0.448678 0.774341 0.140581
H2    H     H_    0.336505 0.613821 0.225235 0.141596
H3    H     H_    0.231940 0.674890 0.089499 0.156201
H4    H     H_    0.810077 0.431336 0.910363 0.147152
C21   C     C_R   0.063649 0.387064 0.465257 -0.194369
C22   C     C_R   0.936395 0.613484 0.533070 -0.193866
C23   C     C_R   0.935241 0.387170 0.465176 -0.198910
C24   C     C_R   0.064753 0.613332 0.533215 -0.196400
H5    H     H_    0.112675 0.299917 0.438074 0.149056
H6    H     H_    0.887444 0.700687 0.560252 0.148799
H7    H     H_    0.885325 0.300068 0.437964 0.156821
H8    H     H_    0.114607 0.700410 0.560532 0.156140
C25   C     C_R   0.872426 0.500268 0.499262 -0.011926
C26   C     C_R   0.127586 0.500054 0.499420 -0.013793
C27   C     C_R   0.579635 0.072298 0.555028 -0.070739
C28   C     C_R   0.420390 0.927700 0.444949 -0.069389
C29   C     C_R   0.420399 0.071595 0.444942 -0.076857
C30   C     C_R   0.579631 0.928407 0.555034 -0.073361
H9    H     H_    0.643305 0.127104 0.599024 0.127504
H10   H     H_    0.356748 0.872888 0.400932 0.125776
H11   H     H_    0.356760 0.125845 0.400930 0.123263
H12   H     H_    0.643304 0.874165 0.599027 0.122164
N1    N     N_R   0.500000 0.857200 0.500000 -0.079861
N2    N     N_R   0.500000 0.142800 0.500000 -0.080332
C31   C     C_3   0.263272 0.537103 0.763014 -0.879462
H13   H     H_    0.265275 0.462729 0.706825 0.225260
H14   H     H_    0.186921 0.500637 0.806859 0.243314
H15   H     H_    0.240904 0.638132 0.734330 0.249795
C32   C     C_3   0.693701 0.340940 0.232357 -0.866849
H16   H     H_    0.636311 0.264551 0.267898 0.253187
H17   H     H_    0.749599 0.278385 0.185809 0.243909
H18   H     H_    0.755886 0.393750 0.281457 0.236542
C33   C     C_R   0.193676 0.706430 0.917013 0.142528
C34   C     C_R   0.217800 0.823520 0.866251 -0.144592
C35   C     C_R   0.118475 0.898485 0.829766 -0.151755
C36   C     C_R   0.994709 0.858035 0.844586 -0.114877
C37   C     C_R   0.969978 0.742929 0.896299 -0.136941
C38   C     C_R   0.068989 0.667736 0.932878 -0.180773
H19   H     H_    0.313311 0.856038 0.854642 0.133634
H20   H     H_    0.137445 0.988063 0.790120 0.134349
H21   H     H_    0.917979 0.916167 0.816274 0.121359
H22   H     H_    0.874127 0.712075 0.908109 0.141412
H23   H     H_    0.048894 0.578635 0.972626 0.155915
C39   C     C_R   0.858921 0.439917 0.084925 0.127260
C40   C     C_R   0.898136 0.537187 0.148711 -0.139775
C41   C     C_R   0.015577 0.525919 0.190503 -0.160709
C42   C     C_R   0.095348 0.418762 0.168189 -0.113699
C43   C     C_R   0.058649 0.323697 0.103222 -0.128700
C44   C     C_R   0.941097 0.334082 0.061557 -0.198261
H24   H     H_    0.837205 0.620684 0.166739 0.134595
H25   H     H_    0.044616 0.599999 0.240414 0.133978
H26   H     H_    0.185664 0.409345 0.201153 0.132030
H27   H     H_    0.120937 0.241261 0.085640 0.136968
H28   H     H_    0.913199 0.258273 0.012406 0.135472

loop_
_geom_bond_atom_site_label_1
_geom_bond_atom_site_label_2
_geom_bond_distance
_ccdc_geom_bond_type
C31   H13   1.110194 S    
C3    C8    1.428251 S    
C17   C19   1.391873 A    
O3    C2    1.280650 A    
C18   C39   1.487628 S    
C42   C43   1.396738 A    
O5    C3    1.284343 A    
O1    C1    1.280300 A    
C9    C11   1.414994 A    
C14   C16   1.405911 A    
C24   H8    1.084319 S    
C30   H12   1.081880 S    
C44   H28   1.082987 S    
C5    C15   1.376133 A    
C35   H20   1.082520 S    
C19   H3    1.085708 S    
C37   H22   1.082489 S    
O7    Zn1   2.004635 S    
C33   C38   1.405547 A    
C43   H27   1.082314 S    
C4    C7    1.420440 S    
C13   C14   1.396590 A    
C40   H24   1.083005 S    
O3    Zn1   1.991629 S    
C36   C37   1.398044 A    
C11   C17   1.425086 A    
C32   H16   1.107961 S    
C12   C18   1.423601 A    
O4    Zn2   1.991631 S    
O2    C2    1.280679 A    
Zn1   N1    2.008696 S    
C6    C16   1.376248 A    
C30   N1    1.366291 A    
C32   H17   1.104756 S    
C39   C40   1.406965 A    
C20   H4    1.085382 S    
C37   C38   1.397870 A    
C22   H6    1.084317 S    
C41   C42   1.397095 A    
O8    Zn2   2.004636 S    
C43   C44   1.398114 A    
C29   H11   1.081869 S    
C38   H23   1.081883 S    
C23   C25   1.396400 A    
C21   H5    1.084282 S    
C40   C41   1.398568 A    
C24   C26   1.396330 A    
C36   H21   1.082368 S    
C27   H9    1.081814 S    
O6    C4    1.282399 A    
C31   H14   1.108554 S    
C34   H19   1.083262 S    
C10   C32   1.519573 S    
C21   C26   1.396168 A    
C17   C33   1.481642 S    
C29   N2    1.366290 A    
Zn2   N2    2.008696 S    
C1    C26   1.412342 S    
C10   C12   1.414338 A    
C27   N2    1.366344 A    
C39   C44   1.407108 A    
C11   C13   1.427946 A    
C12   C14   1.424715 A    
O1    Zn1   1.990828 S    
C27   C30   1.416271 A    
C9    C31   1.519821 S    
C15   C20   1.394532 A    
C5    C7    1.383516 A    
C28   C29   1.416312 A    
C32   H18   1.110287 S    
O6    Zn2   2.002248 S    
C21   C23   1.369939 A    
O4    C1    1.280919 A    
C41   H25   1.082425 S    
C5    H1    1.086546 S    
C6    H2    1.086618 S    
C28   H10   1.081853 S    
C2    C25   1.412539 S    
C34   C35   1.398663 A    
C22   C24   1.369408 A    
C42   H26   1.081584 S    
C28   N1    1.366371 A    
C18   C20   1.393687 A    
C7    C9    1.405319 A    
C8    C10   1.408602 A    
C13   C15   1.408526 A    
C23   H7    1.084262 S    
O2    Zn2   1.990825 S    
O7    C4    1.280095 A    
O8    C3    1.283091 A    
C33   C34   1.405004 A    
O5    Zn1   2.002249 S    
C16   C19   1.392031 A    
C6    C8    1.386269 A    
C35   C36   1.398356 A    
C31   H15   1.108850 S    
C22   C25   1.396216 A    
