data_mof_unit_63281.cif
_audit_creation_date              2012-12-10T18:08:18-0500
_audit_creation_method            fapswitch 2.2
_symmetry_space_group_name_H-M    P1
_symmetry_Int_Tables_number       1
_space_group_crystal_system       triclinic
_cell_length_a                    18.599922
_cell_length_b                    18.661051
_cell_length_c                    18.763666
_cell_angle_alpha                 109.320575
_cell_angle_beta                  109.319552
_cell_angle_gamma                 109.153309
_cell_volume                      5051.52359009

loop_
_atom_site_label
_atom_site_type_symbol
_atom_type_description
_atom_site_fract_x
_atom_site_fract_y
_atom_site_fract_z
_atom_type_partial_charge
C1    C     C_R   0.382426 0.503243 0.380265 0.903927
C2    C     C_R   0.318845 0.507261 0.314766 -0.177399
C3    C     C_R   0.313574 0.234547 0.483749 -0.287009
C4    C     C_R   0.619235 0.619604 0.499022 0.903448
C5    C     C_R   0.250854 0.170406 0.485546 0.525260
C6    C     C_R   0.186237 0.185223 0.499313 -0.114965
C7    C     C_R   0.185952 0.263610 0.515159 -0.257808
C8    C     C_R   0.250903 0.328614 0.517366 -0.176496
C9    C     C_R   0.314027 0.313598 0.500903 -0.090789
C10   C     C_R   0.752029 0.487507 0.670773 -0.213633
C11   C     C_R   0.817554 0.487344 0.733573 0.160690
C12   C     C_R   0.834981 0.785698 0.560215 0.014075
C13   C     C_R   0.814281 0.496896 0.810194 -0.052442
C14   C     C_R   0.747820 0.507089 0.823406 -0.202349
C15   C     C_R   0.684462 0.509120 0.761259 -0.185918
C16   C     C_R   0.619973 0.499352 0.619836 0.862594
C17   C     C_R   0.686487 0.498697 0.685016 -0.054873
C18   C     C_R   0.997900 0.877011 0.380583 0.910536
C19   C     C_R   0.879851 0.877860 0.498369 0.903550
C20   C     C_R   0.999422 0.120054 0.620072 0.964960
C21   C     C_R   0.120068 0.119862 0.499713 0.941046
C22   C     C_R   0.001174 0.619725 0.121671 0.976139
C23   C     C_3   0.887895 0.841014 0.657711 0.660606
C24   C     C_R   0.120069 0.500981 0.120780 0.931944
C25   C     C_R   0.998043 0.380167 0.878099 0.904443
C26   C     C_R   0.880006 0.498635 0.878381 0.869504
C27   C     C_R   0.988257 0.811442 0.241580 -0.302542
C28   C     C_R   0.379773 0.379820 0.500214 0.900373
C29   C     C_R   0.993921 0.751957 0.179731 0.488847
C30   C     C_R   0.002731 0.684198 0.190825 -0.214618
C31   C     C_R   0.010037 0.676756 0.265561 0.076474
C32   C     C_R   0.009591 0.741222 0.331114 0.138920
C33   C     C_R   0.997567 0.807747 0.316754 -0.170707
C34   C     C_3   0.811969 0.773880 0.658473 -0.131323
C35   C     C_R   0.915946 0.180134 0.673319 0.436953
C36   C     C_R   0.915177 0.247559 0.734046 0.052946
C37   C     C_R   0.995195 0.313965 0.809638 -0.198346
C38   C     C_R   0.074072 0.315865 0.823044 -0.333224
C39   C     C_R   0.075561 0.250422 0.762388 0.484260
C40   C     C_R   0.770781 0.725285 0.561924 -0.086658
C41   C     C_R   0.996788 0.184289 0.686177 -0.300903
C42   C     C_R   0.684702 0.682901 0.496806 -0.130395
C43   C     C_R   0.665498 0.688881 0.421014 -0.307739
C44   C     C_R   0.730876 0.749354 0.417775 0.520159
C45   C     C_R   0.258919 0.429437 0.236458 -0.248123
C46   C     C_R   0.814736 0.804895 0.492531 -0.232764
C47   C     C_3   0.384168 0.672930 0.410584 -0.334582
C48   C     C_3   0.351122 0.695862 0.474792 -0.788630
C49   C     C_3   0.318679 0.099865 0.531810 -0.302929
C50   C     C_3   0.887336 0.474848 0.715280 -0.428856
C51   C     C_3   0.952986 0.558266 0.726276 -0.815882
C52   C     C_3   0.732598 0.706951 0.290994 -0.279619
C53   C     C_3   0.053952 0.825829 0.120609 -0.269913
C54   C     C_3   0.020508 0.602003 0.275618 -0.330713
C55   C     C_3   0.932757 0.524627 0.244310 -0.853128
C56   C     C_R   0.193422 0.425988 0.171004 0.102491
C57   C     C_3   0.019375 0.737922 0.414075 -0.378521
C58   C     C_3   0.115558 0.785505 0.484537 -0.812033
C59   C     C_3   0.811907 0.037995 0.608400 -0.224897
C60   C     C_3   0.830650 0.251351 0.714379 -0.320010
C61   C     C_3   0.772137 0.193348 0.736069 -0.810391
C62   C     C_3   0.189226 0.237654 0.840566 -0.276358
C63   C     C_3   0.980343 0.848131 0.695575 -0.387867
C64   C     C_3   0.992121 0.778697 0.636098 -0.941863
C65   C     C_3   0.924473 0.970575 0.773388 -0.408635
C66   C     C_3   0.829553 0.717956 0.699525 -0.404916
C67   C     C_R   0.187167 0.502099 0.186490 -0.199876
C68   C     C_3   0.858959 0.763045 0.796166 -0.867382
C69   C     C_3   0.133748 0.341191 0.085280 -0.385749
C70   C     C_3   0.063021 0.276405 0.090671 -0.823566
C71   C     C_3   0.283739 0.707864 0.254277 -0.296329
C72   C     C_R   0.248214 0.581896 0.263748 0.458465
C73   C     C_R   0.315829 0.585472 0.328986 0.057868
H1    H     H_    0.599743 0.649048 0.365921 0.158331
H2    H     H_    0.770662 0.799479 0.676600 0.183418
H3    H     H_    0.262774 0.370375 0.226141 0.178935
H4    H     H_    0.293435 0.703683 0.446333 0.270607
H5    H     H_    0.332414 0.644147 0.492527 0.261444
H6    H     H_    0.403535 0.758234 0.534661 0.224281
H7    H     H_    0.447285 0.675061 0.442565 0.199915
H8    H     H_    0.402060 0.725468 0.394047 0.197117
H9    H     H_    0.308458 0.034114 0.520097 0.190548
H10   H     H_    0.325288 0.134555 0.596638 0.164877
H11   H     H_    0.380128 0.133995 0.531774 0.153499
H12   H     H_    0.361834 0.222943 0.469401 0.162345
H13   H     H_    0.919947 0.576072 0.679318 0.240760
H14   H     H_    0.984608 0.612801 0.793294 0.270107
H15   H     H_    0.004358 0.548099 0.714278 0.244165
H16   H     H_    0.923084 0.454922 0.757914 0.205899
H17   H     H_    0.856043 0.421186 0.647781 0.198471
H18   H     H_    0.803960 0.729406 0.324223 0.134373
H19   H     H_    0.716726 0.713978 0.232116 0.195552
H20   H     H_    0.694141 0.636605 0.269466 0.149355
H21   H     H_    0.047599 0.820449 0.057898 0.183495
H22   H     H_    0.116207 0.827190 0.155848 0.160647
H23   H     H_    0.136228 0.274616 0.526872 0.163918
H24   H     H_    0.056687 0.888014 0.157544 0.156306
H25   H     H_    0.902205 0.542616 0.283864 0.233674
H26   H     H_    0.885510 0.499760 0.175951 0.279252
H27   H     H_    0.943469 0.470932 0.249272 0.243145
H28   H     H_    0.052785 0.579058 0.240201 0.221379
H29   H     H_    0.065680 0.623643 0.343513 0.204417
H30   H     H_    0.150002 0.750587 0.466018 0.235003
H31   H     H_    0.151256 0.852581 0.496539 0.278532
H32   H     H_    0.119236 0.789280 0.546049 0.232981
H33   H     H_    0.982606 0.764993 0.439276 0.191146
H34   H     H_    0.250850 0.389609 0.529971 0.160819
H35   H     H_    0.988597 0.670431 0.402042 0.198636
H36   H     H_    0.849644 0.004980 0.595814 0.193264
H37   H     H_    0.742012 0.991545 0.559273 0.181376
H38   H     H_    0.818453 0.052340 0.673458 0.145398
H39   H     H_    0.810732 0.200525 0.799979 0.262523
H40   H     H_    0.721772 0.212047 0.738456 0.235645
H41   H     H_    0.737646 0.124089 0.685285 0.252086
H42   H     H_    0.844452 0.319023 0.750974 0.170924
H43   H     H_    0.793976 0.231882 0.644818 0.220771
H44   H     H_    0.246779 0.231246 0.841789 0.183397
H45   H     H_    0.752670 0.479998 0.611172 0.150492
H46   H     H_    0.141038 0.175079 0.829646 0.155191
H47   H     H_    0.212062 0.292063 0.904917 0.141962
H48   H     H_    0.940342 0.711629 0.610085 0.252675
H49   H     H_    0.991042 0.788421 0.580654 0.275568
H50   H     H_    0.056502 0.785029 0.673094 0.253111
H51   H     H_    0.029666 0.912240 0.710748 0.224871
H52   H     H_    0.998148 0.848140 0.758090 0.186472
H53   H     H_    0.994670 0.990912 0.810578 0.165577
H54   H     H_    0.885972 0.933723 0.795863 0.176938
H55   H     H_    0.919776 0.031024 0.788390 0.192947
H56   H     H_    0.746017 0.515012 0.882593 0.156945
H57   H     H_    0.921141 0.825473 0.832060 0.242977
H58   H     H_    0.808027 0.776088 0.806367 0.260833
H59   H     H_    0.869288 0.720026 0.822797 0.271672
H60   H     H_    0.767606 0.656025 0.667293 0.221876
H61   H     H_    0.878021 0.700109 0.690002 0.223126
H62   H     H_    0.093043 0.260188 0.140611 0.248832
H63   H     H_    0.022619 0.304071 0.107389 0.273503
H64   H     H_    0.019863 0.215492 0.026938 0.233631
H65   H     H_    0.102374 0.351697 0.030957 0.200770
H66   H     H_    0.172964 0.311902 0.067999 0.187250
H67   H     H_    0.633303 0.517522 0.771994 0.155251
H68   H     H_    0.237911 0.714990 0.205125 0.207167
H69   H     H_    0.321818 0.684157 0.227354 0.140640
H70   H     H_    0.329624 0.774036 0.311472 0.167252
H71   H     H_    0.977951 0.861948 0.231367 0.181358
H72   H     H_    0.134769 0.368428 0.881112 0.173686
O1    O     O_R   0.408340 0.551690 0.460080 -0.622649
O2    O     O_R   0.051700 0.643420 0.091650 -0.605900
O3    O     O_R   0.039910 0.448390 0.091720 -0.627258
O4    O     O_R   0.408400 0.448280 0.356690 -0.630073
O5    O     O_R   0.143340 0.551810 0.091690 -0.632769
O6    O     O_R   0.948300 0.356760 0.908530 -0.618699
O7    O     O_R   0.051730 0.460180 0.908500 -0.628761
O8    O     O_R   0.856660 0.448370 0.908490 -0.628469
O9    O     O_R   0.960090 0.551790 0.908450 -0.607874
O10   O     O_R   0.591580 0.643330 0.551700 -0.631529
O11   O     O_R   0.591640 0.539920 0.448310 -0.622883
O12   O     O_R   0.948260 0.908480 0.356680 -0.628470
O13   O     O_R   0.591600 0.551720 0.643310 -0.620093
O14   O     O_R   0.591660 0.448310 0.539920 -0.627123
O15   O     O_R   0.408360 0.460080 0.551690 -0.625071
O16   O     O_R   0.408420 0.356670 0.448300 -0.623628
O17   O     O_R   0.051710 0.908420 0.460050 -0.618586
O18   O     O_3   0.246219 0.089954 0.464917 -0.614896
O19   O     O_3   0.710108 0.757901 0.344319 -0.585515
O20   O     O_3   0.980734 0.753488 0.103191 -0.602974
O21   O     O_3   0.837936 0.113198 0.599425 -0.598538
O22   O     O_3   0.154703 0.255244 0.773225 -0.583614
O23   O     O_R   0.960120 0.908380 0.551680 -0.633452
O24   O     O_3   0.891440 0.923312 0.682993 -0.642215
O25   O     O_3   0.235859 0.653861 0.278706 -0.631285
O26   O     O_R   0.856660 0.908440 0.448310 -0.573627
O27   O     O_R   0.051740 0.091590 0.643330 -0.595343
O28   O     O_R   0.948290 0.091650 0.539960 -0.594353
O29   O     O_R   0.143330 0.091630 0.551690 -0.601825
O30   O     O_R   0.039880 0.091690 0.448320 -0.635752
O31   O     O_R   0.948270 0.540000 0.091680 -0.635418
Zn1   Zn    Zn3+2 0.499960 0.569050 0.569040 0.936391
Zn2   Zn    Zn3+2 0.500040 0.430950 0.430960 0.939002
Zn3   Zn    Zn3+2 0.069080 0.999990 0.569020 0.951161
Zn4   Zn    Zn3+2 0.930920 0.000070 0.430980 1.003016
Zn5   Zn    Zn3+2 0.930940 0.431040 0.000110 0.928543
Zn6   Zn    Zn3+2 0.069060 0.569140 0.000070 0.938412

loop_
_geom_bond_atom_site_label_1
_geom_bond_atom_site_label_2
_ccdc_geom_bond_type
C69   H66   S    
C66   C68   S    
C3    H12   S    
C18   O17   A    
C54   H28   S    
C35   C36   A    
C34   C66   S    
C63   H51   S    
C19   C46   S    
C7    C8    A    
C39   C41   A    
C27   C33   A    
C7    H23   S    
C12   C23   S    
C29   C30   A    
C25   O7    A    
C3    C9    A    
C32   C57   S    
C49   H11   S    
C36   C37   A    
O13   Zn1   S    
C19   O26   A    
C1    C2    S    
C30   C31   A    
C53   H22   S    
C10   C17   A    
C48   H5    S    
C64   H48   S    
C28   O15   A    
C59   H37   S    
C27   C29   A    
C67   C72   A    
C29   O20   S    
C68   H59   S    
C62   H44   S    
C24   C67   S    
C25   C37   S    
C66   H61   S    
O11   Zn2   S    
C35   O21   S    
C50   H17   S    
C20   O28   A    
C45   C56   A    
C16   C17   S    
C21   O30   A    
C55   H27   S    
C47   C48   S    
C59   H38   S    
C1    O4    A    
O6    Zn5   S    
C62   H47   S    
C34   H2    S    
C71   H68   S    
C43   H1    S    
C40   C42   A    
C62   O22   S    
C13   C14   A    
C16   O14   A    
C70   H63   S    
C1    O1    A    
C47   H7    S    
C35   C41   A    
C51   H13   S    
C44   C46   A    
C28   O16   A    
C20   C41   S    
C2    C45   A    
O31   Zn5   S    
C16   O13   A    
C65   H55   S    
C38   C39   A    
C47   C73   S    
O5    Zn6   S    
C24   O3    A    
C51   H14   S    
C8    C9    A    
O28   Zn4   S    
C50   C51   S    
C6    C21   S    
O1    Zn1   S    
C65   O24   S    
C60   C61   S    
O12   Zn4   S    
C72   O25   S    
C49   H9    S    
C12   C40   A    
C68   H58   S    
C43   C44   A    
O17   Zn3   S    
C38   H72   S    
C37   C38   A    
C10   H45   S    
C66   H60   S    
C50   H16   S    
C31   C32   A    
C23   O24   S    
C23   C34   S    
C60   H42   S    
C3    C5    A    
C48   H4    S    
C27   H71   S    
O3    Zn5   S    
C71   O25   S    
C4    O10   A    
C52   H20   S    
C68   H57   S    
C2    C73   A    
C62   H46   S    
C63   H52   S    
C59   O21   S    
C24   O5    A    
C52   O19   S    
C71   H69   S    
O27   Zn3   S    
C12   C46   A    
C20   O27   A    
O8    Zn5   S    
C21   O29   A    
C45   H3    S    
C61   H40   S    
C70   H62   S    
C34   C40   S    
O26   Zn4   S    
C26   O9    A    
C58   H31   S    
C42   C43   A    
O14   Zn2   S    
O7    Zn6   S    
C56   C67   A    
C8    H34   S    
C5    O18   S    
C48   H6    S    
C71   H70   S    
C15   H67   S    
C53   O20   S    
C69   H65   S    
C15   C17   A    
C54   C55   S    
C22   C30   S    
C4    O11   A    
C53   H21   S    
C54   H29   S    
C72   C73   A    
C36   C60   S    
C51   H15   S    
C22   O31   A    
C6    C7    A    
O23   Zn3   S    
C25   O6    A    
C58   H32   S    
C53   H24   S    
C32   C33   A    
C49   H10   S    
C65   H54   S    
C11   C50   S    
C65   H53   S    
C11   C13   A    
C57   C58   S    
C5    C6    A    
C4    C42   S    
C64   H49   S    
O9    Zn6   S    
C55   H25   S    
C23   C63   S    
O4    Zn2   S    
C59   H36   S    
C57   H33   S    
C47   H8    S    
C31   C54   S    
C39   O22   S    
C69   C70   S    
C13   C26   S    
C18   C33   S    
O15   Zn1   S    
C49   O18   S    
C60   H43   S    
C10   C11   A    
C26   O8    A    
O30   Zn4   S    
C63   C64   S    
C64   H50   S    
C57   H35   S    
C22   O2    A    
C70   H64   S    
C56   C69   S    
C19   O23   A    
C55   H26   S    
C61   H41   S    
C18   O12   A    
C14   C15   A    
C52   H18   S    
C58   H30   S    
C44   O19   S    
O16   Zn2   S    
C61   H39   S    
O29   Zn3   S    
C52   H19   S    
O10   Zn1   S    
C9    C28   S    
O2    Zn6   S    
C14   H56   S    
