data_mof_unit_53464.cif
_audit_creation_date              2012-10-26T19:00:11-0400
_audit_creation_method            fapswitch 2.2
_symmetry_space_group_name_H-M    P1
_symmetry_Int_Tables_number       1
_space_group_crystal_system       triclinic
_cell_length_a                    10.827524
_cell_length_b                    10.815319
_cell_length_c                    9.541099
_cell_angle_alpha                 90.557859
_cell_angle_beta                  90.35467
_cell_angle_gamma                 89.830155
_cell_volume                      1117.21344315

loop_
_atom_site_label
_atom_site_type_symbol
_atom_type_description
_atom_site_fract_x
_atom_site_fract_y
_atom_site_fract_z
_atom_type_partial_charge
C1    C     C_R   0.498180 0.262493 0.499224 0.546288
C2    C     C_R   0.842317 0.300108 0.954451 -0.112555
C3    C     C_R   0.781632 0.192844 0.909253 -0.105107
C4    C     C_R   0.262295 0.502751 0.499532 0.544004
C5    C     C_R   0.772222 0.165532 0.766050 -0.109417
C6    C     C_R   0.820793 0.246725 0.667802 -0.060415
C7    C     C_R   0.881917 0.354604 0.712461 0.052261
C8    C     C_R   0.431010 0.064925 0.601539 0.017026
C9    C     C_R   0.489338 0.129577 0.495017 0.008825
C10   C     C_R   0.532202 0.063451 0.377375 -0.171713
C11   C     C_R   0.533464 0.934576 0.378403 -0.170904
C12   C     C_R   0.245483 0.707911 0.033991 -0.098538
C13   C     C_R   0.492467 0.870986 0.497302 0.004784
C14   C     C_R   0.433574 0.938016 0.603146 0.013680
C15   C     C_3   0.442078 0.934460 0.759116 -0.271340
C16   C     C_R   0.499391 0.737682 0.500210 0.543191
C17   C     C_3   0.436651 0.075079 0.757504 -0.278215
C18   C     C_R   0.549051 0.597050 0.074872 0.166204
C19   C     C_R   0.440288 0.410793 0.073062 -0.004721
C20   C     C_R   0.440329 0.410768 0.924166 -0.010775
C21   C     C_R   0.547781 0.597799 0.927551 0.151305
C22   C     C_3   0.676558 0.645227 0.921507 -0.276252
C23   C     C_R   0.932227 0.555374 0.392533 -0.157954
C24   C     C_3   0.679310 0.641247 0.080439 -0.280716
C25   C     C_R   0.737627 0.496916 0.500452 0.544994
C26   C     C_R   0.255563 0.767820 0.164069 -0.096187
C27   C     C_R   0.192132 0.722198 0.279757 -0.054834
C28   C     C_R   0.119043 0.615648 0.265430 0.050985
C29   C     C_R   0.107666 0.557501 0.133794 -0.099306
C30   C     C_R   0.170933 0.603542 0.018507 -0.114180
C31   C     C_R   0.871529 0.495125 0.501099 -0.004523
C32   C     C_R   0.939565 0.436572 0.608326 -0.032999
C33   C     C_R   0.067478 0.445930 0.608414 -0.154720
C34   C     C_R   0.128263 0.505242 0.499010 -0.001138
C35   C     C_R   0.060138 0.559284 0.388651 -0.032899
C36   C     C_R   0.894027 0.379818 0.856478 -0.108612
Cu1   Cu    Cu3+1 0.499990 0.499980 0.640670 0.935407
Cu2   Cu    Cu3+1 0.500010 0.500020 0.359330 0.937349
H1    H     H_    0.296550 0.741019 0.945409 0.102664
H2    H     H_    0.393601 0.337488 0.127677 0.114663
H3    H     H_    0.313832 0.848472 0.175645 0.105520
H4    H     H_    0.393422 0.337664 0.867389 0.108580
H5    H     H_    0.741288 0.579054 0.871483 0.165909
H6    H     H_    0.680578 0.740646 0.879794 0.112797
H7    H     H_    0.743916 0.569898 0.120923 0.143889
H8    H     H_    0.687695 0.734114 0.130316 0.113535
H9    H     H_    0.202317 0.767663 0.380818 0.096142
H10   H     H_    0.052661 0.474576 0.121756 0.093668
H11   H     H_    0.163943 0.557154 0.917735 0.111938
H12   H     H_    0.742719 0.130466 0.985126 0.096372
H13   H     H_    0.879915 0.600513 0.310473 0.119144
H14   H     H_    0.120229 0.399950 0.689852 0.122290
H15   H     H_    0.941933 0.461990 0.892365 0.088575
H16   H     H_    0.850146 0.321008 0.065338 0.105537
H17   H     H_    0.572356 0.885411 0.289568 0.123556
H18   H     H_    0.727768 0.081173 0.730924 0.101373
H19   H     H_    0.812740 0.224527 0.557162 0.093472
H20   H     H_    0.570994 0.110759 0.288336 0.126333
H21   H     H_    0.358545 0.893178 0.805621 0.129617
H22   H     H_    0.531845 0.897455 0.797407 0.131812
H23   H     H_    0.349430 0.112744 0.801786 0.124015
H24   H     H_    0.521747 0.120149 0.797575 0.145378
N1    N     N_R   0.500790 0.500930 0.147930 -0.225134
N2    N     N_R   0.500790 0.500890 0.852020 -0.227977
O1    O     O_R   0.500000 0.319640 0.618810 -0.502661
O2    O     O_R   0.500010 0.319680 0.381230 -0.516028
O3    O     O_R   0.319640 0.499990 0.618790 -0.515505
O4    O     O_R   0.319650 0.500030 0.381210 -0.485921
O5    O     O_R   0.499990 0.680320 0.618770 -0.501613
O6    O     O_R   0.500000 0.680360 0.381190 -0.505367
O7    O     O_R   0.680350 0.499970 0.618790 -0.491444
O8    O     O_R   0.680360 0.500010 0.381210 -0.513412

loop_
_geom_bond_atom_site_label_1
_geom_bond_atom_site_label_2
_ccdc_geom_bond_type
C8    C17   S    
C20   N2    A    
C4    O3    A    
C1    O1    A    
Cu2   O6    S    
C25   C31   S    
C29   C30   A    
C25   O7    A    
C36   H15   S    
Cu1   O5    S    
C17   H24   S    
C18   C21   A    
C7    C36   A    
C5    H18   S    
C23   H13   S    
C19   C20   A    
C33   C34   A    
C24   H8    S    
C32   C33   A    
C12   H1    S    
C2    C3    A    
C11   H17   S    
C15   H22   S    
C25   O8    A    
C21   C22   S    
C33   H14   S    
C20   H4    S    
C11   C13   A    
C6    H19   S    
C26   C27   A    
C6    C7    A    
C15   H21   S    
C18   C24   S    
C24   H7    S    
Cu1   O3    S    
C22   C24   S    
C27   H9    S    
C28   C29   A    
C10   H20   S    
Cu1   Cu2   S    
Cu2   O4    S    
C1    O2    A    
C23   C35   A    
C10   C11   A    
Cu1   O7    S    
C4    C34   S    
C2    H16   S    
C5    C6    A    
C34   C35   A    
Cu2   O8    S    
C18   N1    A    
C19   H2    S    
C29   H10   S    
C2    C36   A    
C3    H12   S    
C1    C9    S    
Cu2   O2    S    
Cu1   N2    S    
C16   O6    A    
C28   C35   S    
C4    O4    A    
Cu2   N1    S    
C9    C10   A    
C13   C16   S    
C12   C26   A    
C27   C28   A    
C15   C17   S    
C14   C15   S    
C21   N2    A    
C8    C14   A    
C7    C32   S    
C17   H23   S    
C13   C14   A    
C12   C30   A    
C30   H11   S    
C31   C32   A    
C22   H6    S    
C16   O5    A    
C22   H5    S    
C26   H3    S    
C19   N1    A    
C8    C9    A    
C3    C5    A    
C23   C31   A    
Cu1   O1    S    
