data_mof_unit_9460.cif
_audit_creation_date              2012-12-11T14:23:03-0500
_audit_creation_method            fapswitch 2.2
_symmetry_space_group_name_H-M    P1
_symmetry_Int_Tables_number       1
_space_group_crystal_system       triclinic
_cell_length_a                    10.986354
_cell_length_b                    10.965467
_cell_length_c                    18.868431
_cell_angle_alpha                 90.727228
_cell_angle_beta                  90.491243
_cell_angle_gamma                 60.574285
_cell_volume                      1979.6792211

loop_
_atom_site_label
_atom_site_type_symbol
_atom_type_description
_atom_site_fract_x
_atom_site_fract_y
_atom_site_fract_z
_atom_type_partial_charge
C1    C     C_R   0.235242 0.645567 0.609455 0.540756
C2    C     C_3   0.728863 0.503714 0.804456 -0.233645
C3    C     C_3   0.687949 0.658962 0.817001 0.053795
C4    C     C_3   0.647075 0.617878 0.683933 0.037990
C5    C     C_3   0.745953 0.680842 0.689236 -0.222999
C6    C     C_3   0.711260 0.478850 0.725455 -0.234264
C7    C     C_R   0.719777 0.087007 0.812609 -0.018861
C8    C     C_R   0.815451 0.118125 0.776980 0.020008
C9    C     C_R   0.807410 0.129389 0.701701 0.020937
C10   C     C_R   0.602855 0.100099 0.700940 -0.155310
C11   C     C_R   0.619328 0.072891 0.772328 -0.170540
C12   C     C_R   0.628691 0.588665 0.608623 0.557210
C13   C     C_R   0.916654 0.141564 0.812221 -0.124660
C14   C     C_R   0.017983 0.154676 0.774182 -0.164575
C15   C     C_R   0.021202 0.144488 0.700718 -0.153540
C16   C     C_R   0.917102 0.131971 0.664618 -0.100384
C17   C     C_R   0.688503 0.139985 0.665957 -0.003344
C18   C     C_R   0.173001 0.676872 0.832596 -0.010921
C19   C     C_R   0.213818 0.547494 0.799086 0.005596
C20   C     C_R   0.202594 0.542306 0.724180 -0.020633
C21   C     C_R   0.159363 0.782066 0.719079 -0.166162
C22   C     C_R   0.153951 0.790420 0.791941 -0.175375
C23   C     C_R   0.632212 0.221876 0.600499 0.543848
C24   C     C_R   0.271453 0.421882 0.838337 0.294374
C25   C     C_R   0.283393 0.301109 0.806604 -0.093242
C26   C     C_R   0.251106 0.300874 0.735164 -0.188250
C27   C     C_R   0.212504 0.419189 0.693894 -0.102357
C28   C     C_R   0.185322 0.659336 0.683436 -0.009994
C29   C     C_R   0.721233 0.697072 0.181641 -0.043536
C30   C     C_R   0.781202 0.559338 0.209670 0.029649
C31   C     C_R   0.725342 0.541674 0.271500 -0.024127
C32   C     C_R   0.642657 0.785984 0.300858 0.177930
C33   C     C_R   0.656852 0.810742 0.229154 -0.152695
C34   C     C_R   0.273693 0.626688 0.392074 0.528405
C35   C     C_R   0.897571 0.438170 0.180615 -0.082835
C36   C     C_R   0.935855 0.306954 0.204127 -0.145476
C37   C     C_R   0.864548 0.290324 0.258759 -0.103470
C38   C     C_R   0.748582 0.406864 0.286432 -0.077241
C39   C     C_R   0.665103 0.653790 0.320581 0.003493
C40   C     C_R   0.656781 0.151733 0.177016 0.003422
C41   C     C_R   0.522179 0.232654 0.204342 0.005060
C42   C     C_R   0.503326 0.226460 0.277341 0.045682
C43   C     C_R   0.753712 0.087646 0.295347 -0.140551
C44   C     C_R   0.768170 0.071453 0.222912 -0.167396
C45   C     C_R   0.643837 0.623045 0.393238 0.580940
C46   C     C_R   0.405019 0.302105 0.159681 -0.083864
C47   C     C_R   0.274306 0.332436 0.183154 -0.114286
C48   C     C_R   0.257474 0.301504 0.252261 -0.161208
C49   C     C_R   0.368652 0.254558 0.299928 -0.063554
C50   C     C_R   0.624034 0.178123 0.322529 0.054029
C51   C     C_R   0.069968 0.735771 0.194168 -0.005600
C52   C     C_R   0.134966 0.811781 0.222891 0.042963
C53   C     C_R   0.225137 0.751630 0.279316 0.012437
C54   C     C_R   0.119742 0.606375 0.302445 -0.118109
C55   C     C_R   0.056767 0.640235 0.236472 -0.159734
C56   C     C_R   0.612512 0.229839 0.394837 0.561260
C57   C     C_R   0.124444 0.937438 0.194351 -0.089271
C58   C     C_R   0.223013 0.977738 0.210113 -0.139438
C59   C     C_R   0.321030 0.907477 0.260698 -0.106524
C60   C     C_R   0.324641 0.793154 0.292971 -0.080979
C61   C     C_R   0.211644 0.654315 0.322057 0.004537
C62   C     C_R   0.724924 0.051052 0.888501 0.540729
C63   C     C_R   0.718987 0.683439 0.890700 0.536797
C64   C     C_R   0.116665 0.707660 0.905098 0.579726
C65   C     C_R   0.676550 0.106116 0.103965 0.511296
C66   C     C_R   0.735578 0.716574 0.105470 0.545023
C67   C     C_3   0.531098 0.750473 0.797440 -0.237207
C68   C     C_R   0.029616 0.748388 0.119370 0.520922
C69   C     C_3   0.506138 0.720922 0.719947 -0.235899
C70   C     C_3   0.778336 0.694140 0.767327 -0.230605
Cr1   Cr    Cr6+3 0.392940 0.397950 0.502230 1.012266
Cr2   Cr    Cr6+3 0.398400 0.708500 0.501260 1.037636
Cr3   Cr    Cr6+3 0.708640 0.393530 0.496460 1.000961
Cr4   Cr    Cr6+3 0.937880 0.938320 0.007620 0.973728
Cr5   Cr    Cr6+3 0.625560 0.937220 0.994510 1.001356
Cr6   Cr    Cr6+3 0.938080 0.625010 0.001190 1.005688
H1    H     H_    0.497762 0.863342 0.803701 0.121843
H2    H     H_    0.815207 0.406407 0.702950 0.166195
H3    H     H_    0.891351 0.621450 0.777554 0.139609
H4    H     H_    0.845874 0.613661 0.660907 0.144177
H5    H     H_    0.517241 0.096776 0.673829 0.143463
H6    H     H_    0.920085 0.152864 0.868664 0.152788
H7    H     H_    0.549886 0.042140 0.796476 0.131468
H8    H     H_    0.096260 0.169390 0.802134 0.115116
H9    H     H_    0.103265 0.147591 0.671113 0.109248
H10   H     H_    0.925782 0.120812 0.607628 0.145271
H11   H     H_    0.151302 0.870263 0.690543 0.159881
H12   H     H_    0.465478 0.727622 0.833604 0.111843
H13   H     H_    0.133797 0.887451 0.816823 0.162037
H14   H     H_    0.321085 0.206289 0.837070 0.126312
H15   H     H_    0.262624 0.206129 0.710907 0.100276
H16   H     H_    0.186653 0.413242 0.639142 0.154007
H17   H     H_    0.969736 0.440133 0.143433 0.143445
H18   H     H_    0.622751 0.915999 0.211420 0.155709
H19   H     H_    0.020745 0.220438 0.178916 0.096630
H20   H     H_    0.905417 0.188587 0.281305 0.128891
H21   H     H_    0.437307 0.673428 0.719224 0.128604
H22   H     H_    0.682652 0.394150 0.322844 0.145390
H23   H     H_    0.843865 0.033120 0.329693 0.141498
H24   H     H_    0.415255 0.322039 0.104833 0.131415
H25   H     H_    0.865861 0.993182 0.202586 0.126863
H26   H     H_    0.188466 0.374803 0.146337 0.121330
H27   H     H_    0.157030 0.318209 0.269915 0.120113
H28   H     H_    0.347790 0.229488 0.351838 0.185577
H29   H     H_    0.101230 0.538537 0.336566 0.146267
H30   H     H_    0.043454 0.005118 0.158142 0.148010
H31   H     H_    0.000296 0.590432 0.218040 0.117991
H32   H     H_    0.451871 0.821639 0.690905 0.136145
H33   H     H_    0.227451 0.060953 0.182409 0.116325
H34   H     H_    0.390854 0.945446 0.274843 0.178081
H35   H     H_    0.406954 0.732594 0.326686 0.146060
H36   H     H_    0.760591 0.801006 0.778156 0.121785
H37   H     H_    0.696048 0.785743 0.664072 0.138838
H38   H     H_    0.839390 0.433587 0.820110 0.152821
H39   H     H_    0.662801 0.475897 0.837308 0.096545
H40   H     H_    0.644214 0.429314 0.720008 0.113936
O1    O     O_R   0.507340 0.255690 0.581430 -0.510318
O2    O     O_R   0.524510 0.695820 0.424050 -0.488055
O3    O     O_R   0.736370 0.504260 0.414810 -0.520594
O4    O     O_R   0.691220 0.277270 0.422180 -0.528679
O5    O     O_3   0.499990 0.499990 0.499980 -0.295171
O6    O     O_R   0.089570 0.825450 0.930590 -0.540982
O7    O     O_R   0.818700 0.054260 0.929860 -0.522623
O8    O     O_R   0.606310 0.077010 0.915520 -0.517260
O9    O     O_R   0.646730 0.806540 0.917560 -0.516108
O10   O     O_R   0.837290 0.593240 0.915240 -0.523050
O11   O     O_R   0.065320 0.635310 0.931580 -0.455996
O12   O     O_R   0.280360 0.527380 0.578910 -0.507979
O13   O     O_R   0.068470 0.828620 0.091850 -0.530414
O14   O     O_R   0.799150 0.057200 0.079350 -0.528122
O15   O     O_R   0.585220 0.080180 0.076770 -0.526376
O16   O     O_R   0.627170 0.809480 0.067050 -0.484677
O17   O     O_R   0.816200 0.596410 0.076500 -0.537249
O18   O     O_R   0.045770 0.638240 0.081070 -0.525266
O19   O     O_3   0.833840 0.833520 0.001110 -0.298498
O20   O     O_R   0.260600 0.739610 0.584580 -0.529365
O21   O     O_R   0.532370 0.695050 0.573830 -0.493480
O22   O     O_R   0.744850 0.503430 0.576380 -0.520288
O23   O     O_R   0.699080 0.276500 0.571950 -0.526198
O24   O     O_R   0.498860 0.256520 0.419860 -0.512809
O25   O     O_R   0.272490 0.528150 0.429140 -0.508603
O26   O     O_R   0.252110 0.740440 0.423010 -0.503662
O27   O     O_3   0.325405 0.413118 0.905989 -0.549743
C71   C     C_3   0.448215 0.424639 0.901185 0.016054
H41   H     H_    0.427030 0.526455 0.878758 0.103801
H42   H     H_    0.526272 0.340424 0.866499 0.136581
C72   C     C_3   0.513788 0.411250 0.974349 -0.246970
H43   H     H_    0.530316 0.313293 0.999209 0.201552
H44   H     H_    0.617638 0.404226 0.968270 0.124574
C73   C     C_3   0.423062 0.536543 0.022193 -0.388704
H45   H     H_    0.408762 0.634921 0.998346 0.158928
H46   H     H_    0.474711 0.523000 0.074625 0.138579
H47   H     H_    0.319147 0.545033 0.030234 0.212031
Cl1   Cl    Cl    0.591326 0.919935 0.364916 -0.654453

loop_
_geom_bond_atom_site_label_1
_geom_bond_atom_site_label_2
_ccdc_geom_bond_type
C45   O2    A    
C21   H11   S    
C34   O25   A    
C8    C13   A    
Cr3   O3    S    
Cr2   O5    S    
C58   H33   S    
Cr6   O10   S    
C41   C42   A    
C19   C20   A    
C67   H1    S    
C1    O12   A    
C14   H8    S    
C38   H22   S    
C33   H18   S    
C49   H28   S    
C62   O8    A    
C65   O14   A    
C7    C8    A    
C52   C53   A    
Cr2   O26   S    
C26   C27   A    
C17   C23   S    
C30   C35   A    
C64   O6    A    
C23   O23   A    
C36   C37   A    
C72   H44   S    
C9    C16   A    
C43   H23   S    
C30   C31   A    
C56   O24   A    
Cr5   O19   S    
C6    H2    S    
Cr3   O22   S    
C10   C17   A    
C15   C16   A    
C29   C33   A    
C59   H34   S    
C18   C19   A    
C32   C39   A    
C4    C69   S    
C72   H43   S    
C54   C55   A    
C53   C61   A    
C69   H32   S    
C35   C36   A    
C8    C9    A    
C73   H47   S    
C1    C28   S    
C41   C46   A    
C4    C12   S    
C1    O20   A    
C51   C55   A    
Cr1   O25   S    
C45   O3    A    
Cr4   O7    S    
C59   C60   A    
Cr3   O4    S    
C21   C22   A    
C16   H10   S    
C56   O4    A    
C2    C6    S    
C71   C72   S    
C62   O7    A    
C65   O15   A    
Cr6   O19   S    
Cr5   O15   S    
C54   C61   A    
C66   O16   A    
C35   H17   S    
Cr2   O21   S    
Cr1   O1    S    
Cr5   O8    S    
C72   C73   S    
C24   C25   A    
C4    C6    S    
C10   C11   A    
Cr6   O18   S    
C4    C5    S    
Cr3   O23   S    
C11   H7    S    
C26   H15   S    
C48   H27   S    
C13   H6    S    
C34   C61   S    
C50   C56   S    
C15   H9    S    
C51   C52   A    
C37   H20   S    
C55   H31   S    
C67   C69   S    
C7    C11   A    
C43   C44   A    
C7    C62   S    
C37   C38   A    
C66   O17   A    
C2    H39   S    
C47   C48   A    
C14   C15   A    
Cr6   O17   S    
C64   O11   A    
Cr4   O19   S    
C3    C70   S    
C53   C60   A    
C25   H14   S    
C27   H16   S    
C5    H4    S    
C6    H40   S    
C63   O9    A    
C70   H36   S    
C42   C50   A    
C32   Cl1   S    
C71   H42   S    
C40   C41   A    
Cr4   O6    S    
C21   C28   A    
Cr3   O5    S    
C40   C65   S    
Cr4   O14   S    
C73   H46   S    
Cr1   O12   S    
C58   C59   A    
C57   H30   S    
Cr5   O16   S    
C9    C17   A    
C46   H24   S    
C46   C47   A    
C34   O26   A    
C54   H29   S    
C5    H37   S    
C70   H3    S    
C18   C22   A    
Cr1   O5    S    
C3    C67   S    
C71   H41   S    
C5    C70   S    
C23   O1    A    
C44   H25   S    
C43   C50   A    
C67   H12   S    
Cr1   O24   S    
C20   C27   A    
C3    C63   S    
C20   C28   A    
C10   H5    S    
C73   H45   S    
C31   C38   A    
C39   C45   S    
C32   C33   A    
C68   O18   A    
C2    C3    S    
C25   C26   A    
C60   H35   S    
C2    H38   S    
C36   H19   S    
C18   C64   S    
C57   C58   A    
C48   C49   A    
C22   H13   S    
C31   C39   A    
C19   C24   A    
C12   O22   A    
C51   C68   S    
C68   O13   A    
C63   O10   A    
Cr2   O20   S    
C52   C57   A    
C42   C49   A    
C29   C30   A    
C29   C66   S    
C40   C44   A    
Cr4   O13   S    
Cr2   O2    S    
C47   H26   S    
Cr6   O11   S    
C12   O21   A    
C24   O27   S    
Cr5   O9    S    
C13   C14   A    
O27   C71   S    
C69   H21   S    
