data_mof_unit_52711.cif
_audit_creation_date              2013-03-05T16:12:33-0500
_audit_creation_method            fapswitch 2.2
_symmetry_space_group_name_H-M    P1
_symmetry_Int_Tables_number       1
_space_group_crystal_system       triclinic
_cell_length_a                    8.315725
_cell_length_b                    16.383241
_cell_length_c                    19.069698
_cell_angle_alpha                 112.02572
_cell_angle_beta                  91.478694
_cell_angle_gamma                 83.121147
_cell_volume                      2390.55982205

loop_
_atom_site_label
_atom_site_type_symbol
_atom_site_description
_atom_site_fract_x
_atom_site_fract_y
_atom_site_fract_z
_atom_type_partial_charge
P1    P     P_3+3 0.586140 0.411610 0.321630 0.503934
O1    O     O_2   0.405910 0.437000 0.315050 -0.320196
O2    O     O_3   0.650250 0.445090 0.405140 -0.427471
O3    O     O_3   0.110870 0.602570 0.387980 -0.326314
O4    O     O_2   0.191091 0.505623 0.249409 -0.383519
O5    O     O_3   0.608116 0.295700 0.283105 -0.544915
O6    O     O_3   0.152559 0.674098 0.273301 -0.490522
C1    C     C_3   0.035574 0.779235 0.222103 -0.953188
H1    H     H_    0.003022 0.725507 0.169687 0.220236
P2    P     P_3+3 0.070040 0.709050 0.593050 0.497734
P3    P     P_3+3 0.495497 0.766360 0.459334 0.534018
O7    O     O_2   0.240060 0.720390 0.573650 -0.324694
O8    O     O_3   0.508300 0.651290 0.432440 -0.353219
O9    O     O_2   0.353636 0.809885 0.516652 -0.286700
O10   O     O_3   0.074341 0.738814 0.691376 -0.545021
O11   O     O_3   0.433521 0.796417 0.382998 -0.519025
C2    C     C_3   0.551863 0.763215 0.324654 0.912900
H2    H     H_    0.669449 0.737326 0.342060 -0.109764
C3    C     C_3   0.584690 0.838639 0.300065 -1.006761
H3    H     H_    0.646033 0.888313 0.345901 0.234045
C4    C     C_3   0.627563 0.738042 0.665645 0.227215
H4    H     H_    0.548987 0.719746 0.615345 0.119718
C5    C     C_3   0.612763 0.838891 0.703957 -0.088195
H5    H     H_    0.695575 0.857960 0.752752 0.142867
H6    H     H_    0.649024 0.868225 0.663903 0.059873
Ba1   Ba    Ba6+2 0.334020 0.539200 0.472300 1.649999
C6    C     C_3   0.565410 0.262925 0.337052 0.425362
H7    H     H_    0.442068 0.292216 0.360196 0.084440
H8    H     H_    0.653246 0.277550 0.383756 0.115554
C7    C     C_3   0.568770 0.162860 0.298096 -0.887517
H9    H     H_    0.540363 0.133369 0.339005 0.202023
C8    C     C_3   0.143024 0.665994 0.708026 0.449563
H10   H     H_    0.267422 0.644526 0.683919 0.075663
H11   H     H_    0.069008 0.610006 0.685378 0.126604
C9    C     C_3   0.149321 0.693206 0.793479 -0.931297
H12   H     H_    0.230140 0.745865 0.817611 0.295118
H13   H     H_    0.196236 0.635361 0.807975 0.201478
H14   H     H_    0.025837 0.718413 0.818875 0.264406
P4    P     P_3+3 0.603540 0.588460 0.678390 0.487232
O12   O     O_2   0.783780 0.563030 0.685000 -0.348620
O13   O     O_3   0.539430 0.554980 0.594880 -0.420730
O14   O     O_3   0.078810 0.397510 0.612040 -0.349735
O15   O     O_3   0.579686 0.704204 0.717981 -0.547455
P5    P     P_3+3 0.698874 0.233518 0.541934 0.483279
O16   O     O_3   0.165590 0.389880 0.444220 -0.411834
O17   O     O_3   0.681380 0.348790 0.567580 -0.343742
O18   O     O_2   0.841971 0.190737 0.485163 -0.369105
O19   O     O_3   0.763347 0.205531 0.618856 -0.565735
Ba2   Ba    Ba6+2 0.855780 0.460880 0.527720 1.599912
P6    P     P_3+3 0.077441 0.590035 0.294215 0.508038
C10   C     C_3   0.035901 0.748935 0.288934 0.952559
H15   H     H_    0.911398 0.735113 0.295140 -0.194233
O20   O     O_3   0.024090 0.610190 0.555810 -0.432574
C11   C     C_3   0.060032 0.314890 0.284107 0.264506
H16   H     H_    0.936415 0.339763 0.309325 0.039506
C12   C     C_3   0.047970 0.283669 0.198272 -0.102925
H17   H     H_    0.961807 0.233209 0.178490 0.144590
H18   H     H_    0.000225 0.340193 0.181949 0.047602
P7    P     P_3+3 0.129192 0.278213 0.401887 0.454012
O21   O     O_2   0.949630 0.279650 0.426400 -0.349161
O22   O     O_3   0.127478 0.243484 0.303333 -0.549662
C13   C     C_3   0.645076 0.238223 0.677302 0.866395
C14   C     C_3   0.613201 0.162441 0.701415 -0.936211
H19   H     H_    0.727139 0.132132 0.717804 0.256615
H20   H     H_    0.526444 0.187492 0.750242 0.259693
H21   H     H_    0.560741 0.110577 0.653728 0.262821
P8    P     P_3+3 0.114736 0.408029 0.704897 0.490941
C15   C     C_3   0.157093 0.243463 0.687115 0.239188
H22   H     H_    0.281182 0.255327 0.707716 0.008931
O23   O     O_2   0.998556 0.490306 0.751843 -0.385058
O24   O     O_3   0.047802 0.319919 0.721850 -0.455253
C16   C     C_3   0.107632 0.169081 0.708805 -0.088192
H23   H     H_    0.994845 0.145863 0.679910 0.153805
H24   H     H_    0.083778 0.194826 0.771054 0.163162
C17   C     C_R   0.528330 0.553888 0.811625 -0.317027
H25   H     H_    0.591687 0.609807 0.843616 0.141058
C18   C     C_R   0.501869 0.536858 0.733777 0.364480
C19   C     C_R   0.388156 0.428606 0.798795 -0.246630
H26   H     H_    0.361745 0.374441 0.814056 0.133920
C20   C     C_R   0.320751 0.433548 0.732339 0.151002
C21   C     C_R   0.802172 0.570030 0.200886 -0.248235
H27   H     H_    0.825862 0.625372 0.186865 0.126699
C22   C     C_R   0.872616 0.562964 0.266091 0.151943
C23   C     C_R   0.658771 0.445824 0.187612 -0.310625
H28   H     H_    0.591468 0.391521 0.155977 0.171050
C24   C     C_R   0.689525 0.460847 0.264896 0.339913
C25   C     C_R   0.483923 0.493989 0.844906 0.152178
C26   C     C_R   0.390326 0.479982 0.696431 -0.388191
H29   H     H_    0.348774 0.476462 0.641229 0.136636
C27   C     C_R   0.704564 0.505858 0.154691 0.150088
C28   C     C_R   0.805760 0.514783 0.301074 -0.387759
H30   H     H_    0.850475 0.516043 0.355247 0.143573
C29   C     C_R   0.283404 0.448866 0.952317 -0.187515
C30   C     C_R   0.196581 0.414552 0.993799 -0.100029
C31   C     C_R   0.239746 0.427933 0.067095 -0.076812
C32   C     C_R   0.376641 0.468919 0.095735 -0.069160
C33   C     C_R   0.490853 0.481734 0.048328 0.072219
C34   C     C_R   0.439377 0.475310 0.973809 0.086694
C35   C     C_R   0.647753 0.504770 0.075727 -0.025163
C36   C     C_R   0.747545 0.527404 0.026625 0.097725
C37   C     C_R   0.695961 0.520990 0.952125 0.086647
C38   C     C_R   0.539771 0.496937 0.924433 -0.028509
C39   C     C_R   0.902738 0.555113 0.048278 -0.200920
C40   C     C_R   0.988169 0.590496 0.007106 -0.105014
C41   C     C_R   0.944208 0.577811 0.934045 -0.131957
C42   C     C_R   0.809102 0.535345 0.905128 -0.085872
H31   H     H_    0.218271 0.459020 0.906596 0.143272
H32   H     H_    0.389525 0.491638 0.155635 0.216768
H33   H     H_    0.968926 0.545115 0.093722 0.132573
H34   H     H_    0.101013 0.616732 0.028028 0.150676
H35   H     H_    0.022127 0.594407 0.898028 0.148274
H36   H     H_    0.796844 0.512898 0.845309 0.214940
C43   C     C_2   0.391216 0.240359 0.488336 -0.508915
C44   C     C_R   0.800163 0.752053 0.518826 -0.478098
C45   C     C_2   0.237073 0.118825 0.414303 -0.264937
C46   C     C_2   0.257213 0.204917 0.437943 0.282335
C47   C     C_2   0.515052 0.185419 0.498263 0.166554
C48   C     C_3   0.516432 0.086000 0.458094 -0.070293
C49   C     C_3   0.343827 0.058373 0.443109 0.217977
C50   C     C_2   0.627480 0.032932 0.493598 -0.181152
C51   C     C_2   0.584412 0.961552 0.504709 -0.127381
C52   C     C_R   0.840847 0.931296 0.566619 0.092391
C53   C     C_R   0.703260 0.900592 0.525622 -0.005309
C54   C     C_R   0.954304 0.873487 0.585571 -0.169785
C55   C     C_R   0.934011 0.783591 0.561320 0.311575
C56   C     C_R   0.681307 0.810497 0.503686 0.110279
H37   H     H_    0.139372 0.092754 0.376760 0.187103
H38   H     H_    0.056823 0.898936 0.619140 0.213559
H39   H     H_    0.395357 0.311602 0.511862 0.167654
H40   H     H_    0.783276 0.682788 0.501648 0.163203
H41   H     H_    0.752797 0.047907 0.502928 0.206511
N1    N     N_R   0.075705 0.818853 0.359398 0.238939
O25   O     O_R   0.076089 0.804685 0.422103 -0.372452
O26   O     O_R   0.107535 0.895609 0.361128 -0.419106
N2    N     N_R   0.446336 0.874118 0.730098 0.303556
O27   O     O_R   0.340599 0.889491 0.683359 -0.305007
O28   O     O_R   0.399178 0.882297 0.797426 -0.322158
H42   H     H_    0.477820 0.147001 0.252635 0.298840
H43   H     H_    0.691093 0.132828 0.272953 0.262050
H44   H     H_    0.157470 0.795724 0.213516 0.292153
H45   H     H_    0.945607 0.838550 0.232412 0.236107
H46   H     H_    0.137167 0.369702 0.303911 0.130867
N3    N     N_R   0.206441 0.245732 0.162397 0.285491
O29   O     O_R   0.311644 0.297884 0.160184 -0.380159
O30   O     O_R   0.247020 0.159969 0.136648 -0.331438
H47   H     H_    0.665096 0.812734 0.248975 0.242764
N4    N     N_R   0.705297 0.310573 0.739779 0.230264
O31   O     O_R   0.734766 0.380606 0.728232 -0.355276
O32   O     O_R   0.737268 0.305165 0.805219 -0.429452
H48   H     H_    0.526893 0.264040 0.660283 -0.119634
H49   H     H_    0.155727 0.222901 0.624418 0.110676
N5    N     N_R   0.235112 0.094501 0.687842 0.236626
O33   O     O_R   0.312145 0.073769 0.740244 -0.331728
O34   O     O_R   0.266617 0.045705 0.616871 -0.405589
N6    N     N_R   0.491432 0.690657 0.262478 0.229434
O35   O     O_R   0.462940 0.620648 0.274291 -0.365667
O36   O     O_R   0.461730 0.695111 0.196558 -0.435046
H50   H     H_    0.083176 0.388976 0.972974 0.155574
H51   H     H_    0.159688 0.413081 0.103374 0.161910
H52   H     H_    0.469330 0.871745 0.287428 0.286627
H53   H     H_    0.462155 0.943331 0.491698 0.222421
H54   H     H_    0.755311 0.712635 0.648012 0.055237

loop_
_geom_bond_atom_site_label_1
_geom_bond_atom_site_label_2
_geom_bond_distance
_ccdc_geom_bond_type
C19   C25   1.420060 A    
C14   H20   1.110425 S    
C29   C30   1.386835 A    
C7    H42   1.111473 S    
C6    H8    1.110155 S    
C50   H41   1.093965 S    
C31   C32   1.386020 A    
C21   H27   1.076900 S    
O2    Ba2   2.810411 S    
N2    O27   1.306100 A    
P4    O13   1.578680 S    
C42   H36   1.065470 S    
O17   Ba2   2.791991 S    
C37   C38   1.432567 A    
Ba2   O21   2.894463 S    
C43   H39   1.086683 S    
C31   H51   1.081611 S    
C3    H52   1.110834 S    
P4    C18   1.852609 S    
N4    O32   1.302299 A    
C23   C24   1.421813 A    
C24   C28   1.379852 A    
C7    H9    1.103362 S    
C44   C56   1.393905 A    
P3    O9    1.541194 D    
C19   C20   1.398644 A    
N6    O36   1.301937 A    
O12   Ba2   2.871023 S    
C37   C42   1.413620 A    
C45   H37   1.085743 S    
C12   H17   1.110474 S    
N2    O28   1.305576 A    
P1    O1    1.521550 D    
P2    O20   1.595344 S    
C48   C49   1.544070 S    
Ba1   O16   2.834184 S    
C33   C35   1.432700 A    
C4    O15   1.396537 S    
C12   N3    1.456819 S    
N4    O31   1.297933 A    
C18   C26   1.382404 A    
C1    H1    1.109225 S    
C16   N5    1.456634 S    
C5    H5    1.112697 S    
C1    H45   1.110344 S    
C7    H43   1.111315 S    
P2    C55   1.823488 S    
P5    O18   1.541712 D    
C54   H38   1.080385 S    
C43   C46   1.477694 S    
P2    Ba1   3.443273 S    
C39   H33   1.068185 S    
C32   H32   1.067318 S    
C14   H21   1.108163 S    
P7    O21   1.570996 D    
C30   H50   1.083106 S    
C4    H4    1.111653 S    
C6    C7    1.522139 S    
C44   H40   1.082472 S    
C23   C27   1.439337 A    
O13   Ba2   2.942605 S    
C40   C41   1.375752 A    
C21   C22   1.398867 A    
P5    O17   1.752709 S    
P6    C22   1.827806 S    
C33   C34   1.442535 A    
N6    O35   1.297717 A    
C11   C12   1.525380 S    
P7    O22   1.747725 S    
C3    H47   1.109903 S    
C10   H15   1.104433 S    
C8    C9    1.520938 S    
O10   C8    1.400663 S    
C9    H14   1.110672 S    
C23   H28   1.080721 S    
C16   H24   1.114884 S    
Ba1   Ba2   4.586457 S    
C28   H30   1.082553 S    
C44   C55   1.392723 A    
C19   H26   1.078926 S    
P7    C46   1.823018 S    
C53   C56   1.408728 A    
P4    O15   1.746134 S    
C34   C38   1.439010 A    
C36   C39   1.419268 A    
P1    O5    1.748322 S    
O7    Ba1   2.894290 S    
P1    O2    1.578680 S    
C9    H12   1.110352 S    
C8    H11   1.109556 S    
C17   H25   1.081153 S    
C13   C14   1.528536 S    
C25   C38   1.559508 S    
P3    O11   1.750794 S    
O19   C13   1.406778 S    
O5    C6    1.397005 S    
O16   Ba2   2.937766 S    
C15   C16   1.527142 S    
C51   H53   1.090130 S    
C32   C33   1.413453 A    
P3    C56   1.834993 S    
C2    H2    1.111615 S    
O1    Ba1   2.870536 S    
C26   H29   1.082281 S    
C17   C18   1.420315 A    
C1    C10   1.531231 S    
P2    O7    1.520457 D    
C43   C47   1.342445 D    
C21   C27   1.418809 A    
C17   C25   1.438127 A    
C11   H46   1.109765 S    
N5    O34   1.302317 A    
C45   C49   1.497672 S    
C13   N4    1.458570 S    
C4    C5    1.526208 S    
P1    Ba1   3.431741 S    
O4    P6    1.542108 D    
C52   C54   1.393860 A    
C2    N6    1.458301 S    
Ba1   O20   2.938673 S    
C27   C35   1.560825 S    
P4    O12   1.521842 D    
C50   C51   1.353079 D    
C9    H13   1.108648 S    
P1    C24   1.851774 S    
N3    O30   1.306405 A    
C11   H16   1.110050 S    
O16   P7    1.761410 S    
C4    H54   1.105608 S    
C13   H48   1.112212 S    
P4    Ba2   3.432263 S    
C15   H22   1.107590 S    
O2    Ba1   2.941805 S    
P8    C20   1.828870 S    
O6    P6    1.754118 S    
C16   H23   1.108848 S    
O3    Ba1   2.782713 S    
C10   N1    1.463112 S    
C11   O22   1.404100 S    
C22   C28   1.377128 A    
C41   C42   1.384889 A    
C35   C36   1.441233 A    
C5    N2    1.457884 S    
P2    O10   1.752088 S    
P8    O23   1.542532 D    
C8    H10   1.105110 S    
C3    H3    1.108791 S    
O6    C10   1.410344 S    
C20   C26   1.378022 A    
C15   H49   1.114109 S    
C47   C48   1.516600 S    
C29   H31   1.069612 S    
C40   H34   1.083125 S    
P3    O8    1.748709 S    
C45   C46   1.340316 D    
O14   P8    1.735122 S    
P5    C47   1.838970 S    
C15   O24   1.403487 S    
Ba2   O20   2.833426 S    
C36   C37   1.442503 A    
C2    C3    1.530805 S    
C12   H18   1.110787 S    
N1    O25   1.300592 A    
P8    O24   1.746405 S    
C5    H6    1.107804 S    
C41   H35   1.082008 S    
C30   C31   1.376120 A    
O8    Ba1   2.791387 S    
C48   C50   1.511285 S    
C51   C53   1.474856 S    
C1    H44   1.111135 S    
O14   Ba2   2.782106 S    
C14   H19   1.109232 S    
P5    O19   1.747692 S    
N5    O33   1.301435 A    
Ba1   O13   2.809838 S    
N1    O26   1.304100 A    
O3    P6    1.740471 S    
C39   C40   1.387806 A    
C52   C53   1.403586 A    
C29   C34   1.418432 A    
N3    O29   1.305827 A    
O11   C2    1.405909 S    
C54   C55   1.398600 A    
C6    H7    1.106203 S    
