data_mof_unit_6253.cif
_audit_creation_date              2012-12-11T16:26:29-0500
_audit_creation_method            fapswitch 2.2
_symmetry_space_group_name_H-M    P1
_symmetry_Int_Tables_number       1
_space_group_crystal_system       triclinic
_cell_length_a                    6.92588
_cell_length_b                    17.610454
_cell_length_c                    19.595099
_cell_angle_alpha                 108.78138
_cell_angle_beta                  89.689067
_cell_angle_gamma                 90.412664
_cell_volume                      2262.64538182

loop_
_atom_site_label
_atom_site_type_symbol
_atom_type_description
_atom_site_fract_x
_atom_site_fract_y
_atom_site_fract_z
_atom_type_partial_charge
O1    O     O_R   0.494330 0.415720 0.413720 -0.531660
O2    O     O_R   0.819330 0.430070 0.560210 -0.540718
O3    O     O_R   0.994320 0.584280 0.586280 -0.532610
C1    C     C_R   0.650535 0.412919 0.580129 0.721683
O4    O     O_R   0.823730 0.406300 0.412670 -0.558569
O5    O     O_R   0.998760 0.560340 0.437690 -0.516954
C2    C     C_R   0.654640 0.384754 0.384034 0.795694
O6    O     O_R   0.489890 0.439660 0.562310 -0.504172
O7    O     O_3   0.662340 0.550560 0.508380 -0.354907
V1    V     V_3+5 0.935370 0.490620 0.498450 1.633560
O8    O     O_R   0.328750 0.569930 0.439790 -0.470341
C3    C     C_R   0.160599 0.583773 0.417017 0.890452
O9    O     O_R   0.324340 0.593700 0.587330 -0.541146
C4    C     C_R   0.154953 0.615585 0.615871 0.890416
V2    V     V_3+5 0.435940 0.509380 0.501550 1.721037
O10   O     O_3   0.159100 0.449440 0.491620 -0.384205
C5    C     C_R   0.021556 0.592223 0.751738 0.280194
C6    C     C_R   0.949225 0.582416 0.816009 0.132528
C7    C     C_R   0.964255 0.645896 0.881191 0.265861
C8    C     C_R   0.025810 0.720894 0.880744 0.542277
C9    C     C_R   0.074122 0.736182 0.815665 -0.198184
C10   C     C_R   0.079303 0.670291 0.749891 -0.104737
C11   C     C_R   0.123380 0.815135 0.816098 -0.058488
C12   C     C_R   0.183855 0.828728 0.751248 -0.213534
C13   C     C_R   0.184935 0.763948 0.684730 -0.108366
C14   C     C_R   0.140538 0.684170 0.684569 -0.038551
C15   C     C_R   0.240668 0.906505 0.750607 0.439077
C16   C     C_R   0.300413 0.919688 0.687731 0.507566
C17   C     C_R   0.290972 0.858353 0.621712 0.160322
C18   C     C_R   0.223689 0.781693 0.619360 0.257315
C19   C     C_R   0.989307 0.627332 0.322616 0.626054
C20   C     C_R   0.151670 0.632537 0.367127 -0.349429
C21   C     C_R   0.304224 0.684481 0.363821 0.615978
C22   C     C_R   0.293835 0.731506 0.317954 -0.063265
C23   C     C_R   0.131979 0.725669 0.272892 -0.102284
C24   C     C_R   0.978169 0.673222 0.275080 -0.100814
C25   C     C_R   0.442644 0.785514 0.317633 -0.112406
C26   C     C_R   0.433910 0.834261 0.274089 0.397780
C27   C     C_R   0.278127 0.826201 0.225348 -0.047235
C28   C     C_R   0.124560 0.772535 0.225949 -0.101516
C29   C     C_R   0.964373 0.765547 0.179634 -0.102363
C30   C     C_R   0.814417 0.710252 0.179868 0.297766
C31   C     C_R   0.817210 0.667119 0.229537 0.408238
C32   C     C_R   0.274043 0.868896 0.175329 0.544388
C33   C     C_R   0.111777 0.865363 0.131415 -0.322133
C34   C     C_R   0.955740 0.815076 0.135288 0.630029
H1    H     H_    0.565656 0.792013 0.353073 0.197636
C35   C     C_R   0.470959 0.191892 0.871475 0.473810
C36   C     C_R   0.621979 0.137260 0.871073 -0.207352
C37   C     C_R   0.774259 0.127191 0.820921 0.409517
C38   C     C_R   0.785664 0.175511 0.775399 -0.120851
C39   C     C_R   0.633858 0.229049 0.775504 -0.130596
C40   C     C_R   0.475503 0.236472 0.823026 -0.033770
C41   C     C_R   0.946956 0.172406 0.730417 0.549311
C42   C     C_R   0.952371 0.216810 0.683176 0.623661
C43   C     C_R   0.798482 0.267585 0.680040 -0.078859
C44   C     C_R   0.639827 0.274961 0.727561 -0.143031
C45   C     C_R   0.486683 0.327617 0.726894 -0.101634
C46   C     C_R   0.334838 0.337731 0.777696 0.300903
C47   C     C_R   0.327355 0.291147 0.823198 0.699980
C48   C     C_R   0.800246 0.310191 0.630007 0.387078
C49   C     C_R   0.644392 0.361631 0.627923 -0.315937
C50   C     C_R   0.487362 0.367886 0.675134 0.644261
C51   C     C_R   0.524416 0.404482 0.247797 0.454002
C52   C     C_R   0.473538 0.414993 0.182776 0.493304
C53   C     C_R   0.497363 0.353255 0.118514 0.491513
C54   C     C_R   0.559834 0.278566 0.118844 0.379824
C55   C     C_R   0.588184 0.262349 0.184594 -0.207970
C56   C     C_R   0.583654 0.327987 0.250341 -0.218078
C57   C     C_R   0.626603 0.183178 0.185196 -0.049797
C58   C     C_R   0.683789 0.170587 0.251025 -0.037029
C59   C     C_R   0.688403 0.237489 0.315816 -0.064960
C60   C     C_R   0.641198 0.315834 0.315649 -0.029497
C61   C     C_R   0.739386 0.093464 0.254485 0.266745
C62   C     C_R   0.803554 0.085210 0.320288 0.216000
C63   C     C_R   0.787430 0.150325 0.384539 0.305691
C64   C     C_R   0.733249 0.224749 0.381392 -0.210896
H2    H     H_    0.722295 0.272629 0.432127 0.106756
O11   O     O_R   0.775200 0.060470 0.937800 -0.514283
O12   O     O_R   0.441110 0.093720 0.087350 -0.555052
O13   O     O_R   0.266330 0.939630 0.062280 -0.514310
C65   C     C_R   0.610355 0.114703 0.116513 0.902035
O14   O     O_R   0.445750 0.069950 0.939820 -0.517301
O15   O     O_R   0.271000 0.915700 0.913700 -0.527982
C66   C     C_R   0.614348 0.085877 0.918813 0.850788
O16   O     O_R   0.770530 0.084400 0.086380 -0.533408
O17   O     O_3   0.602830 0.949510 0.991680 -0.364280
V3    V     V_3+5 0.329710 0.009370 0.001550 1.699017
O18   O     O_R   0.940990 0.906170 0.912570 -0.541070
C67   C     C_R   0.110346 0.883973 0.884465 0.920438
O19   O     O_R   0.936350 0.929940 0.060100 -0.491574
C68   C     C_R   0.104446 0.915085 0.082129 0.893046
V4    V     V_3+5 0.829160 0.990450 0.998310 1.729375
O20   O     O_3   0.105910 0.050480 0.008320 -0.383391
O21   O     O_3   0.345265 0.871301 0.558253 -0.613467
H3    H     H_    0.389295 0.927489 0.568440 0.363717
F1    F     F_    0.461448 0.691139 0.406707 -0.623056
O22   O     O_3   0.578534 0.890321 0.282202 -0.600079
H4    H     H_    0.515052 0.942179 0.287540 0.339975
F2    F     F_    0.428665 0.913550 0.168387 -0.636485
F3    F     F_    0.794685 0.815382 0.096101 -0.589017
O23   O     O_3   0.665332 0.695426 0.130944 -0.599893
H5    H     H_    0.724867 0.682527 0.082455 0.377372
O24   O     O_3   0.666109 0.616699 0.232971 -0.534588
H6    H     H_    0.554900 0.625345 0.204923 0.376196
O25   O     O_3   0.314434 0.201221 0.917243 -0.541537
H7    H     H_    0.362710 0.205826 0.965696 0.358642
O26   O     O_3   0.904397 0.066473 0.814626 -0.566268
H8    H     H_    0.913112 0.034863 0.762722 0.344670
F4    F     F_    0.105613 0.128760 0.733367 -0.584356
O27   O     O_3   0.033894 0.526056 0.690310 -0.610002
H9    H     H_    0.994722 0.476367 0.699964 0.386046
F5    F     F_    0.111845 0.209777 0.640956 -0.589234
O28   O     O_3   0.954659 0.299666 0.583149 -0.544571
H10   H     H_    0.903767 0.294675 0.534881 0.314118
F6    F     F_    0.333584 0.412667 0.669460 -0.649729
O29   O     O_3   0.192065 0.393916 0.785788 -0.568353
H11   H     H_    0.257342 0.445562 0.790236 0.341558
F7    F     F_    0.175041 0.302480 0.869372 -0.581989
O30   O     O_3   0.820205 0.143466 0.451725 -0.623339
H12   H     H_    0.797156 0.087144 0.449462 0.321346
F8    F     F_    0.513784 0.470272 0.307199 -0.591840
F9    F     F_    0.405960 0.486705 0.181924 -0.584931
F10   F     F_    0.463436 0.366248 0.055046 -0.565285
F11   F     F_    0.605564 0.224535 0.054316 -0.704713
O31   O     O_3   0.864960 0.510081 0.813304 -0.623257
H13   H     H_    0.766642 0.519778 0.852039 0.319198
O32   O     O_3   0.734657 0.027118 0.193048 -0.623223
H14   H     H_    0.773194 0.978116 0.203577 0.377854
O33   O     O_3   0.883357 0.013307 0.319806 -0.644528
H15   H     H_    0.977324 0.023734 0.359754 0.309201
O34   O     O_3   0.924776 0.636638 0.947250 -0.593172
H16   H     H_    0.944226 0.579804 0.943615 0.328969
F12   F     F_    0.045651 0.777361 0.946356 -0.671571
F13   F     F_    0.240775 0.972110 0.810374 -0.629855
F14   F     F_    0.362419 0.994251 0.691340 -0.600691
O35   O     O_3   0.187199 0.724654 0.553399 -0.645390
H17   H     H_    0.184697 0.749645 0.514857 0.338816
F15   F     F_    0.844873 0.575368 0.324362 -0.564672

loop_
_geom_bond_atom_site_label_1
_geom_bond_atom_site_label_2
_ccdc_geom_bond_type
C42   C43   A    
V4    O20   S    
C1    C49   S    
C22   C25   A    
C29   C30   A    
C7    C8    A    
C12   C15   A    
C1    O6    A    
O32   H14   S    
O28   H10   S    
C2    C60   S    
C64   H2    S    
C43   C44   A    
C61   O32   S    
C17   C18   A    
C16   C17   A    
O11   V4    S    
C54   F11   S    
O5    C3    A    
C26   C27   A    
O25   H7    S    
V2    O10   S    
C5    O27   S    
C13   C18   A    
O26   H8    S    
C41   F4    S    
C47   F7    S    
C22   C23   A    
C36   C37   A    
C33   C68   S    
C31   O24   S    
C59   C64   A    
C55   C56   A    
O13   C68   A    
O8    V2    S    
C35   O25   S    
O21   H3    S    
O34   H16   S    
C11   C12   A    
C56   C60   A    
C57   C58   A    
O1    V2    S    
C25   H1    S    
O7    V1    S    
C19   C24   A    
C62   O33   S    
C26   O22   S    
C53   C54   A    
C46   C47   A    
C46   O29   S    
C18   O35   S    
O1    C2    A    
O9    C4    A    
C3    C20   S    
C37   O26   S    
C48   C49   A    
O15   C67   A    
C30   O23   S    
O24   H6    S    
C40   C47   A    
C21   C22   A    
C35   C40   A    
C34   F3    S    
V3    O20   S    
C61   C62   A    
C38   C39   A    
C36   C66   S    
C12   C13   A    
O12   C65   A    
O19   C68   A    
C17   O21   S    
C6    C7    A    
C42   F5    S    
C37   C38   A    
C45   C46   A    
C65   O16   A    
O18   V4    S    
C4    C14   S    
C54   C55   A    
C23   C24   A    
O2    C1    A    
C62   C63   A    
C25   C26   A    
O16   V4    S    
O19   V4    S    
C19   C20   A    
C29   C34   A    
C49   C50   A    
C5    C6    A    
C11   C67   S    
C43   C48   A    
C63   O30   S    
C51   C56   A    
C63   C64   A    
C45   C50   A    
O3    C4    A    
C50   F6    S    
C35   C36   A    
O14   C66   A    
C52   C53   A    
O6    V2    S    
C9    C11   A    
C53   F10   S    
C30   C31   A    
C19   F15   S    
O2    V1    S    
O11   C66   A    
C39   C40   A    
O4    C2    A    
C7    O34   S    
C41   C42   A    
C28   C29   A    
O27   H9    S    
C16   F14   S    
C32   C33   A    
O15   V3    S    
C59   C60   A    
O5    V1    S    
C58   C61   A    
O8    C3    A    
C27   C32   A    
O35   H17   S    
C5    C10   A    
C38   C41   A    
C15   F13   S    
C20   C21   A    
O9    V2    S    
O33   H15   S    
C13   C14   A    
O4    V1    S    
O12   V3    S    
O3    V1    S    
V1    O10   S    
O29   H11   S    
C6    O31   S    
C32   F2    S    
C44   C45   A    
O31   H13   S    
C51   F8    S    
O17   V4    S    
C51   C52   A    
C23   C28   A    
C21   F1    S    
C52   F9    S    
O7    V2    S    
O23   H5    S    
C57   C65   S    
O13   V3    S    
C39   C44   A    
C27   C28   A    
C33   C34   A    
C58   C59   A    
C8    C9    A    
O17   V3    S    
C55   C57   A    
O22   H4    S    
C10   C14   A    
C48   O28   S    
O30   H12   S    
C24   C31   A    
C8    F12   S    
O18   C67   A    
C9    C10   A    
O14   V3    S    
C15   C16   A    
