data_mof_unit_65398.cif
_audit_creation_date              2012-12-10T19:14:03-0500
_audit_creation_method            fapswitch 2.2
_symmetry_space_group_name_H-M    P1
_symmetry_Int_Tables_number       1
_space_group_crystal_system       orthorhombic
_cell_length_a                    38.931921
_cell_length_b                    38.931927
_cell_length_c                    23.532024
_cell_angle_alpha                 90.0
_cell_angle_beta                  90.0
_cell_angle_gamma                 90.0
_cell_volume                      35667.3642063

loop_
_atom_site_label
_atom_site_type_symbol
_atom_type_description
_atom_site_fract_x
_atom_site_fract_y
_atom_site_fract_z
_atom_type_partial_charge
C1    C     C_R   0.567205 0.000000 0.500000 0.861751
C2    C     C_R   0.977935 0.732067 0.463548 -0.183584
C3    C     C_R   1.000000 0.500000 0.390635 0.909434
C4    C     C_R   0.000000 0.500000 0.109365 0.909433
C5    C     C_R   0.500000 0.000000 0.109365 0.909433
C6    C     C_R   0.000000 0.500000 0.890635 0.909434
C7    C     C_R   0.500000 0.000000 0.890635 0.909434
C8    C     C_1   0.500000 0.000000 0.669582 -0.191244
C9    C     C_1   0.000000 0.500000 0.669582 -0.191244
C10   C     C_1   0.500000 1.000000 0.330418 -0.191244
C11   C     C_1   0.000000 0.500000 0.330418 -0.191244
C12   C     C_1   1.000000 0.500000 0.169582 -0.191244
C13   C     C_R   0.267933 0.977934 0.463548 -0.183584
C14   C     C_1   0.500000 0.000000 0.169582 -0.191244
C15   C     C_1   0.000000 0.500000 0.830418 -0.191244
C16   C     C_1   0.500000 0.000000 0.830418 -0.191244
C17   C     C_1   0.500000 0.000000 0.720363 0.004866
C18   C     C_1   0.000000 0.500000 0.720363 0.004866
C19   C     C_1   0.500000 0.000000 0.279637 0.004866
C20   C     C_1   0.000000 0.500000 0.279637 0.004866
C21   C     C_1   0.000000 0.500000 0.220363 0.004866
C22   C     C_1   0.500000 0.000000 0.220363 0.004866
C23   C     C_1   0.000000 0.500000 0.779637 0.004866
C24   C     C_R   0.022062 0.267933 0.463543 -0.183583
C25   C     C_1   0.500000 0.000000 0.779637 0.004866
C26   C     C_R   0.876994 0.999841 0.448414 -0.191539
C27   C     C_R   0.000161 0.876994 0.448414 -0.191538
C28   C     C_R   0.123006 0.000161 0.448414 -0.191538
C29   C     C_R   0.999835 0.123006 0.448414 -0.191539
C30   C     C_R   0.123006 0.999839 0.551586 -0.191539
C31   C     C_R   0.999839 0.876994 0.551586 -0.191539
C32   C     C_R   0.876994 0.000159 0.551586 -0.191539
C33   C     C_R   0.000165 0.123006 0.551586 -0.191539
C34   C     C_R   0.376994 0.499837 0.948414 -0.191538
C35   C     C_R   0.267933 0.022065 0.536452 -0.183583
C36   C     C_R   0.500157 0.376994 0.948414 -0.191538
C37   C     C_R   0.623006 0.500162 0.948414 -0.191538
C38   C     C_R   0.499840 0.623006 0.948414 -0.191539
C39   C     C_R   0.623006 0.499837 0.051586 -0.191539
C40   C     C_R   0.499843 0.376994 0.051586 -0.191539
C41   C     C_R   0.376994 0.500163 0.051586 -0.191538
C42   C     C_R   0.500159 0.623006 0.051586 -0.191539
C43   C     C_R   0.841318 0.999851 0.448431 -0.176477
C44   C     C_R   0.000151 0.841318 0.448431 -0.176478
C45   C     C_R   0.158682 0.000151 0.448431 -0.176477
C46   C     C_R   0.022065 0.732067 0.536452 -0.183583
C47   C     C_R   0.999845 0.158682 0.448431 -0.176478
C48   C     C_R   0.158682 0.999849 0.551569 -0.176477
C49   C     C_R   0.999849 0.841318 0.551569 -0.176478
C50   C     C_R   0.841318 0.000149 0.551569 -0.176476
C51   C     C_R   0.000155 0.158682 0.551569 -0.176477
C52   C     C_R   0.341318 0.499846 0.948431 -0.176478
C53   C     C_R   0.500147 0.341318 0.948431 -0.176477
C54   C     C_R   0.658682 0.500153 0.948431 -0.176478
C55   C     C_R   0.499850 0.658682 0.948431 -0.176477
C56   C     C_R   0.658682 0.499847 0.051569 -0.176478
C57   C     C_R   0.732067 0.977933 0.536449 -0.183584
C58   C     C_R   0.499853 0.341318 0.051569 -0.176477
C59   C     C_R   0.341318 0.500154 0.051569 -0.176478
C60   C     C_R   0.500150 0.658682 0.051569 -0.176477
C61   C     C_R   0.823314 0.000000 0.500000 0.115680
C62   C     C_R   0.000000 0.823314 0.500000 0.115682
C63   C     C_R   0.176686 1.000000 0.500000 0.115680
C64   C     C_R   1.000000 0.176686 0.500000 0.115681
C65   C     C_R   0.323314 0.500000 0.000000 0.115682
C66   C     C_R   0.500000 0.323314 0.000000 0.115681
C67   C     C_R   0.676686 0.500000 0.000000 0.115681
C68   C     C_R   0.977938 0.267933 0.536457 -0.183582
C69   C     C_R   0.500000 0.676686 0.000000 0.115681
C70   C     C_R   0.895044 0.000000 0.500000 -0.038908
C71   C     C_R   0.000000 0.895044 0.500000 -0.038908
C72   C     C_R   0.104956 1.000000 0.500000 -0.038908
C73   C     C_R   1.000000 0.104956 0.500000 -0.038908
C74   C     C_R   0.395044 0.500000 0.000000 -0.038908
C75   C     C_R   0.500000 0.395044 0.000000 -0.038908
C76   C     C_R   0.604956 0.500000 0.000000 -0.038908
C77   C     C_R   0.500000 0.604956 0.000000 -0.038908
C78   C     C_R   0.767740 0.022052 0.463527 -0.184023
C79   C     C_R   0.232067 0.477937 0.036456 -0.183583
C80   C     C_R   0.977949 0.767740 0.463524 -0.184023
C81   C     C_R   0.232260 0.977949 0.463524 -0.184022
C82   C     C_R   0.022048 0.232260 0.463519 -0.184023
C83   C     C_R   0.232260 0.022051 0.536476 -0.184024
C84   C     C_R   0.022051 0.767740 0.536476 -0.184024
C85   C     C_R   0.767740 0.977947 0.536473 -0.184022
C86   C     C_R   0.977952 0.232260 0.536481 -0.184024
C87   C     C_R   0.267740 0.477952 0.036480 -0.184023
C88   C     C_R   0.522054 0.267740 0.036471 -0.184022
C89   C     C_R   0.732260 0.522050 0.036478 -0.184024
C90   C     C_R   0.522068 0.232067 0.036447 -0.183585
C91   C     C_R   0.477948 0.732260 0.036475 -0.184023
C92   C     C_R   0.732260 0.477950 0.963522 -0.184024
C93   C     C_R   0.477946 0.267740 0.963529 -0.184023
C94   C     C_R   0.267740 0.522048 0.963520 -0.184024
C95   C     C_R   0.522051 0.732260 0.963525 -0.184023
C96   C     C_R   0.767933 0.522064 0.036454 -0.183583
C97   C     C_R   0.000000 0.567205 0.500000 0.861751
C98   C     C_R   0.477934 0.767933 0.036451 -0.183583
C99   C     C_R   0.767933 0.477936 0.963546 -0.183583
C100  C     C_R   0.477932 0.232067 0.963553 -0.183584
C101  C     C_R   0.232067 0.522063 0.963544 -0.183583
C102  C     C_R   0.522066 0.767933 0.963549 -0.183584
C103  C     C_R   0.714062 0.000000 0.500000 0.106339
C104  C     C_R   1.000000 0.714062 0.500000 0.106338
C105  C     C_R   0.285938 1.000000 0.500000 0.106339
C106  C     C_R   0.000000 0.285938 0.500000 0.106338
C107  C     C_R   0.214062 0.500000 0.000000 0.106338
C108  C     C_R   0.432795 0.000000 0.500000 0.861752
C109  C     C_R   0.500000 0.214062 0.000000 0.106340
C110  C     C_R   0.785938 0.500000 0.000000 0.106336
C111  C     C_R   0.500000 0.785938 0.000000 0.106339
C112  C     C_R   0.785745 0.000000 0.500000 0.105760
C113  C     C_R   1.000000 0.785745 0.500000 0.105762
C114  C     C_R   0.214255 1.000000 0.500000 0.105760
C115  C     C_R   0.000000 0.214255 0.500000 0.105761
C116  C     C_R   0.285745 0.500000 0.000000 0.105762
C117  C     C_R   0.500000 0.285745 0.000000 0.105761
C118  C     C_R   0.714255 0.500000 0.000000 0.105761
C119  C     C_R   0.000000 0.432795 0.500000 0.861752
C120  C     C_R   0.500000 0.714255 0.000000 0.105762
C121  C     C_R   0.658489 0.968834 0.499703 -0.177509
C122  C     C_R   0.031166 0.658489 0.499706 -0.177509
C123  C     C_R   0.341510 0.031166 0.499707 -0.177509
C124  C     C_R   0.968834 0.341510 0.499713 -0.177509
C125  C     C_R   0.341510 0.968834 0.500293 -0.177510
C126  C     C_R   0.968834 0.658489 0.500294 -0.177510
C127  C     C_R   0.658489 0.031166 0.500297 -0.177509
C128  C     C_R   0.031166 0.341510 0.500287 -0.177509
C129  C     C_R   0.158489 0.468834 0.999712 -0.177509
C130  C     C_R   0.067205 0.500000 0.000000 0.861751
C131  C     C_R   0.531166 0.158489 0.999701 -0.177510
C132  C     C_R   0.841510 0.531166 0.999706 -0.177507
C133  C     C_R   0.468834 0.841510 0.999704 -0.177508
C134  C     C_R   0.841510 0.468834 0.000294 -0.177509
C135  C     C_R   0.468834 0.158489 0.000299 -0.177510
C136  C     C_R   0.158489 0.531166 0.000288 -0.177509
C137  C     C_R   0.531166 0.841510 0.000295 -0.177510
C138  C     C_R   0.622814 0.968821 0.499687 -0.188134
C139  C     C_R   0.031179 0.622814 0.499690 -0.188135
C140  C     C_R   0.377186 0.031179 0.499691 -0.188134
C141  C     C_R   0.500000 0.067205 0.000000 0.861751
C142  C     C_R   0.968821 0.377186 0.499697 -0.188135
C143  C     C_R   0.377186 0.968821 0.500309 -0.188134
C144  C     C_R   0.968821 0.622814 0.500310 -0.188134
C145  C     C_R   0.622814 0.031179 0.500313 -0.188134
C146  C     C_R   0.031179 0.377186 0.500303 -0.188135
C147  C     C_R   0.122814 0.468821 0.999696 -0.188134
C148  C     C_R   0.531179 0.122814 0.999685 -0.188134
C149  C     C_R   0.877186 0.531179 0.999690 -0.188135
C150  C     C_R   0.468821 0.877186 0.999689 -0.188135
C151  C     C_R   0.877186 0.468821 0.000310 -0.188134
C152  C     C_R   0.932795 0.500000 0.000000 0.861752
C153  C     C_R   0.468821 0.122814 0.000315 -0.188134
C154  C     C_R   0.122814 0.531179 0.000304 -0.188134
C155  C     C_R   0.531179 0.877186 0.000311 -0.188134
C156  C     C_R   0.604741 0.000000 0.500000 -0.034094
C157  C     C_R   0.000000 0.604741 0.500000 -0.034094
C158  C     C_R   0.395259 0.000000 0.500000 -0.034094
C159  C     C_R   1.000000 0.395259 0.500000 -0.034094
C160  C     C_R   0.104741 0.500000 0.000000 -0.034094
C161  C     C_R   0.500000 0.104741 0.000000 -0.034093
C162  C     C_R   0.895259 0.500000 0.000000 -0.034094
C163  C     C_R   0.500000 0.932795 0.000000 0.861752
C164  C     C_R   0.500000 0.895259 0.000000 -0.034093
C165  C     C_R   0.676492 0.000000 0.500000 0.115290
C166  C     C_R   1.000000 0.676492 0.500000 0.115290
C167  C     C_R   0.323508 1.000000 0.500000 0.115291
C168  C     C_R   0.000000 0.323508 0.500000 0.115289
C169  C     C_R   0.176492 0.500000 0.000000 0.115290
C170  C     C_R   0.500000 0.176492 0.000000 0.115291
C171  C     C_R   0.823508 0.500000 0.000000 0.115287
C172  C     C_R   0.500000 0.823508 0.000000 0.115290
C173  C     C_R   1.000000 0.932549 0.500000 0.878200
C174  C     C_R   0.732067 0.022067 0.463551 -0.183584
C175  C     C_R   0.067450 0.000000 0.500000 0.878199
C176  C     C_R   1.000000 0.067450 0.500000 0.878199
C177  C     C_R   0.932549 0.000000 0.500000 0.878200
C178  C     C_R   0.500000 0.432549 0.000000 0.878200
C179  C     C_R   0.567450 0.500000 0.000000 0.878199
C180  C     C_R   0.500000 0.567450 0.000000 0.878199
C181  C     C_R   0.432549 0.500000 0.000000 0.878200
C182  C     C_R   0.500000 0.000000 0.609365 0.909433
C183  C     C_R   0.000000 0.500000 0.609365 0.909434
C184  C     C_R   0.500000 0.000000 0.390635 0.909434
H1    H     H_    0.890396 0.999630 0.408084 0.154217
H2    H     H_    0.500367 0.390396 0.908084 0.154217
H3    H     H_    0.609604 0.500377 0.908084 0.154216
H4    H     H_    0.499629 0.609604 0.908084 0.154217
H5    H     H_    0.609604 0.499623 0.091916 0.154216
H6    H     H_    0.499633 0.390396 0.091916 0.154217
H7    H     H_    0.390396 0.500378 0.091916 0.154217
H8    H     H_    0.500371 0.609604 0.091916 0.154217
H9    H     H_    0.827779 0.999347 0.408224 0.130479
H10   H     H_    0.000657 0.827779 0.408224 0.130479
H11   H     H_    0.172221 0.000657 0.408224 0.130479
H12   H     H_    0.000373 0.890396 0.408084 0.154217
H13   H     H_    0.999336 0.172221 0.408225 0.130479
H14   H     H_    0.172221 0.999343 0.591775 0.130479
H15   H     H_    0.999343 0.827779 0.591775 0.130479
H16   H     H_    0.827779 0.000653 0.591776 0.130479
H17   H     H_    0.000664 0.172220 0.591775 0.130479
H18   H     H_    0.327779 0.499338 0.908225 0.130478
H19   H     H_    0.500650 0.327779 0.908224 0.130479
H20   H     H_    0.672221 0.500660 0.908225 0.130479
H21   H     H_    0.499345 0.672220 0.908224 0.130478
H22   H     H_    0.672221 0.499340 0.091775 0.130479
H23   H     H_    0.109604 0.000374 0.408084 0.154217
H24   H     H_    0.499350 0.327779 0.091775 0.130479
H25   H     H_    0.327779 0.500661 0.091775 0.130478
H26   H     H_    0.500654 0.672220 0.091775 0.130478
H27   H     H_    0.781273 0.039458 0.435449 0.131983
H28   H     H_    0.960545 0.781273 0.435444 0.131983
H29   H     H_    0.218727 0.960544 0.435445 0.131983
H30   H     H_    0.039450 0.218727 0.435436 0.131983
H31   H     H_    0.218727 0.039455 0.564555 0.131984
H32   H     H_    0.039455 0.781273 0.564556 0.131984
H33   H     H_    0.781273 0.960542 0.564551 0.131983
H34   H     H_    0.999619 0.109604 0.408084 0.154217
H35   H     H_    0.960550 0.218727 0.564565 0.131984
H36   H     H_    0.281273 0.460549 0.064563 0.131983
H37   H     H_    0.539460 0.281273 0.064547 0.131983
H38   H     H_    0.718727 0.539453 0.064559 0.131984
H39   H     H_    0.460544 0.718727 0.064554 0.131983
H40   H     H_    0.718727 0.460547 0.935441 0.131984
H41   H     H_    0.460539 0.281273 0.935453 0.131983
H42   H     H_    0.281273 0.539451 0.935437 0.131983
H43   H     H_    0.539456 0.718727 0.935446 0.131983
H44   H     H_    0.718534 0.039055 0.434781 0.132281
H45   H     H_    0.109604 0.999626 0.591916 0.154216
H46   H     H_    0.960948 0.718534 0.434776 0.132282
H47   H     H_    0.281466 0.960948 0.434777 0.132281
H48   H     H_    0.039047 0.281466 0.434768 0.132281
H49   H     H_    0.281466 0.039052 0.565223 0.132281
H50   H     H_    0.039052 0.718534 0.565223 0.132281
H51   H     H_    0.718534 0.960945 0.565219 0.132282
H52   H     H_    0.960953 0.281466 0.565232 0.132281
H53   H     H_    0.218534 0.460952 0.065231 0.132281
H54   H     H_    0.539057 0.218534 0.065215 0.132282
H55   H     H_    0.781466 0.539050 0.065227 0.132283
H56   H     H_    0.999626 0.890396 0.591916 0.154217
H57   H     H_    0.460947 0.781466 0.065222 0.132281
H58   H     H_    0.781466 0.460950 0.934773 0.132283
H59   H     H_    0.460943 0.218534 0.934785 0.132281
H60   H     H_    0.218534 0.539047 0.934769 0.132282
H61   H     H_    0.539053 0.781466 0.934778 0.132282
H62   H     H_    0.672029 0.944532 0.498830 0.131224
H63   H     H_    0.055468 0.672029 0.498835 0.131225
H64   H     H_    0.327971 0.055468 0.498837 0.131225
H65   H     H_    0.944532 0.327971 0.498848 0.131225
H66   H     H_    0.327971 0.944532 0.501163 0.131225
H67   H     H_    0.890396 0.000370 0.591916 0.154217
H68   H     H_    0.944532 0.672029 0.501165 0.131225
H69   H     H_    0.672029 0.055468 0.501170 0.131224
H70   H     H_    0.055468 0.327971 0.501153 0.131225
H71   H     H_    0.172029 0.444532 0.998845 0.131225
H72   H     H_    0.555468 0.172029 0.998826 0.131225
H73   H     H_    0.827971 0.555468 0.998835 0.131225
H74   H     H_    0.444532 0.827971 0.998833 0.131224
H75   H     H_    0.827971 0.444532 0.001165 0.131226
H76   H     H_    0.444532 0.172029 0.001174 0.131224
H77   H     H_    0.172029 0.555468 0.001155 0.131225
H78   H     H_    0.000381 0.109604 0.591916 0.154216
H79   H     H_    0.555468 0.827971 0.001167 0.131225
H80   H     H_    0.609444 0.944428 0.499297 0.157231
H81   H     H_    0.055572 0.609444 0.499302 0.157231
H82   H     H_    0.390556 0.055572 0.499304 0.157231
H83   H     H_    0.944428 0.390556 0.499315 0.157232
H84   H     H_    0.390556 0.944428 0.500696 0.157231
H85   H     H_    0.944428 0.609444 0.500697 0.157231
H86   H     H_    0.609444 0.055572 0.500703 0.157231
H87   H     H_    0.055572 0.390556 0.500685 0.157232
H88   H     H_    0.109444 0.444428 0.999313 0.157231
H89   H     H_    0.390396 0.499622 0.908084 0.154217
H90   H     H_    0.555572 0.109444 0.999294 0.157231
H91   H     H_    0.890556 0.555572 0.999302 0.157231
H92   H     H_    0.444428 0.890556 0.999300 0.157231
H93   H     H_    0.890556 0.444428 0.000698 0.157231
H94   H     H_    0.444428 0.109444 0.000706 0.157231
H95   H     H_    0.109444 0.555572 0.000687 0.157231
H96   H     H_    0.555572 0.890556 0.000700 0.157231
O1    O     O_R   0.550900 0.028770 0.500040 -0.625782
O2    O     O_R   0.471230 0.050900 0.000040 -0.625782
O3    O     O_R   0.949100 0.471230 0.000040 -0.625781
O4    O     O_R   0.528770 0.949100 0.000040 -0.625782
O5    O     O_R   0.949100 0.528770 0.999960 -0.625782
O6    O     O_R   0.528770 0.050900 0.999960 -0.625782
O7    O     O_R   0.050900 0.471230 0.999960 -0.625782
O8    O     O_R   0.471230 0.949100 0.999960 -0.625781
O9    O     O_R   0.499990 0.028770 0.582790 -0.613758
O10   O     O_R   0.971230 0.499990 0.582790 -0.613758
O11   O     O_R   0.500010 0.971230 0.582790 -0.613757
O12   O     O_R   0.971230 0.550900 0.500040 -0.625782
O13   O     O_R   0.028770 0.500010 0.582790 -0.613757
O14   O     O_R   0.500010 0.028770 0.417210 -0.613757
O15   O     O_R   0.028770 0.499990 0.417210 -0.613758
O16   O     O_R   0.499990 0.971230 0.417210 -0.613757
O17   O     O_R   0.971230 0.500010 0.417210 -0.613757
O18   O     O_R   0.999990 0.528770 0.082790 -0.613757
O19   O     O_R   0.471230 0.999990 0.082790 -0.613757
O20   O     O_R   0.000010 0.471230 0.082790 -0.613758
O21   O     O_R   0.528770 0.000010 0.082790 -0.613758
O22   O     O_R   0.000010 0.528770 0.917210 -0.613758
O23   O     O_R   0.449100 0.971230 0.500040 -0.625781
O24   O     O_R   0.528770 0.999990 0.917210 -0.613758
O25   O     O_R   0.999990 0.471230 0.917210 -0.613757
O26   O     O_R   0.471230 0.000010 0.917210 -0.613757
O27   O     O_R   0.999980 0.949050 0.546640 -0.626013
O28   O     O_R   0.050950 0.999980 0.546640 -0.626014
O29   O     O_R   0.000020 0.050950 0.546640 -0.626013
O30   O     O_R   0.949050 0.000020 0.546640 -0.626013
O31   O     O_R   0.000020 0.949050 0.453360 -0.626012
O32   O     O_R   0.949050 0.999980 0.453360 -0.626013
O33   O     O_R   0.999980 0.050950 0.453360 -0.626013
O34   O     O_R   0.028770 0.449100 0.500040 -0.625782
O35   O     O_R   0.050950 0.000020 0.453360 -0.626012
O36   O     O_R   0.499980 0.449050 0.046640 -0.626013
O37   O     O_R   0.550950 0.499980 0.046640 -0.626013
O38   O     O_R   0.500020 0.550950 0.046640 -0.626013
O39   O     O_R   0.449050 0.500020 0.046640 -0.626013
O40   O     O_R   0.500020 0.449050 0.953360 -0.626013
O41   O     O_R   0.449050 0.499980 0.953360 -0.626013
O42   O     O_R   0.499980 0.550950 0.953360 -0.626012
O43   O     O_R   0.550950 0.500020 0.953360 -0.626012
O44   O     O_R   0.449100 0.028770 0.499960 -0.625782
O45   O     O_R   0.028770 0.550900 0.499960 -0.625783
O46   O     O_R   0.550900 0.971230 0.499960 -0.625782
O47   O     O_R   0.971230 0.449100 0.499960 -0.625781
O48   O     O_R   0.050900 0.528770 0.000040 -0.625783
Zn1   Zn    Zn3+2 0.500000 0.038410 0.500000 0.955000
Zn2   Zn    Zn3+2 0.000000 0.000000 0.437580 0.941456
Zn3   Zn    Zn3+2 0.500000 0.500000 0.062420 0.941456
Zn4   Zn    Zn3+2 0.500000 0.500000 0.937580 0.941456
Zn5   Zn    Zn3+2 0.961590 0.500000 0.500000 0.955000
Zn6   Zn    Zn3+2 0.500000 0.961590 0.500000 0.955000
Zn7   Zn    Zn3+2 0.038410 0.500000 0.500000 0.954999
Zn8   Zn    Zn3+2 1.000000 0.538410 0.000000 0.954999
Zn9   Zn    Zn3+2 0.461590 0.000000 0.000000 0.955000
Zn10  Zn    Zn3+2 0.000000 0.461590 0.000000 0.955000
Zn11  Zn    Zn3+2 0.538410 0.000000 0.000000 0.954999
Zn12  Zn    Zn3+2 0.000000 0.000000 0.562420 0.941456

loop_
_geom_bond_atom_site_label_1
_geom_bond_atom_site_label_2
_ccdc_geom_bond_type
C101  C107  A    
C108  O44   A    
C177  O32   A    
C10   C184  S    
C79   C87   A    
C74   C181  S    
O13   Zn7   S    
C135  H76   S    
C150  H92   S    
C122  C139  A    
O20   Zn10  S    
O12   Zn5   S    
O10   Zn5   S    
O17   Zn5   S    
C26   H1    S    
C111  C172  S    
C36   C53   A    
C41   C74   A    
C124  C168  A    
C38   C55   A    
C7    O26   A    
C4    C12   S    
C95   C102  A    
C110  C171  S    
C100  C109  A    
C64   C115  S    
C96   C110  A    
C83   C114  A    
C102  C111  A    
C4    O18   A    
C57   H51   S    
C11   C20   T    
C77   C180  S    
C40   C58   A    
C90   H54   S    
C92   H40   S    
C47   C64   A    
C48   C63   A    
C126  C166  A    
C99   C110  A    
C33   H78   S    
C177  O30   A    
C153  C161  A    
C153  H94   S    
O33   Zn2   S    
C147  H88   S    
C181  O41   A    
C39   C56   A    
C2    C104  A    
C127  C165  A    
O40   Zn4   S    
O35   Zn2   S    
C127  C145  A    
C46   C84   A    
C33   C73   A    
C121  H62   S    
C96   H55   S    
C148  H90   S    
C97   O45   A    
C27   C71   A    
C43   C61   A    
C107  C169  S    
C16   C25   T    
C163  O8    A    
C49   C62   A    
O11   Zn6   S    
C136  H77   S    
C51   C64   A    
C40   C75   A    
C146  C159  A    
O36   Zn3   S    
C8    C17   T    
C17   C25   S    
C89   C96   A    
C1    O1    A    
C37   H3    S    
C38   H4    S    
C134  C151  A    
C12   C21   T    
C57   C85   A    
C91   C98   A    
C67   C118  S    
C95   H43   S    
C141  O2    A    
C129  C147  A    
C3    C11   S    
C105  C167  S    
C20   C21   S    
C139  C157  A    
C119  C159  S    
C145  H86   S    
C27   H12   S    
C4    O20   A    
C5    O21   A    
O27   Zn12  S    
C52   C65   A    
O15   Zn7   S    
O14   Zn1   S    
C31   H56   S    
O18   Zn8   S    
C175  O28   A    
O46   Zn6   S    
C76   C179  S    
C180  O38   A    
O37   Zn3   S    
O8    Zn9   S    
C181  O39   A    
C53   H19   S    
C29   C47   A    
C46   H50   S    
C30   C48   A    
C154  H95   S    
C133  C172  A    
C82   C115  A    
C39   H5    S    
C54   H20   S    
C175  O35   A    
C137  C155  A    
C72   C175  S    
C92   C118  A    
C3    O17   A    
C140  C158  A    
O31   Zn2   S    
C27   C44   A    
C81   H29   S    
C81   C114  A    
C128  H70   S    
C182  O11   A    
C80   H28   S    
C31   C71   A    
C139  H81   S    
C176  O33   A    
C93   C117  A    
C147  C160  A    
C34   H89   S    
C41   H7    S    
C32   C70   A    
O44   Zn1   S    
C103  C174  A    
C48   H14   S    
C86   C115  A    
O25   Zn10  S    
C1    C156  S    
C35   C105  A    
C36   C75   A    
C93   H41   S    
C58   H24   S    
O42   Zn4   S    
C119  O34   A    
C87   H36   S    
C124  H65   S    
C55   C69   A    
C130  O48   A    
C29   H34   S    
C138  H80   S    
C103  C165  S    
C176  O29   A    
C140  H82   S    
O38   Zn3   S    
C24   C106  A    
C143  C158  A    
C49   H15   S    
C127  H69   S    
C133  C150  A    
C30   C72   A    
C152  O3    A    
C70   C177  S    
C149  C162  A    
C121  C165  A    
C43   H9    S    
C14   C22   T    
C99   H58   S    
C3    O15   A    
C179  O43   A    
C59   C65   A    
C128  C146  A    
O5    Zn8   S    
C60   C69   A    
C125  C143  A    
C126  C144  A    
C52   H18   S    
C182  O9    A    
C2    H46   S    
C9    C18   T    
C56   H22   S    
C163  O4    A    
C42   C77   A    
C50   C61   A    
C47   H13   S    
O43   Zn4   S    
C90   C109  A    
C144  C157  A    
C61   C112  S    
C59   H25   S    
C92   C99   A    
C122  H63   S    
C142  C159  A    
C178  O36   A    
C32   H67   S    
C30   H45   S    
C146  H87   S    
C125  C167  A    
C123  H64   S    
C13   C81   A    
C130  C160  S    
C143  H84   S    
O28   Zn12  S    
C101  H60   S    
C174  H44   S    
C137  C172  A    
C6    O22   A    
C145  C156  A    
C129  H71   S    
C134  H75   S    
C66   C117  S    
C35   H49   S    
C1    O46   A    
C85   C112  A    
O4    Zn11  S    
C132  C149  A    
C28   C72   A    
C102  H61   S    
C31   C49   A    
C55   H21   S    
C6    O25   A    
C57   C103  A    
C173  O27   A    
C62   C113  S    
C13   C105  A    
C184  O14   A    
C35   C83   A    
C152  O5    A    
C46   C104  A    
C9    C183  S    
C136  C154  A    
C10   C19   T    
C151  C162  A    
C79   C107  A    
O41   Zn4   S    
C87   C116  A    
O34   Zn7   S    
C34   C74   A    
C137  H79   S    
O9    Zn1   S    
C7    C16   S    
C37   C76   A    
C88   C90   A    
O2    Zn9   S    
C26   C70   A    
C183  O13   A    
C91   H39   S    
O47   Zn5   S    
C150  C164  A    
C8    C182  S    
C94   C116  A    
C131  H72   S    
C130  O7    A    
C24   H48   S    
C83   H31   S    
C132  H73   S    
C38   C77   A    
C95   C120  A    
C33   C51   A    
C69   C120  S    
C34   C52   A    
O24   Zn11  S    
C73   C176  S    
C144  H85   S    
C5    O19   A    
O48   Zn8   S    
O22   Zn8   S    
O39   Zn3   S    
C119  O47   A    
C86   H35   S    
C89   C118  A    
C94   H42   S    
C104  C166  S    
C108  O23   A    
C108  C158  S    
C28   H23   S    
C88   H37   S    
C78   C112  A    
O23   Zn6   S    
C78   H27   S    
C152  C162  S    
C51   H17   S    
O26   Zn9   S    
C45   H11   S    
C131  C170  A    
C141  C161  S    
C84   C113  A    
C122  C166  A    
C68   C86   A    
C163  C164  S    
C184  O16   A    
O30   Zn12  S    
C173  O31   A    
O7    Zn10  S    
O29   Zn12  S    
C148  C161  A    
C149  H91   S    
C129  C169  A    
C125  H66   S    
C135  C170  A    
C29   C73   A    
O6    Zn11  S    
C75   C178  S    
C24   C82   A    
C98   H57   S    
C85   H33   S    
C68   H52   S    
C6    C15   S    
C82   H30   S    
C63   C114  S    
C58   C66   A    
C94   C101  A    
C132  C171  A    
C178  O40   A    
O1    Zn1   S    
C179  O37   A    
C123  C167  A    
C7    O24   A    
C15   C23   T    
C124  C142  A    
O21   Zn11  S    
C68   C106  A    
C26   C43   A    
C126  H68   S    
C28   C45   A    
O32   Zn2   S    
C18   C23   S    
C19   C22   S    
C142  H83   S    
C41   C59   A    
C42   C60   A    
C89   H38   S    
C50   H16   S    
C54   C67   A    
C44   C62   A    
C123  C140  A    
C45   C63   A    
C71   C173  S    
C97   C157  S    
C121  C138  A    
C154  C160  A    
C155  H96   S    
C13   H47   S    
C93   C100  A    
C5    C14   S    
C180  O42   A    
C131  C148  A    
C39   C76   A    
C80   C113  A    
C53   C66   A    
C32   C50   A    
C100  H59   S    
C37   C54   A    
C134  C171  A    
O19   Zn9   S    
C65   C116  S    
O16   Zn6   S    
O45   Zn7   S    
C79   H53   S    
C141  O6    A    
C109  C170  S    
C78   C174  A    
C138  C156  A    
C133  H74   S    
C98   C111  A    
O3    Zn10  S    
C183  O10   A    
C155  C164  A    
C56   C67   A    
C44   H10   S    
C135  C153  A    
C97   O12   A    
C151  H93   S    
C106  C168  S    
C36   H2    S    
C2    C80   A    
C42   H8    S    
C40   H6    S    
C136  C169  A    
C128  C168  A    
C91   C120  A    
C88   C117  A    
C60   H26   S    
C84   H32   S    
