data_mof_unit_61886.cif
_audit_creation_date              2012-12-10T20:14:50-0500
_audit_creation_method            fapswitch 2.2
_symmetry_space_group_name_H-M    P1
_symmetry_Int_Tables_number       1
_space_group_crystal_system       triclinic
_cell_length_a                    35.543668
_cell_length_b                    35.516234
_cell_length_c                    21.776496
_cell_angle_alpha                 90.0
_cell_angle_beta                  89.999869
_cell_angle_gamma                 90.000038
_cell_volume                      27490.1526975

loop_
_atom_site_label
_atom_site_type_symbol
_atom_type_description
_atom_site_fract_x
_atom_site_fract_y
_atom_site_fract_z
_atom_type_partial_charge
C1    C     C_R   0.073385 0.500000 0.500000 0.941224
C2    C     C_R   0.500000 0.926776 0.500000 0.984595
C3    C     C_R   0.926615 0.500000 0.500000 0.941225
C4    C     C_R   0.500000 0.073224 0.500000 0.984594
C5    C     C_R   0.573385 0.000000 0.000000 0.941225
C6    C     C_R   1.000000 0.426776 1.000000 0.984595
C7    C     C_R   0.426615 1.000000 0.000000 0.941225
C8    C     C_R   1.000000 0.573224 1.000000 0.984591
C9    C     C_R   0.307165 0.500000 0.500000 0.048902
C10   C     C_R   0.500000 0.693116 0.500000 0.047251
C11   C     C_R   0.692835 0.500000 0.500000 0.048902
C12   C     C_R   0.500000 0.306884 0.500000 0.047251
C13   C     C_R   0.807165 0.000000 0.000000 0.048902
C14   C     C_R   1.000000 0.193116 1.000000 0.047251
C15   C     C_R   0.192835 1.000000 1.000000 0.048902
C16   C     C_R   0.000000 0.806884 0.000000 0.047251
C17   C     C_1   0.267033 0.500000 0.500000 -0.024939
C18   C     C_1   0.500000 0.733337 0.500000 -0.025894
C19   C     C_1   0.732967 0.500000 0.500000 -0.024939
C20   C     C_1   0.500000 0.266663 0.500000 -0.025894
C21   C     C_1   0.767033 1.000000 0.000000 -0.024939
C22   C     C_1   1.000000 0.233337 1.000000 -0.025894
C23   C     C_1   0.232967 1.000000 1.000000 -0.024939
C24   C     C_1   0.000000 0.766663 0.000000 -0.025894
C25   C     C_1   0.233493 0.500000 0.500000 0.021564
C26   C     C_1   0.500000 0.766939 0.500000 0.019323
C27   C     C_1   0.766507 0.500000 0.500000 0.021564
C28   C     C_1   0.500000 0.233060 0.500000 0.019323
C29   C     C_1   0.733493 1.000000 0.000000 0.021564
C30   C     C_1   1.000000 0.266939 1.000000 0.019323
C31   C     C_1   0.266507 1.000000 1.000000 0.021564
C32   C     C_1   0.000000 0.733060 0.000000 0.019323
C33   C     C_R   0.173845 0.472642 0.534003 -0.056448
C34   C     C_R   0.520194 0.826754 0.545488 -0.071479
C35   C     C_R   0.826155 0.527358 0.534003 -0.056449
C36   C     C_R   0.479806 0.173246 0.545488 -0.071479
C37   C     C_R   0.826155 0.472642 0.465997 -0.056448
C38   C     C_R   0.479806 0.826754 0.454512 -0.071479
C39   C     C_R   0.173845 0.527358 0.465997 -0.056449
C40   C     C_R   0.520194 0.173246 0.454512 -0.071480
C41   C     C_R   0.673845 0.972642 0.034004 -0.056448
C42   C     C_R   0.020194 0.326754 0.045488 -0.071480
C43   C     C_R   0.326155 0.027358 0.034003 -0.056449
C44   C     C_R   0.979804 0.673246 0.045486 -0.071481
C45   C     C_R   0.326155 0.972642 0.965997 -0.056448
C46   C     C_R   0.979806 0.326754 0.954512 -0.071480
C47   C     C_R   0.673845 0.027358 0.965997 -0.056449
C48   C     C_R   0.020196 0.673246 0.954514 -0.071480
C49   C     C_R   0.134474 0.472522 0.534109 0.329165
C50   C     C_R   0.520221 0.866160 0.545513 0.299707
C51   C     C_R   0.865526 0.527478 0.534109 0.329166
C52   C     C_R   0.479778 0.133839 0.545513 0.299708
C53   C     C_R   0.865526 0.472522 0.465891 0.329165
C54   C     C_R   0.479778 0.866160 0.454487 0.299707
C55   C     C_R   0.134474 0.527478 0.465891 0.329165
C56   C     C_R   0.520222 0.133840 0.454487 0.299708
C57   C     C_R   0.634474 0.972522 0.034109 0.329165
C58   C     C_R   0.020222 0.366160 0.045513 0.299708
C59   C     C_R   0.365526 0.027478 0.034109 0.329165
C60   C     C_R   0.979777 0.633840 0.045512 0.299709
C61   C     C_R   0.365526 0.972522 0.965891 0.329165
C62   C     C_R   0.979778 0.366160 0.954487 0.299707
C63   C     C_R   0.634474 0.027478 0.965891 0.329166
C64   C     C_R   0.020223 0.633840 0.954488 0.299709
C65   C     C_R   0.114628 0.500000 0.500000 -0.251363
C66   C     C_R   0.500000 0.885773 0.500000 -0.218200
C67   C     C_R   0.885372 0.500000 0.500000 -0.251363
C68   C     C_R   0.500000 0.114227 0.500000 -0.218200
C69   C     C_R   0.614628 1.000000 0.000000 -0.251363
C70   C     C_R   1.000000 0.385773 0.000000 -0.218200
C71   C     C_R   0.385372 1.000000 1.000000 -0.251363
C72   C     C_R   0.000000 0.614227 0.000000 -0.218201
C73   C     C_R   0.193302 0.500000 0.500000 -0.074360
C74   C     C_R   0.500000 0.807209 0.500000 -0.075088
C75   C     C_R   0.806697 0.500000 0.500000 -0.074360
C76   C     C_R   0.500000 0.192791 0.500000 -0.075087
C77   C     C_R   0.693302 0.000000 0.000000 -0.074360
C78   C     C_R   1.000000 0.307209 1.000000 -0.075088
C79   C     C_R   0.306698 1.000000 1.000000 -0.074360
C80   C     C_R   0.000000 0.692791 0.000000 -0.075087
C81   C     C_R   0.500000 0.573187 0.500000 0.884465
C82   C     C_R   0.573145 0.500000 0.500000 0.884430
C83   C     C_R   0.500000 0.426812 0.500000 0.884466
C84   C     C_R   0.426855 0.500000 0.500000 0.884431
C85   C     C_R   1.000000 0.073187 0.000000 0.884464
C86   C     C_R   0.073145 0.000000 1.000000 0.884430
C87   C     C_R   0.000000 0.926813 0.000000 0.884465
C88   C     C_R   0.926855 0.000000 0.000000 0.884431
C89   C     C_R   1.000000 0.500000 0.380017 0.863017
C90   C     C_R   0.500000 0.000000 0.379435 0.881847
C91   C     C_R   1.000000 0.500000 0.619983 0.863017
C92   C     C_R   0.500000 0.000000 0.620565 0.881846
C93   C     C_R   0.500000 0.000000 0.880017 0.863017
C94   C     C_R   0.000000 0.500000 0.879435 0.881845
C95   C     C_R   0.500000 0.000000 0.119983 0.863017
C96   C     C_R   1.000000 0.500000 0.120565 0.881845
C97   C     C_R   0.929442 0.505454 0.307475 -0.162900
C98   C     C_R   0.563012 0.966825 0.303704 -0.152348
C99   C     C_R   0.070558 0.494547 0.307474 -0.162900
C100  C     C_R   0.436989 0.033176 0.303705 -0.152347
C101  C     C_R   0.070558 0.505454 0.692525 -0.162900
C102  C     C_R   0.436988 0.966824 0.696295 -0.152348
C103  C     C_R   0.929442 0.494546 0.692526 -0.162901
C104  C     C_R   0.563011 0.033176 0.696295 -0.152348
C105  C     C_R   0.429442 0.005454 0.807475 -0.162901
C106  C     C_R   0.063012 0.466824 0.803705 -0.152347
C107  C     C_R   0.570558 0.994546 0.807474 -0.162901
C108  C     C_R   0.936989 0.533176 0.803705 -0.152346
C109  C     C_R   0.570558 0.005454 0.192525 -0.162900
C110  C     C_R   0.936988 0.466824 0.196296 -0.152347
C111  C     C_R   0.429442 0.994546 0.192526 -0.162901
C112  C     C_R   0.063011 0.533176 0.196295 -0.152346
C113  C     C_R   0.897313 0.491118 0.277807 0.394619
C114  C     C_R   0.598390 0.968932 0.274953 0.350725
C115  C     C_R   0.102687 0.508883 0.277807 0.394619
C116  C     C_R   0.401610 0.031068 0.274954 0.350724
C117  C     C_R   0.102687 0.491119 0.722193 0.394619
C118  C     C_R   0.401610 0.968932 0.725047 0.350724
C119  C     C_R   0.897313 0.508882 0.722193 0.394620
C120  C     C_R   0.598390 0.031069 0.725047 0.350724
C121  C     C_R   0.397313 0.991118 0.777807 0.394620
C122  C     C_R   0.098390 0.468932 0.774953 0.350725
C123  C     C_R   0.602687 0.008882 0.777807 0.394620
C124  C     C_R   0.901610 0.531069 0.774954 0.350724
C125  C     C_R   0.602687 0.991119 0.222193 0.394619
C126  C     C_R   0.901610 0.468932 0.225047 0.350725
C127  C     C_R   0.397313 0.008882 0.222193 0.394619
C128  C     C_R   0.098389 0.531069 0.225046 0.350725
C129  C     C_R   0.967605 0.487821 0.220474 -0.018520
C130  C     C_R   0.534479 0.998507 0.218033 -0.036178
C131  C     C_R   0.032394 0.512179 0.220473 -0.018521
C132  C     C_R   0.465521 0.001493 0.218033 -0.036178
C133  C     C_R   0.032395 0.487822 0.779526 -0.018520
C134  C     C_R   0.465520 0.998507 0.781967 -0.036178
C135  C     C_R   0.967606 0.512179 0.779527 -0.018521
C136  C     C_R   0.534479 0.001493 0.781967 -0.036178
C137  C     C_R   0.467605 0.987822 0.720474 -0.018520
C138  C     C_R   0.034480 0.498507 0.718033 -0.036178
C139  C     C_R   0.532394 0.012179 0.720473 -0.018519
C140  C     C_R   0.965521 0.501493 0.718033 -0.036178
C141  C     C_R   0.532395 0.987822 0.279526 -0.018519
C142  C     C_R   0.965520 0.498507 0.281967 -0.036179
C143  C     C_R   0.467605 0.012178 0.279527 -0.018520
C144  C     C_R   0.034479 0.501493 0.281967 -0.036179
C145  C     C_R   1.000000 0.500000 0.187329 -0.084935
C146  C     C_R   0.500000 0.000000 0.185699 -0.070241
C147  C     C_R   0.000000 0.500000 0.812670 -0.084935
C148  C     C_R   0.500000 1.000000 0.814300 -0.070241
C149  C     C_R   0.500000 0.000000 0.687329 -0.084934
C150  C     C_R   0.000000 0.500000 0.685700 -0.070241
C151  C     C_R   0.500000 0.000000 0.312670 -0.084934
C152  C     C_R   1.000000 0.500000 0.314300 -0.070241
C153  C     C_R   0.326797 0.495406 0.555568 0.006681
C154  C     C_R   0.501296 0.673431 0.556014 0.012090
C155  C     C_R   0.673203 0.504594 0.555567 0.006681
C156  C     C_R   0.498704 0.326568 0.556014 0.012090
C157  C     C_R   0.673203 0.495405 0.444432 0.006681
C158  C     C_R   0.498704 0.673431 0.443986 0.012090
C159  C     C_R   0.326797 0.504594 0.444433 0.006681
C160  C     C_R   0.501296 0.326568 0.443986 0.012090
C161  C     C_R   0.826797 0.995404 0.055567 0.006682
C162  C     C_R   0.001298 0.173431 0.056014 0.012090
C163  C     C_R   0.173202 0.004595 0.055567 0.006682
C164  C     C_R   0.998698 0.826568 0.056014 0.012090
C165  C     C_R   0.173203 0.995405 0.944432 0.006682
C166  C     C_R   0.998702 0.173431 0.943986 0.012090
C167  C     C_R   0.826797 0.004596 0.944433 0.006682
C168  C     C_R   0.001302 0.826568 0.943986 0.012090
C169  C     C_R   0.365966 0.495514 0.555277 -0.216580
C170  C     C_R   0.501265 0.634214 0.555702 -0.216927
C171  C     C_R   0.634034 0.504486 0.555276 -0.216580
C172  C     C_R   0.498735 0.365786 0.555702 -0.216927
C173  C     C_R   0.634034 0.495513 0.444724 -0.216580
C174  C     C_R   0.498735 0.634214 0.444298 -0.216927
C175  C     C_R   0.365966 0.504486 0.444724 -0.216579
C176  C     C_R   0.501265 0.365786 0.444298 -0.216927
C177  C     C_R   0.865966 0.995512 0.055276 -0.216580
C178  C     C_R   0.001267 0.134214 0.055702 -0.216927
C179  C     C_R   0.134034 0.004487 0.055276 -0.216580
C180  C     C_R   0.998729 0.865786 0.055701 -0.216927
C181  C     C_R   0.134034 0.995513 0.944724 -0.216580
C182  C     C_R   0.998733 0.134214 0.944298 -0.216927
C183  C     C_R   0.865966 0.004488 0.944724 -0.216580
C184  C     C_R   0.001271 0.865786 0.944299 -0.216927
C185  C     C_R   0.385710 0.500000 0.500000 -0.072270
C186  C     C_R   0.500000 0.614421 0.500000 -0.074760
C187  C     C_R   0.614290 0.500000 0.500000 -0.072271
C188  C     C_R   0.500000 0.385579 0.500000 -0.074760
C189  C     C_R   0.885710 1.000000 0.000000 -0.072270
C190  C     C_R   1.000000 0.114421 1.000000 -0.074760
C191  C     C_R   0.114290 0.000000 1.000000 -0.072271
C192  C     C_R   0.000000 0.885579 0.000000 -0.074759
H1    H     H_    0.380993 0.491910 0.598209 0.172845
H2    H     H_    0.502283 0.619190 0.599015 0.173296
H3    H     H_    0.619007 0.508091 0.598208 0.172845
H4    H     H_    0.497717 0.380810 0.599015 0.173297
H5    H     H_    0.619007 0.491909 0.401791 0.172845
H6    H     H_    0.497717 0.619190 0.400985 0.173297
H7    H     H_    0.380993 0.508090 0.401791 0.172845
H8    H     H_    0.502283 0.380810 0.400985 0.173297
H9    H     H_    0.880993 0.991906 0.098208 0.172844
H10   H     H_    0.002287 0.119190 0.099015 0.173296
H11   H     H_    0.119007 0.008092 0.098208 0.172845
H12   H     H_    0.997706 0.880810 0.099014 0.173296
H13   H     H_    0.119007 0.991908 0.901792 0.172845
H14   H     H_    0.997713 0.119190 0.900985 0.173296
H15   H     H_    0.880993 0.008094 0.901792 0.172845
H16   H     H_    0.002294 0.880810 0.900986 0.173296
O1    O     O_R   0.055450 0.468680 0.499980 -0.574526
O2    O     O_R   0.468680 0.944550 0.499980 -0.583719
O3    O     O_R   0.944550 0.531320 0.499980 -0.574526
O4    O     O_R   0.531320 0.055450 0.499980 -0.583719
O5    O     O_R   0.944550 0.468680 0.500020 -0.574526
O6    O     O_R   0.531320 0.944550 0.500020 -0.583718
O7    O     O_R   0.055450 0.531320 0.500020 -0.574527
O8    O     O_R   0.468680 0.055450 0.500020 -0.583718
O9    O     O_R   0.555450 0.968680 0.999980 -0.574526
O10   O     O_R   0.968680 0.444550 0.999980 -0.583719
O11   O     O_R   0.444550 0.031320 0.999980 -0.574526
O12   O     O_R   0.031320 0.555450 0.999980 -0.583718
O13   O     O_R   0.444550 0.968680 0.000020 -0.574527
O14   O     O_R   0.031320 0.444550 0.000020 -0.583718
O15   O     O_R   0.555450 0.031320 0.000020 -0.574527
O16   O     O_R   0.968680 0.555450 0.000020 -0.583717
O17   O     O_R   0.000010 0.468680 0.408370 -0.605220
O18   O     O_R   0.468680 0.999990 0.408370 -0.611367
O19   O     O_R   0.999990 0.531320 0.408370 -0.605221
O20   O     O_R   0.531320 0.000010 0.408370 -0.611368
O21   O     O_R   0.999990 0.468680 0.591630 -0.605220
O22   O     O_R   0.531320 0.999990 0.591630 -0.611367
O23   O     O_R   0.000010 0.531320 0.591630 -0.605221
O24   O     O_R   0.468680 0.000010 0.591630 -0.611368
O25   O     O_R   0.500010 0.968680 0.908370 -0.605220
O26   O     O_R   0.968680 0.499990 0.908370 -0.611367
O27   O     O_R   0.499990 0.031320 0.908370 -0.605221
O28   O     O_R   0.031320 0.500010 0.908370 -0.611368
O29   O     O_R   0.499990 0.968680 0.091630 -0.605220
O30   O     O_R   0.031320 0.499990 0.091630 -0.611366
O31   O     O_R   0.500010 0.031320 0.091630 -0.605221
O32   O     O_R   0.968680 0.500010 0.091630 -0.611367
O33   O     O_R   0.500050 0.555340 0.448290 -0.618705
O34   O     O_R   0.555340 0.499950 0.448290 -0.618563
O35   O     O_R   0.499950 0.444660 0.448290 -0.618705
O36   O     O_R   0.444660 0.500050 0.448290 -0.618563
O37   O     O_R   0.499950 0.555340 0.551710 -0.618705
O38   O     O_R   0.444660 0.499950 0.551710 -0.618563
O39   O     O_R   0.500050 0.444660 0.551710 -0.618705
O40   O     O_R   0.555340 0.500050 0.551710 -0.618563
O41   O     O_R   0.000050 0.055340 0.948290 -0.618705
O42   O     O_R   0.055340 0.999950 0.948290 -0.618563
O43   O     O_R   0.999950 0.944660 0.948290 -0.618704
O44   O     O_R   0.944660 0.000050 0.948290 -0.618562
O45   O     O_R   0.999950 0.055340 0.051710 -0.618705
O46   O     O_R   0.944660 0.999950 0.051710 -0.618563
O47   O     O_R   0.000050 0.944660 0.051710 -0.618705
O48   O     O_R   0.055340 0.000050 0.051710 -0.618563
Zn1   Zn    Zn3+2 1.000000 0.458180 0.500000 1.115468
Zn2   Zn    Zn3+2 0.458180 0.000000 0.500000 1.117678
Zn3   Zn    Zn3+2 0.000000 0.541820 0.500000 1.115467
Zn4   Zn    Zn3+2 0.541820 0.000000 0.500000 1.117678
Zn5   Zn    Zn3+2 0.500000 0.958180 0.000000 1.115468
Zn6   Zn    Zn3+2 0.958180 0.500000 0.000000 1.117679
Zn7   Zn    Zn3+2 0.500000 0.041820 0.000000 1.115467
Zn8   Zn    Zn3+2 0.041820 0.500000 0.000000 1.117679
Zn9   Zn    Zn3+2 0.500000 0.500000 0.430910 0.991619
Zn10  Zn    Zn3+2 0.500000 0.500000 0.569090 0.991619
Zn11  Zn    Zn3+2 1.000000 1.000000 0.930910 0.991619
Zn12  Zn    Zn3+2 0.000000 0.000000 0.069090 0.991619
Cl1   Cl    Cl    0.148207 0.499640 0.306963 -0.499851
Cl2   Cl    Cl    0.362414 0.054971 0.306239 -0.451372
Cl3   Cl    Cl    0.851792 0.500361 0.306964 -0.499853
Cl4   Cl    Cl    0.637586 0.945030 0.306239 -0.451373
Cl5   Cl    Cl    0.851793 0.499640 0.693037 -0.499851
Cl6   Cl    Cl    0.637586 0.054971 0.693761 -0.451372
Cl7   Cl    Cl    0.148208 0.500362 0.693036 -0.499853
Cl8   Cl    Cl    0.362414 0.945029 0.693762 -0.451373
Cl9   Cl    Cl    0.648207 0.999639 0.806963 -0.499851
Cl10  Cl    Cl    0.862414 0.554972 0.806240 -0.451372
Cl11  Cl    Cl    0.351792 0.000362 0.806964 -0.499854
Cl12  Cl    Cl    0.137586 0.445029 0.806239 -0.451372
Cl13  Cl    Cl    0.351793 0.999639 0.193037 -0.499851
Cl14  Cl    Cl    0.137585 0.554972 0.193760 -0.451372
Cl15  Cl    Cl    0.648208 0.000362 0.193036 -0.499854
Cl16  Cl    Cl    0.862414 0.445029 0.193762 -0.451372
C193  C     C_1   0.924302 0.534426 0.353160 0.293446
N1    N     N_1   0.919637 0.558428 0.388253 -0.118623
C194  C     C_1   0.556896 0.937355 0.348339 0.352448
N2    N     N_1   0.552405 0.913199 0.383176 -0.147645
C195  C     C_1   0.075698 0.465575 0.353160 0.293447
N3    N     N_1   0.080364 0.441572 0.388253 -0.118624
C196  C     C_1   0.443104 0.062645 0.348339 0.352447
N4    N     N_1   0.447596 0.086801 0.383176 -0.147645
C197  C     C_1   0.075697 0.534426 0.646839 0.293445
N5    N     N_1   0.080363 0.558428 0.611746 -0.118623
C198  C     C_1   0.443104 0.937355 0.651661 0.352448
N6    N     N_1   0.447595 0.913199 0.616824 -0.147645
C199  C     C_1   0.924302 0.465575 0.646840 0.293447
N7    N     N_1   0.919636 0.441572 0.611747 -0.118624
C200  C     C_1   0.556896 0.062645 0.651661 0.352447
N8    N     N_1   0.552404 0.086801 0.616824 -0.147646
C201  C     C_1   0.424303 0.034426 0.853160 0.293446
N9    N     N_1   0.419637 0.058428 0.888254 -0.118623
C202  C     C_1   0.056896 0.437355 0.848339 0.352447
N10   N     N_1   0.052404 0.413199 0.883176 -0.147645
C203  C     C_1   0.575697 0.965575 0.853160 0.293447
N11   N     N_1   0.580363 0.941572 0.888253 -0.118623
C204  C     C_1   0.943105 0.562646 0.848339 0.352444
N12   N     N_1   0.947597 0.586801 0.883176 -0.147647
C205  C     C_1   0.575697 0.034426 0.146839 0.293446
N13   N     N_1   0.580363 0.058429 0.111746 -0.118623
C206  C     C_1   0.943104 0.437355 0.151661 0.352447
N14   N     N_1   0.947595 0.413199 0.116824 -0.147645
C207  C     C_1   0.424303 0.965574 0.146840 0.293447
N15   N     N_1   0.419637 0.941572 0.111747 -0.118624
C208  C     C_1   0.056895 0.562646 0.151661 0.352443
N16   N     N_1   0.052403 0.586802 0.116824 -0.147647
C209  C     C_1   0.307314 0.490483 0.613300 0.195316
N17   N     N_1   0.291681 0.486534 0.659471 -0.118889
C210  C     C_1   0.502672 0.692897 0.614279 0.189966
N18   N     N_1   0.503770 0.708492 0.660905 -0.148829
C211  C     C_1   0.692686 0.509519 0.613298 0.195316
N19   N     N_1   0.708318 0.513468 0.659469 -0.118890
C212  C     C_1   0.497329 0.307103 0.614279 0.189967
N20   N     N_1   0.496231 0.291507 0.660905 -0.148829
C213  C     C_1   0.692686 0.490481 0.386701 0.195316
N21   N     N_1   0.708319 0.486532 0.340530 -0.118889
C214  C     C_1   0.497328 0.692897 0.385721 0.189967
N22   N     N_1   0.496230 0.708492 0.339095 -0.148829
C215  C     C_1   0.307314 0.509517 0.386701 0.195315
N23   N     N_1   0.291681 0.513466 0.340530 -0.118889
C216  C     C_1   0.502671 0.307103 0.385721 0.189967
N24   N     N_1   0.503769 0.291507 0.339095 -0.148829
C217  C     C_1   0.807314 0.990478 0.113298 0.195316
N25   N     N_1   0.791681 0.986528 0.159469 -0.118890
C218  C     C_1   0.002676 0.192897 0.114279 0.189966
N26   N     N_1   0.003776 0.208492 0.160905 -0.148829
C219  C     C_1   0.192686 0.009520 0.113298 0.195316
N27   N     N_1   0.208318 0.013470 0.159469 -0.118890
C220  C     C_1   0.997316 0.807103 0.114279 0.189966
N28   N     N_1   0.996212 0.791508 0.160904 -0.148829
C221  C     C_1   0.192686 0.990480 0.886701 0.195315
N29   N     N_1   0.208319 0.986530 0.840530 -0.118889
C222  C     C_1   0.997324 0.192897 0.885721 0.189966
N30   N     N_1   0.996224 0.208492 0.839095 -0.148829
C223  C     C_1   0.807314 0.009522 0.886702 0.195315
N31   N     N_1   0.791682 0.013472 0.840531 -0.118890
C224  C     C_1   0.002684 0.807103 0.885721 0.189966
N32   N     N_1   0.003788 0.791508 0.839096 -0.148829
C225  C     C_1   0.194304 0.444761 0.569386 0.371441
N33   N     N_1   0.210665 0.422549 0.597652 -0.116911
C226  C     C_1   0.540776 0.806438 0.592423 0.323272
N34   N     N_1   0.557205 0.790189 0.629881 -0.136093
C227  C     C_1   0.805695 0.555238 0.569385 0.371441
N35   N     N_1   0.789334 0.577450 0.597651 -0.116911
C228  C     C_1   0.459223 0.193562 0.592423 0.323272
N36   N     N_1   0.442794 0.209811 0.629881 -0.136093
C229  C     C_1   0.805695 0.444761 0.430614 0.371442
N37   N     N_1   0.789334 0.422549 0.402349 -0.116911
C230  C     C_1   0.459223 0.806438 0.407577 0.323272
N38   N     N_1   0.442795 0.790189 0.370119 -0.136093
C231  C     C_1   0.194305 0.555239 0.430615 0.371441
N39   N     N_1   0.210666 0.577451 0.402349 -0.116911
C232  C     C_1   0.540777 0.193562 0.407577 0.323272
N40   N     N_1   0.557206 0.209811 0.370119 -0.136093
C233  C     C_1   0.694304 0.944762 0.069386 0.371441
N41   N     N_1   0.710665 0.922550 0.097652 -0.116911
C234  C     C_1   0.040777 0.306438 0.092422 0.323271
N42   N     N_1   0.057206 0.290189 0.129880 -0.136092
C235  C     C_1   0.305695 0.055238 0.069386 0.371441
N43   N     N_1   0.289334 0.077450 0.097651 -0.116911
C236  C     C_1   0.959220 0.693562 0.092419 0.323271
N44   N     N_1   0.942790 0.709811 0.129876 -0.136091
C237  C     C_1   0.305695 0.944761 0.930614 0.371442
N45   N     N_1   0.289334 0.922549 0.902348 -0.116911
C238  C     C_1   0.959223 0.306438 0.907578 0.323272
N46   N     N_1   0.942794 0.290189 0.870120 -0.136092
C239  C     C_1   0.694305 0.055238 0.930615 0.371441
N47   N     N_1   0.710666 0.077450 0.902349 -0.116911
C240  C     C_1   0.040780 0.693562 0.907581 0.323271
N48   N     N_1   0.057210 0.709811 0.870124 -0.136090
Cl17  Cl    Cl    0.110628 0.438554 0.579543 -0.535609
Cl18  Cl    Cl    0.544343 0.890858 0.604350 -0.562381
Cl19  Cl    Cl    0.889372 0.561446 0.579542 -0.535607
Cl20  Cl    Cl    0.455657 0.109142 0.604349 -0.562381
Cl21  Cl    Cl    0.889372 0.438554 0.420457 -0.535609
Cl22  Cl    Cl    0.455657 0.890858 0.395650 -0.562381
Cl23  Cl    Cl    0.110628 0.561446 0.420457 -0.535607
Cl24  Cl    Cl    0.544343 0.109142 0.395651 -0.562381
Cl25  Cl    Cl    0.610628 0.938554 0.079543 -0.535609
Cl26  Cl    Cl    0.044343 0.390858 0.104349 -0.562380
Cl27  Cl    Cl    0.389372 0.061446 0.079543 -0.535607
Cl28  Cl    Cl    0.955654 0.609142 0.104347 -0.562376
Cl29  Cl    Cl    0.389372 0.938554 0.920457 -0.535609
Cl30  Cl    Cl    0.955657 0.390858 0.895651 -0.562380
Cl31  Cl    Cl    0.610628 0.061446 0.920457 -0.535607
Cl32  Cl    Cl    0.044346 0.609142 0.895653 -0.562377

loop_
_geom_bond_atom_site_label_1
_geom_bond_atom_site_label_2
_ccdc_geom_bond_type
O3    Zn3   S    
C38   C230  S    
C130  C146  A    
C196  N4    T    
C137  C149  A    
C10   C154  A    
C219  N27   T    
C201  N9    T    
C96   C145  S    
O46   Zn12  S    
C229  N37   T    
C46   C62   A    
C15   C163  A    
O42   Zn11  S    
C98   C114  A    
O47   Zn12  S    
C60   C72   A    
C154  C170  A    
C6    C70   S    
O34   Zn9   S    
C130  C141  A    
O39   Zn10  S    
C158  C174  A    
C106  C133  A    
C5    O9    A    
C33   C225  S    
C129  C145  A    
C88   O44   A    
C51   Cl19  S    
C61   C71   A    
C160  C216  S    
C143  C151  A    
O48   Zn12  S    
C37   C229  S    
C42   C58   A    
C84   C185  S    
C95   C146  S    
C108  C124  A    
C27   C75   S    
C183  C189  A    
C59   Cl27  S    
C55   C65   A    
C176  C188  A    
C88   C189  S    
C159  C215  S    
C212  N20   T    
O35   Zn9   S    
C171  H3    S    
C124  Cl10  S    
C127  Cl13  S    
C58   C70   A    
C169  H1    S    
C129  C142  A    
C20   C28   T    
C217  N25   T    
C1    O1    A    
C40   C76   A    
C23   C31   T    
C24   C32   T    
C107  C136  A    
C32   C80   S    
O44   Zn11  S    
O1    Zn1   S    
C202  N10   T    
C161  C217  S    
C12   C20   S    
C48   C240  S    
C13   C21   S    
C84   O36   A    
C95   O31   A    
C33   C73   A    
C2    O6    A    
C35   C51   A    
O33   Zn9   S    
C172  H4    S    
C161  C177  A    
O43   Zn11  S    
C11   C157  A    
O25   Zn5   S    
C90   O20   A    
C90   O18   A    
C121  Cl11  S    
C44   C236  S    
O32   Zn6   S    
C122  Cl12  S    
C21   C29   T    
C238  N46   T    
C123  Cl9   S    
C120  Cl6   S    
C50   Cl18  S    
C3    O5    A    
C82   O40   A    
C17   C25   T    
C101  C117  A    
C56   C68   A    
C233  N41   T    
C47   C63   A    
C10   C18   S    
C138  C150  A    
C112  C131  A    
C97   C142  A    
C111  C207  S    
C218  N26   T    
C179  C191  A    
C211  N19   T    
C83   O39   A    
C230  N38   T    
C92   O24   A    
C182  C190  A    
C87   C192  S    
C6    O14   A    
C101  C197  S    
C42   C234  S    
C85   O41   A    
C225  N33   T    
C4    O8    A    
C183  H15   S    
C226  N34   T    
C166  C182  A    
C128  Cl14  S    
C117  Cl7   S    
C57   Cl25  S    
C118  Cl8   S    
C62   Cl30  S    
C87   O43   A    
C62   C70   A    
C56   Cl24  S    
C55   Cl23  S    
C7    O13   A    
C86   O48   A    
C110  C129  A    
C84   O38   A    
O36   Zn9   S    
C95   O29   A    
O7    Zn3   S    
C167  C223  S    
C89   C152  S    
C63   C69   A    
C1    C65   S    
C133  C147  A    
C92   O22   A    
C14   C166  A    
C49   Cl17  S    
C10   C158  A    
C36   C52   A    
C43   C59   A    
C37   C53   A    
C112  C208  S    
C9    C153  A    
C43   C235  S    
O31   Zn7   S    
C12   C156  A    
C3    O3    A    
O9    Zn5   S    
C164  C220  S    
O29   Zn5   S    
C108  C135  A    
C4    C68   S    
O16   Zn6   S    
C113  C126  A    
C35   C227  S    
C156  C172  A    
C115  C128  A    
C91   O23   A    
C182  H14   S    
C102  C137  A    
C117  C122  A    
C107  C203  S    
C197  N5    T    
C106  C122  A    
C195  N3    T    
C51   C67   A    
C58   Cl26  S    
C175  H7    S    
C136  C148  A    
C110  C126  A    
C179  H11   S    
C135  C147  A    
C163  C179  A    
C177  H9    S    
C83   C188  S    
C81   C186  S    
C92   C149  S    
C98   C194  S    
C38   C74   A    
C109  C125  A    
C173  C187  A    
O27   Zn7   S    
C22   C30   T    
C96   O30   A    
C113  Cl3   S    
C2    C66   S    
C8    O16   A    
C34   C50   A    
O14   Zn8   S    
C154  C210  S    
O20   Zn4   S    
C155  C211  S    
C162  C218  S    
C100  C116  A    
O41   Zn11  S    
C144  C152  A    
C103  C140  A    
C131  C145  A    
C25   C73   S    
C39   C73   A    
C37   C75   A    
C53   C67   A    
C162  C178  A    
C208  N16   T    
C29   C77   S    
C15   C165  A    
O38   Zn10  S    
O30   Zn8   S    
C18   C26   T    
C107  C123  A    
C166  C222  S    
C222  N30   T    
C61   Cl29  S    
O18   Zn2   S    
C134  C137  A    
O15   Zn7   S    
C227  N35   T    
C240  N48   T    
C11   C19   S    
C91   O21   A    
O13   Zn5   S    
C168  C224  S    
C81   O33   A    
C178  C190  A    
C48   C64   A    
C2    O2    A    
C33   C49   A    
C236  N44   T    
C83   O35   A    
C93   C148  S    
C199  N7    T    
C142  C152  A    
C39   C231  S    
C5    C69   S    
C6    O10   A    
C39   C55   A    
C125  Cl15  S    
C40   C56   A    
C116  C127  A    
C126  Cl16  S    
C232  N40   T    
C184  C192  A    
C164  C180  A    
C120  C123  A    
C132  C143  A    
C87   O47   A    
C163  C219  S    
C133  C138  A    
O24   Zn2   S    
C96   O32   A    
C82   O34   A    
C176  H8    S    
C136  C139  A    
C116  Cl2   S    
C165  C221  S    
C46   C238  S    
C36   C228  S    
O45   Zn12  S    
C135  C140  A    
C103  C119  A    
C8    C72   S    
C204  N12   T    
C99   C144  A    
C44   C80   A    
O11   Zn7   S    
C198  N6    T    
C170  H2    S    
C88   O46   A    
C93   O25   A    
C85   C190  S    
C119  C124  A    
C139  C149  A    
C16   C164  A    
C114  Cl4   S    
C14   C162  A    
C200  N8    T    
C193  N1    T    
C175  C185  A    
C220  N28   T    
C38   C54   A    
C170  C186  A    
C115  Cl1   S    
C45   C79   A    
C12   C160  A    
C13   C161  A    
C34   C74   A    
C54   C66   A    
O22   Zn4   S    
O28   Zn8   S    
C28   C76   S    
C224  N32   T    
C156  C212  S    
C46   C78   A    
C103  C199  S    
O5    Zn1   S    
C94   O26   A    
C89   O17   A    
C90   C151  S    
C180  H12   S    
C100  C143  A    
C97   C193  S    
C91   C150  S    
C101  C138  A    
O2    Zn2   S    
C60   Cl28  S    
C184  H16   S    
C104  C139  A    
C132  C146  A    
C41   C57   A    
C214  N22   T    
C153  C209  S    
C7    C71   S    
C181  C191  A    
C14   C22   S    
C207  N15   T    
O23   Zn3   S    
C44   C60   A    
C99   C115  A    
C45   C61   A    
O4    Zn4   S    
C110  C206  S    
C213  N21   T    
C112  C128  A    
C169  C185  A    
C210  N18   T    
C53   Cl21  S    
C203  N11   T    
C153  C169  A    
C131  C144  A    
C157  C173  A    
C105  C134  A    
C104  C120  A    
O21   Zn1   S    
C86   O42   A    
C206  N14   T    
C215  N23   T    
O37   Zn10  S    
O8    Zn2   S    
C216  N24   T    
C221  N29   T    
C93   O27   A    
C35   C75   A    
C86   C191  S    
C49   C65   A    
C40   C232  S    
C172  C188  A    
C100  C196  S    
C41   C77   A    
C13   C167  A    
O40   Zn10  S    
C9    C159  A    
C43   C79   A    
C64   Cl32  S    
C45   C237  S    
C36   C76   A    
C63   Cl31  S    
C167  C183  A    
C228  N36   T    
C108  C204  S    
C168  C184  A    
C1    O7    A    
C19   C27   T    
C102  C118  A    
O19   Zn3   S    
C7    O11   A    
C15   C23   S    
C158  C214  S    
C16   C24   S    
C159  C175  A    
C160  C176  A    
O6    Zn4   S    
O12   Zn8   S    
C89   O19   A    
C174  H6    S    
C177  C189  A    
C81   O37   A    
C180  C192  A    
C114  C125  A    
C105  C201  S    
C118  C121  A    
C181  H13   S    
C106  C202  S    
C8    O12   A    
C119  Cl5   S    
C234  N42   T    
C173  H5    S    
O26   Zn6   S    
C52   Cl20  S    
C105  C121  A    
C50   C66   A    
C239  N47   T    
C9    C17   S    
C5    O15   A    
C42   C78   A    
C157  C213  S    
C178  H10   S    
C98   C141  A    
C111  C127  A    
O10   Zn6   S    
C47   C239  S    
C47   C77   A    
C97   C113  A    
C140  C150  A    
C141  C151  A    
C235  N43   T    
C94   C147  S    
C3    C67   S    
C52   C68   A    
C31   C79   S    
C102  C198  S    
C11   C155  A    
C134  C148  A    
C231  N39   T    
C85   O45   A    
C4    O4    A    
C171  C187  A    
C82   C187  S    
C165  C181  A    
C48   C80   A    
O17   Zn1   S    
C41   C233  S    
C237  N45   T    
C174  C186  A    
C94   O28   A    
C16   C168  A    
C104  C200  S    
C26   C74   S    
C205  N13   T    
C64   C72   A    
C209  N17   T    
C54   Cl22  S    
C30   C78   S    
C194  N2    T    
C155  C171  A    
C111  C132  A    
C34   C226  S    
C109  C205  S    
C109  C130  A    
C57   C69   A    
C223  N31   T    
C99   C195  S    
C59   C71   A    
