data_mof_unit_48903.cif
_audit_creation_date              2012-12-10T16:42:56-0500
_audit_creation_method            fapswitch 2.2
_symmetry_space_group_name_H-M    P1
_symmetry_Int_Tables_number       1
_space_group_crystal_system       triclinic
_cell_length_a                    7.486596
_cell_length_b                    8.751127
_cell_length_c                    12.974505
_cell_angle_alpha                 88.718276
_cell_angle_beta                  80.218677
_cell_angle_gamma                 102.723897
_cell_volume                      815.529753236

loop_
_atom_site_label
_atom_site_type_symbol
_atom_type_description
_atom_site_fract_x
_atom_site_fract_y
_atom_site_fract_z
_atom_type_partial_charge
C1    C     C_R   0.452881 0.199569 0.508745 0.784337
C2    C     C_R   0.546501 0.799106 0.495806 0.821896
C3    C     C_R   0.469022 0.506238 0.700786 0.824530
C4    C     C_R   0.533750 0.513140 0.298429 0.779642
C5    C     C_R   0.557814 0.542378 0.184085 -0.156757
C6    C     C_R   0.454614 0.532926 0.812715 -0.153855
C7    C     C_R   0.274149 0.568726 0.980594 -0.297688
C8    C     C_R   0.755195 0.581952 0.011973 -0.295526
C9    C     C_R   0.282342 0.540415 0.874934 0.501158
C10   C     C_R   0.734214 0.556592 0.119951 0.491964
C11   C     C_R   0.614754 0.558545 0.857736 -0.321590
C12   C     C_R   0.407848 0.561284 0.137601 -0.324762
C13   C     C_R   0.600272 0.572694 0.965459 0.103612
C14   C     C_R   0.426901 0.569901 0.028291 0.105231
C15   C     C_2   0.429516 0.030617 0.523780 0.118980
C16   C     C_2   0.571527 0.965474 0.483663 0.182507
Cu1   Cu    Cu3+1 0.686350 0.517570 0.488220 0.954371
Cu2   Cu    Cu3+1 0.313650 0.482430 0.511780 0.963981
H1    H     H_    0.275146 0.561303 0.186037 0.197761
H2    H     H_    0.748892 0.559414 0.810193 0.208843
H3    H     H_    0.147851 0.585586 0.025660 0.203593
H4    H     H_    0.890577 0.598387 0.964257 0.199271
H5    H     H_    0.935018 0.377829 0.581728 0.226768
H6    H     H_    0.064809 0.622076 0.418009 0.219675
N1    N     N_2   0.033570 0.455950 0.529530 -0.205701
N2    N     N_2   0.966430 0.544050 0.470470 -0.222968
O1    O     O_R   0.621060 0.286250 0.492350 -0.551552
O2    O     O_R   0.378940 0.713750 0.507650 -0.578146
O3    O     O_R   0.306310 0.256580 0.512240 -0.599854
O4    O     O_R   0.693690 0.743420 0.487760 -0.600095
O5    O     O_R   0.631800 0.512400 0.642670 -0.610568
O6    O     O_R   0.368200 0.487600 0.357330 -0.599251
O7    O     O_R   0.317060 0.482730 0.662570 -0.531027
O8    O     O_R   0.682940 0.517270 0.337430 -0.534431
O9    O     O_3   0.886719 0.540761 0.161789 -0.588785
C17   C     C_3   0.896958 0.382095 0.158047 -0.351575
H7    H     H_    0.928586 0.347711 0.076659 0.153166
H8    H     H_    0.765306 0.303078 0.198361 0.156702
H9    H     H_    0.013039 0.366188 0.196424 0.186187
O10   O     O_3   0.123104 0.527755 0.832154 -0.575993
C18   C     C_3   0.025165 0.368708 0.840035 -0.336628
H10   H     H_    0.911222 0.345886 0.908648 0.155609
H11   H     H_    0.114039 0.282508 0.843964 0.142552
H12   H     H_    0.958432 0.346479 0.770182 0.194346
O11   O     O_3   0.291825 0.943695 0.602812 -0.623217
C19   C     C_3   0.107906 0.947075 0.592516 0.143092
H13   H     H_    0.030525 0.823777 0.589933 0.185896
H14   H     H_    0.094857 0.009413 0.519448 0.157012
C20   C     C_3   0.018863 0.014837 0.690714 -0.359413
H15   H     H_    0.033950 0.947590 0.761258 0.234807
H16   H     H_    0.094087 0.138336 0.693364 0.218706
C21   C     C_3   0.812929 0.008360 0.694135 -0.870450
H17   H     H_    0.795870 0.091517 0.632990 0.283757
H18   H     H_    0.751993 0.043879 0.771492 0.237284
H19   H     H_    0.736759 0.887501 0.683063 0.268824
O12   O     O_3   0.750143 0.052685 0.445985 -0.618255
C22   C     C_3   0.785555 0.065560 0.335648 0.032110
H20   H     H_    0.889636 0.176857 0.315119 0.194167
H21   H     H_    0.660142 0.072628 0.301596 0.092114
C23   C     C_3   0.873549 0.934588 0.288332 -0.315496
H22   H     H_    0.983141 0.915532 0.332015 0.226231
H23   H     H_    0.764890 0.824664 0.293742 0.221754
C24   C     C_3   0.959674 0.974500 0.172861 -0.931666
H24   H     H_    0.852271 0.993364 0.127530 0.251735
H25   H     H_    0.018555 0.876093 0.140475 0.285069
H26   H     H_    0.073663 0.081951 0.163884 0.246007

loop_
_geom_bond_atom_site_label_1
_geom_bond_atom_site_label_2
_ccdc_geom_bond_type
C8    H4    S    
C16   O12   S    
C8    C13   A    
C1    C15   S    
C2    C16   S    
C7    C14   A    
C11   C13   A    
C18   H10   S    
O9    C17   S    
C21   H19   S    
C2    O4    A    
C3    C6    S    
C20   C21   S    
C6    C9    A    
C24   H25   S    
Cu1   Cu2   S    
C24   H26   S    
C21   H18   S    
C5    C10   A    
Cu2   O3    S    
C7    H3    S    
C13   C14   A    
C21   H17   S    
C3    O5    A    
Cu1   O4    S    
C18   H11   S    
C19   C20   S    
C22   H20   S    
C4    O6    A    
Cu2   N1    S    
C23   H22   S    
C23   C24   S    
Cu1   N2    S    
C12   H1    S    
C17   H8    S    
O10   C18   S    
Cu2   O7    S    
C12   C14   A    
C4    O8    A    
H5    N1    S    
Cu1   O5    S    
C18   H12   S    
C19   H14   S    
C11   H2    S    
C22   H21   S    
C8    C10   A    
Cu2   O6    S    
Cu1   O8    S    
C1    O3    A    
C15   C16   D    
Cu1   O1    S    
C7    C9    A    
Cu2   O2    S    
O12   C22   S    
C10   O9    S    
C5    C12   A    
C23   H23   S    
C20   H15   S    
C6    C11   A    
C1    O1    A    
C3    O7    A    
C19   H13   S    
C17   H7    S    
C22   C23   S    
C2    O2    A    
N1    N2    D    
O11   C19   S    
C17   H9    S    
C9    O10   S    
C24   H24   S    
H6    N2    S    
C4    C5    S    
C20   H16   S    
C15   O11   S    
