data_mof_unit_17952.cif
_audit_creation_date              2012-12-10T17:47:00-0500
_audit_creation_method            fapswitch 2.2
_symmetry_space_group_name_H-M    P1
_symmetry_Int_Tables_number       1
_space_group_crystal_system       triclinic
_cell_length_a                    9.985044
_cell_length_b                    10.715398
_cell_length_c                    13.663097
_cell_angle_alpha                 93.050583
_cell_angle_beta                  83.945999
_cell_angle_gamma                 90.560383
_cell_volume                      1451.63988202

loop_
_atom_site_label
_atom_site_type_symbol
_atom_type_description
_atom_site_fract_x
_atom_site_fract_y
_atom_site_fract_z
_atom_type_partial_charge
C1    C     C_R   0.503959 0.737513 0.486131 0.910107
C2    C     C_1   0.461166 0.493087 0.787634 -0.193099
C3    C     C_R   0.308472 0.874897 0.378982 0.264493
C4    C     C_R   0.182686 0.930365 0.377312 -0.277484
C5    C     C_R   0.150908 0.039991 0.434182 0.080709
C6    C     C_R   0.249446 0.101543 0.483364 -0.134079
C7    C     C_R   0.382200 0.054747 0.476313 -0.014939
C8    C     C_R   0.402792 0.931693 0.438356 0.024461
C9    C     C_R   0.515452 0.868673 0.463359 -0.213382
C10   C     C_R   0.628947 0.936663 0.489283 0.204046
C11   C     C_R   0.615124 0.061022 0.519383 0.038371
C12   C     C_R   0.476902 0.499169 0.684982 0.877881
C13   C     C_R   0.494342 0.123489 0.507685 -0.199275
C14   C     C_R   0.835214 0.635331 0.646132 -0.195743
C15   C     C_R   0.879908 0.673365 0.735452 0.175713
C16   C     C_R   0.016793 0.661961 0.745997 -0.018842
C17   C     C_R   0.107259 0.631189 0.661462 0.229642
C18   C     C_R   0.059716 0.565163 0.576737 0.021205
C19   C     C_R   0.916355 0.565970 0.573638 0.062733
C20   C     C_R   0.938002 0.435937 0.429568 -0.164488
C21   C     C_R   0.081248 0.437645 0.428036 0.252640
C22   C     C_R   0.497813 0.259466 0.505903 0.885145
C23   C     C_R   0.523380 0.496924 0.314842 0.924003
C24   C     C_1   0.540450 0.487980 0.211544 -0.185622
C25   C     C_2   0.557879 0.477553 0.019815 0.045920
C26   C     C_2   0.442056 0.481325 0.978546 0.228387
C27   C     C_1   0.449673 0.487001 0.874507 0.023683
C28   C     C_1   0.552778 0.481445 0.124059 -0.063385
H1    H     H_    0.735660 0.661246 0.635161 0.220553
H2    H     H_    0.109842 0.888077 0.332388 0.138176
H3    H     H_    0.217045 0.181424 0.531064 0.182945
H4    H     H_    0.891565 0.382457 0.372708 0.149533
N1    N     N_R   0.857120 0.501200 0.500900 -0.112781
N2    N     N_R   0.142720 0.501280 0.500940 -0.122564
O1    O     O_R   0.385310 0.683220 0.500000 -0.572629
O2    O     O_R   0.614640 0.683250 0.500010 -0.643042
O3    O     O_R   0.368830 0.499960 0.640340 -0.617705
O4    O     O_R   0.598160 0.499980 0.640350 -0.617692
O5    O     O_R   0.385360 0.316750 0.499990 -0.620800
O6    O     O_R   0.614690 0.316780 0.500000 -0.623161
O7    O     O_R   0.401840 0.500020 0.359650 -0.574314
O8    O     O_R   0.631170 0.500040 0.359660 -0.626311
Zn1   Zn    Zn3+2 0.346870 0.499980 0.499990 0.969066
Zn2   Zn    Zn3+2 0.653130 0.500020 0.500010 0.924815
N3    N     N_2   0.314597 0.487170 0.037274 -0.314169
H5    H     H_    0.300920 0.566625 0.083140 0.224158
C29   C     C_3   0.196856 0.446695 0.990608 -0.816573
H6    H     H_    0.106563 0.451543 0.045470 0.236414
H7    H     H_    0.209657 0.348528 0.960885 0.253043
H8    H     H_    0.180769 0.507718 0.929975 0.251785
N4    N     N_2   0.787308 0.729031 0.811695 -0.291684
H9    H     H_    0.813230 0.723799 0.882312 0.222534
C30   C     C_3   0.740142 0.851908 0.792810 -0.811299
H10   H     H_    0.668967 0.886886 0.856044 0.241444
H11   H     H_    0.685768 0.848427 0.725924 0.238516
H12   H     H_    0.826369 0.918116 0.783395 0.239652
N5    N     N_3   0.069132 0.705549 0.835671 -0.484778
H13   H     H_    0.025298 0.652656 0.892739 0.174387
H14   H     H_    0.041387 0.798867 0.851493 0.192790
N6    N     N_2   0.228143 0.701804 0.654560 -0.223382
H15   H     H_    0.280900 0.695844 0.715114 0.238729
C31   C     C_3   0.208041 0.832033 0.635998 -0.751490
H16   H     H_    0.306405 0.881355 0.629919 0.226586
H17   H     H_    0.143135 0.879805 0.697418 0.221915
H18   H     H_    0.160192 0.839071 0.566915 0.252532
N7    N     N_2   0.161451 0.369279 0.352141 -0.259723
H19   H     H_    0.145098 0.274560 0.353553 0.228853
C32   C     C_3   0.156254 0.413024 0.254410 -0.775767
H20   H     H_    0.055174 0.395520 0.229306 0.210652
H21   H     H_    0.232155 0.361835 0.202515 0.266274
H22   H     H_    0.179754 0.514388 0.253319 0.244481
N8    N     N_3   0.686162 0.472150 0.961266 -0.452487
H23   H     H_    0.744127 0.547742 0.984330 0.176413
H24   H     H_    0.734436 0.390537 0.976943 0.186632
N9    N     N_2   0.759283 0.882687 0.484206 -0.292693
H25   H     H_    0.782234 0.838322 0.545136 0.236507
C33   C     C_3   0.817011 0.833023 0.388416 -0.759307
H26   H     H_    0.913978 0.786741 0.396050 0.223642
H27   H     H_    0.835241 0.910076 0.337412 0.223562
H28   H     H_    0.749636 0.763142 0.355789 0.259445
N10   N     N_2   0.344936 0.770904 0.312805 -0.289220
H29   H     H_    0.263810 0.718812 0.292913 0.221107
C34   C     C_3   0.435366 0.803655 0.228065 -0.839122
H30   H     H_    0.452773 0.721277 0.176089 0.237658
H31   H     H_    0.533888 0.835773 0.251217 0.249953
H32   H     H_    0.390691 0.878414 0.188524 0.245108
N11   N     N_3   0.018315 0.090057 0.443283 -0.494944
H33   H     H_    0.987108 0.094645 0.372884 0.180396
H34   H     H_    0.956797 0.026773 0.482229 0.237033
N12   N     N_3   0.721919 0.118716 0.568699 -0.458339
H35   H     H_    0.780517 0.174926 0.520784 0.233966
H36   H     H_    0.681306 0.171575 0.631168 0.195924

loop_
_geom_bond_atom_site_label_1
_geom_bond_atom_site_label_2
_ccdc_geom_bond_type
N7    C32   S    
N11   H33   S    
C21   N7    S    
C2    C12   S    
N10   H29   S    
N5    H13   S    
C7    C8    A    
C29   H7    S    
N3    H5    S    
C25   C28   S    
C26   C27   S    
C23   O8    A    
C5    C6    A    
N5    H14   S    
C15   C16   A    
N6    C31   S    
C18   C19   A    
N3    C29   S    
C12   O3    A    
C31   H17   S    
C26   N3    S    
C32   H20   S    
C29   H6    S    
C8    C9    A    
C3    N10   S    
C23   C24   S    
C2    C27   T    
C15   N4    S    
O1    Zn1   S    
C9    C10   A    
C33   H27   S    
C6    H3    S    
O7    Zn1   S    
O8    Zn2   S    
N10   C34   S    
C29   H8    S    
C30   H11   S    
N4    H9    S    
C1    C9    S    
N8    H24   S    
C3    C8    A    
C19   N1    A    
C4    C5    A    
O5    Zn1   S    
C21   N2    A    
C25   C26   D    
C33   H26   S    
N6    H15   S    
N4    C30   S    
O3    Zn1   S    
N9    H25   S    
O4    Zn2   S    
C31   H16   S    
N9    C33   S    
C10   N9    S    
N12   H36   S    
C34   H30   S    
C7    C13   A    
C22   O6    A    
C17   C18   A    
C25   N8    S    
C18   N2    A    
C20   N1    A    
C34   H31   S    
N11   H34   S    
O2    Zn2   S    
C14   H1    S    
C3    C4    A    
C1    O1    A    
C20   H4    S    
C30   H12   S    
C31   H18   S    
N1    Zn2   S    
C14   C19   A    
N2    Zn1   S    
C24   C28   T    
N8    H23   S    
C30   H10   S    
C6    C7    A    
C23   O7    A    
C11   C13   A    
C11   N12   S    
N12   H35   S    
C16   C17   A    
C33   H28   S    
C32   H22   S    
C22   O5    A    
C13   C22   S    
N7    H19   S    
C16   N5    S    
C12   O4    A    
C10   C11   A    
C17   N6    S    
C5    N11   S    
O6    Zn2   S    
C34   H32   S    
C20   C21   A    
C32   H21   S    
C14   C15   A    
C4    H2    S    
C1    O2    A    
