data_mof_unit_51450.cif
_audit_creation_date              2012-12-11T16:19:09-0500
_audit_creation_method            fapswitch 2.2
_symmetry_space_group_name_H-M    P1
_symmetry_Int_Tables_number       1
_space_group_crystal_system       triclinic
_cell_length_a                    6.946233
_cell_length_b                    31.346582
_cell_length_c                    35.013786
_cell_angle_alpha                 90.000029
_cell_angle_beta                  89.999637
_cell_angle_gamma                 89.999873
_cell_volume                      7623.92495399

loop_
_atom_site_label
_atom_site_type_symbol
_atom_type_description
_atom_site_fract_x
_atom_site_fract_y
_atom_site_fract_z
_atom_type_partial_charge
O1    O     O_R   0.417270 0.211480 0.210950 -0.536774
O2    O     O_R   0.582730 0.788520 0.789050 -0.540480
O3    O     O_R   0.582730 0.788520 0.710950 -0.536778
O4    O     O_R   0.417270 0.211480 0.289050 -0.540481
O5    O     O_R   0.917270 0.288520 0.289050 -0.536774
O6    O     O_R   0.082730 0.711480 0.710950 -0.540481
O7    O     O_R   0.082730 0.711480 0.789050 -0.536775
O8    O     O_R   0.917270 0.288520 0.210950 -0.540482
O9    O     O_R   0.746940 0.206370 0.288750 -0.539448
O10   O     O_R   0.253060 0.793630 0.711250 -0.543156
O11   O     O_R   0.253060 0.793630 0.788750 -0.539452
O12   O     O_R   0.746940 0.206370 0.211250 -0.543157
O13   O     O_R   0.246940 0.293630 0.211250 -0.539452
O14   O     O_R   0.753060 0.706370 0.788750 -0.543155
O15   O     O_R   0.753060 0.706370 0.711250 -0.539453
O16   O     O_R   0.246940 0.293630 0.288750 -0.543156
C1    C     C_R   0.578080 0.195947 0.301971 0.723055
C2    C     C_R   0.421997 0.804117 0.698091 0.721766
C3    C     C_R   0.421920 0.804053 0.801972 0.723062
C4    C     C_R   0.578003 0.195883 0.198091 0.721759
C5    C     C_R   0.078080 0.304053 0.198028 0.723057
C6    C     C_R   0.921997 0.695883 0.801909 0.721764
C7    C     C_R   0.921921 0.695947 0.698028 0.723056
C8    C     C_R   0.078002 0.304117 0.301909 0.721764
O17   O     O_3   0.583760 0.276950 0.250000 -0.369281
O18   O     O_3   0.416240 0.723050 0.750000 -0.369280
O19   O     O_3   0.083760 0.223050 0.250000 -0.369279
O20   O     O_3   0.916240 0.776950 0.750000 -0.369281
V1    V     V_3+5 0.858600 0.245000 0.250000 1.417929
V2    V     V_3+5 0.141400 0.755000 0.750000 1.417922
V3    V     V_3+5 0.358600 0.255000 0.250000 1.417925
V4    V     V_3+5 0.641400 0.745000 0.750000 1.417921
C9    C     C_R   0.949715 0.588808 0.537468 0.559923
C10   C     C_R   0.018953 0.411834 0.461741 0.606127
C11   C     C_R   0.050315 0.411193 0.037468 0.559926
C12   C     C_R   0.981017 0.588165 0.961741 0.606124
C13   C     C_R   0.449732 0.911191 0.962533 0.559922
C14   C     C_R   0.518933 0.088165 0.038260 0.606131
C15   C     C_R   0.550678 0.088794 0.462525 0.559948
C16   C     C_R   0.480667 0.911834 0.538249 0.606084
N1    N     N_R   0.956211 0.574398 0.574414 -0.554899
N2    N     N_R   0.024799 0.426205 0.424785 -0.568381
N3    N     N_R   0.043793 0.425602 0.074414 -0.554900
N4    N     N_R   0.975199 0.573795 0.924785 -0.568379
N5    N     N_R   0.456205 0.925601 0.925587 -0.554898
N6    N     N_R   0.524801 0.073794 0.075216 -0.568382
N7    N     N_R   0.543793 0.074391 0.425578 -0.554920
N8    N     N_R   0.475217 0.926201 0.575209 -0.568356
C17   C     C_R   0.969447 0.531807 0.582422 0.580621
C18   C     C_R   0.012019 0.468804 0.416652 0.577976
C19   C     C_R   0.030529 0.468193 0.082423 0.580620
C20   C     C_R   0.988008 0.531197 0.916653 0.577978
C21   C     C_R   0.469417 0.968193 0.917578 0.580623
C22   C     C_R   0.512045 0.031195 0.083348 0.577976
C23   C     C_R   0.530146 0.031807 0.417568 0.580602
C24   C     C_R   0.488415 0.968794 0.583344 0.577993
C25   C     C_R   0.979870 0.501657 0.552738 -0.039972
C26   C     C_R   0.994897 0.498998 0.446240 -0.083500
C27   C     C_R   0.020103 0.498343 0.052739 -0.039972
C28   C     C_R   0.005132 0.501003 0.946240 -0.083501
C29   C     C_R   0.479840 0.998343 0.947263 -0.039973
C30   C     C_R   0.494923 0.001001 0.053761 -0.083501
C31   C     C_R   0.519706 0.001656 0.447251 -0.039970
C32   C     C_R   0.505552 0.998986 0.553755 -0.083497
C33   C     C_R   0.978855 0.515614 0.514490 -0.041887
C34   C     C_R   0.993167 0.485178 0.484478 -0.070709
C35   C     C_R   0.021146 0.484387 0.014490 -0.041887
C36   C     C_R   0.006832 0.514822 0.984479 -0.070709
C37   C     C_R   0.478852 0.984386 0.985511 -0.041886
C38   C     C_R   0.493166 0.014821 0.015522 -0.070709
C39   C     C_R   0.521155 0.015606 0.485501 -0.041889
C40   C     C_R   0.506846 0.985172 0.515513 -0.070706
C41   C     C_R   0.963703 0.559833 0.506281 -0.071214
C42   C     C_R   0.005730 0.440994 0.492673 -0.020806
C43   C     C_R   0.036328 0.440168 0.006281 -0.071215
C44   C     C_R   0.994240 0.559006 0.992673 -0.020805
C45   C     C_R   0.463724 0.940166 0.993720 -0.071213
C46   C     C_R   0.505705 0.059006 0.007328 -0.020807
C47   C     C_R   0.536736 0.059819 0.493712 -0.071229
C48   C     C_R   0.493851 0.940994 0.507317 -0.020795
C49   C     C_R   0.992546 0.457903 0.560707 -0.201384
C50   C     C_R   0.980144 0.542654 0.438188 -0.089878
C51   C     C_R   0.007395 0.542096 0.060707 -0.201385
C52   C     C_R   0.019917 0.457347 0.938189 -0.089879
C53   C     C_R   0.492492 0.042097 0.939294 -0.201384
C54   C     C_R   0.480193 0.957344 0.061812 -0.089879
C55   C     C_R   0.506584 0.957908 0.439280 -0.201388
C56   C     C_R   0.520749 0.042636 0.561809 -0.089888
C57   C     C_R   0.004779 0.427632 0.531354 0.196789
C58   C     C_R   0.964064 0.572971 0.467288 0.181415
C59   C     C_R   0.995160 0.572368 0.031355 0.196791
C60   C     C_R   0.035999 0.427031 0.967288 0.181416
C61   C     C_R   0.504726 0.072368 0.968647 0.196789
C62   C     C_R   0.464112 0.927028 0.032713 0.181416
C63   C     C_R   0.494344 0.927637 0.468632 0.196809
C64   C     C_R   0.536833 0.072950 0.532708 0.181412
O21   O     O_2   0.929539 0.630995 0.531312 -0.528685
O22   O     O_2   0.025202 0.369472 0.468320 -0.483630
O23   O     O_2   0.070515 0.369006 0.031312 -0.528681
O24   O     O_2   0.974743 0.630528 0.968321 -0.483634
O25   O     O_2   0.429573 0.869003 0.968689 -0.528686
O26   O     O_2   0.525166 0.130528 0.031681 -0.483628
O27   O     O_2   0.571175 0.130975 0.468679 -0.528647
O28   O     O_2   0.474081 0.869474 0.531665 -0.483669
O29   O     O_2   0.973737 0.518660 0.619113 -0.518070
O30   O     O_2   0.016537 0.481957 0.379967 -0.515126
O31   O     O_2   0.026213 0.481339 0.119113 -0.518071
O32   O     O_2   0.983517 0.518044 0.879967 -0.515126
O33   O     O_2   0.473683 0.981340 0.880888 -0.518070
O34   O     O_2   0.516586 0.018042 0.120034 -0.515126
O35   O     O_2   0.525466 0.018667 0.380876 -0.518069
O36   O     O_2   0.484295 0.981944 0.620033 -0.515126
H1    H     H_    0.993161 0.446741 0.590000 0.175774
H2    H     H_    0.980923 0.553718 0.408861 0.190114
H3    H     H_    0.006758 0.553259 0.090001 0.175773
H4    H     H_    0.019162 0.446283 0.908861 0.190114
H5    H     H_    0.493085 0.053260 0.910001 0.175774
H6    H     H_    0.480992 0.946280 0.091139 0.190114
H7    H     H_    0.505615 0.946751 0.409985 0.175771
H8    H     H_    0.520324 0.053695 0.591139 0.190116
C65   C     C_R   0.878443 0.385249 0.372278 -0.100789
C66   C     C_R   0.778402 0.610714 0.625960 -0.091488
C67   C     C_R   0.121557 0.614753 0.872279 -0.100796
C68   C     C_R   0.221598 0.389288 0.125961 -0.091484
C69   C     C_R   0.378444 0.114752 0.127722 -0.100799
C70   C     C_R   0.278399 0.889286 0.874041 -0.091484
C71   C     C_R   0.621580 0.885230 0.627707 -0.100828
C72   C     C_R   0.721579 0.110695 0.374023 -0.091478
H9    H     H_    0.741928 0.400132 0.378632 0.159728
H10   H     H_    0.652414 0.592259 0.618598 0.144307
H11   H     H_    0.258073 0.599872 0.878634 0.159739
H12   H     H_    0.347585 0.407744 0.118600 0.144298
H13   H     H_    0.241928 0.099870 0.121367 0.159729
H14   H     H_    0.152410 0.907742 0.881403 0.144310
H15   H     H_    0.758107 0.900100 0.621344 0.159858
H16   H     H_    0.847552 0.092227 0.381375 0.144199
C73   C     C_R   0.890270 0.355531 0.342579 -0.185627
C74   C     C_R   0.768669 0.640321 0.655844 -0.178696
C75   C     C_R   0.109730 0.644471 0.842580 -0.185629
C76   C     C_R   0.231331 0.359680 0.155845 -0.178693
C77   C     C_R   0.390270 0.144471 0.157420 -0.185627
C78   C     C_R   0.268666 0.859679 0.844156 -0.178693
C79   C     C_R   0.609751 0.855513 0.657407 -0.185637
C80   C     C_R   0.731310 0.140304 0.344140 -0.178691
H17   H     H_    0.760733 0.347901 0.326778 0.144774
H18   H     H_    0.633330 0.644357 0.670769 0.149180
H19   H     H_    0.239270 0.652103 0.826781 0.144775
H20   H     H_    0.366667 0.355646 0.170771 0.149178
H21   H     H_    0.260732 0.152102 0.173220 0.144774
H22   H     H_    0.133328 0.855643 0.829232 0.149181
H23   H     H_    0.739304 0.847870 0.673197 0.144780
H24   H     H_    0.866626 0.144328 0.329205 0.149161
C81   C     C_R   0.067028 0.336231 0.333211 -0.117839
C82   C     C_R   0.932019 0.664085 0.666488 -0.123286
C83   C     C_R   0.932970 0.663768 0.833211 -0.117840
C84   C     C_R   0.067983 0.335915 0.166488 -0.123285
C85   C     C_R   0.567030 0.163768 0.166789 -0.117839
C86   C     C_R   0.432016 0.835914 0.833512 -0.123286
C87   C     C_R   0.432973 0.836231 0.666789 -0.117841
C88   C     C_R   0.567984 0.164085 0.333511 -0.123271
C89   C     C_R   0.231840 0.347604 0.354329 -0.152877
C90   C     C_R   0.105286 0.657360 0.646444 -0.154598
C91   C     C_R   0.768155 0.652394 0.854328 -0.152875
C92   C     C_R   0.894719 0.342638 0.146443 -0.154595
C93   C     C_R   0.731843 0.152394 0.145672 -0.152877
C94   C     C_R   0.605283 0.842639 0.853556 -0.154594
C95   C     C_R   0.268142 0.847622 0.645684 -0.152871
C96   C     C_R   0.394746 0.157377 0.353570 -0.154591
H25   H     H_    0.369924 0.333317 0.347733 0.142995
H26   H     H_    0.233626 0.675097 0.654006 0.146909
H27   H     H_    0.630069 0.666679 0.847731 0.142993
H28   H     H_    0.766382 0.324900 0.154004 0.146910
H29   H     H_    0.869929 0.166680 0.152268 0.142993
H30   H     H_    0.733623 0.824903 0.845993 0.146909
H31   H     H_    0.130038 0.833352 0.652292 0.142976
H32   H     H_    0.266430 0.175129 0.346021 0.146921
C97   C     C_R   0.219979 0.376969 0.384565 0.236536
C98   C     C_R   0.114826 0.628200 0.616082 0.231028
C99   C     C_R   0.780016 0.623028 0.884564 0.236540
C100  C     C_R   0.885180 0.371798 0.116081 0.231023
C101  C     C_R   0.719982 0.123029 0.115436 0.236535
C102  C     C_R   0.614822 0.871799 0.883918 0.231031
C103  C     C_R   0.280004 0.876987 0.615447 0.236590
C104  C     C_R   0.385210 0.128216 0.383930 0.230964
C105  C     C_R   0.041445 0.395889 0.393811 0.328651
C106  C     C_R   0.949776 0.604723 0.605538 0.333895
C107  C     C_R   0.958552 0.604111 0.893811 0.328650
C108  C     C_R   0.050228 0.395278 0.105539 0.333897
C109  C     C_R   0.541447 0.104110 0.106190 0.328657
C110  C     C_R   0.449772 0.895277 0.894462 0.333890
C111  C     C_R   0.458562 0.895886 0.606185 0.328610
C112  C     C_R   0.550230 0.104718 0.394456 0.333934
N9    N     N_3   0.017678 0.383403 0.541400 -0.574003
H33   H     H_    0.896349 0.375483 0.557596 0.240240
H34   H     H_    0.139214 0.379244 0.558627 0.237127
N10   N     N_3   0.950075 0.616700 0.455701 -0.633470
H35   H     H_    0.065966 0.633767 0.467057 0.276710
H36   H     H_    0.819406 0.629298 0.465277 0.279807
N11   N     N_3   0.982228 0.616596 0.041401 -0.574003
H37   H     H_    0.103546 0.624519 0.057598 0.240241
H38   H     H_    0.860682 0.620751 0.058626 0.237125
N12   N     N_3   0.050024 0.383302 0.955701 -0.633470
H39   H     H_    0.934137 0.366231 0.967054 0.276712
H40   H     H_    0.180696 0.370708 0.965279 0.279805
N13   N     N_3   0.517597 0.116597 0.958601 -0.574002
H41   H     H_    0.396253 0.124514 0.942409 0.240238
H42   H     H_    0.639119 0.120759 0.941371 0.237128
N14   N     N_3   0.450150 0.883298 0.044299 -0.633471
H43   H     H_    0.566041 0.866234 0.032940 0.276708
H44   H     H_    0.319481 0.870698 0.034727 0.279810
N15   N     N_3   0.480947 0.883415 0.458583 -0.574001
H45   H     H_    0.602052 0.875443 0.442340 0.240257
H46   H     H_    0.359204 0.879314 0.441402 0.237104
N16   N     N_3   0.551322 0.116672 0.544297 -0.633463
H47   H     H_    0.435462 0.133792 0.532990 0.276745
H48   H     H_    0.682009 0.129216 0.534671 0.279771
N17   N     N_3   0.391051 0.387520 0.405279 -0.678971
H49   H     H_    0.409539 0.420605 0.404261 0.234312
H50   H     H_    0.372183 0.378678 0.433796 0.267966
N18   N     N_3   0.294009 0.622474 0.596580 -0.671165
H51   H     H_    0.327623 0.589971 0.596959 0.228927
H52   H     H_    0.275988 0.631660 0.568125 0.265512
N19   N     N_3   0.608942 0.612476 0.905276 -0.678984
H53   H     H_    0.590465 0.579390 0.904258 0.234315
H54   H     H_    0.627798 0.621319 0.933794 0.267970
N20   N     N_3   0.706001 0.377523 0.096577 -0.671153
H55   H     H_    0.672377 0.410025 0.096957 0.228927
H56   H     H_    0.724034 0.368338 0.068123 0.265509
N21   N     N_3   0.891054 0.112477 0.094722 -0.678972
H57   H     H_    0.909539 0.079392 0.095741 0.234317
H58   H     H_    0.872186 0.121319 0.066204 0.267958
N22   N     N_3   0.794006 0.877526 0.903419 -0.671169
H59   H     H_    0.827617 0.910029 0.903040 0.228925
H60   H     H_    0.775990 0.868339 0.931874 0.265517
N23   N     N_3   0.108901 0.887564 0.594754 -0.679114
H61   H     H_    0.090532 0.920652 0.595769 0.234322
H62   H     H_    0.127625 0.878710 0.566236 0.268029
N24   N     N_3   0.206071 0.122513 0.403455 -0.671016
H63   H     H_    0.172332 0.090017 0.403067 0.228946
H64   H     H_    0.224237 0.131681 0.431911 0.265454

loop_
_geom_bond_atom_site_label_1
_geom_bond_atom_site_label_2
_ccdc_geom_bond_type
O17   V3    S    
C56   C64   A    
O18   V4    S    
O12   V1    S    
O19   V1    S    
C37   C45   A    
N19   H53   S    
C10   N2    A    
C32   C40   A    
C61   N13   S    
C11   N3    A    
C76   H20   S    
N18   H52   S    
C77   H21   S    
O15   V4    S    
N13   H41   S    
O16   V3    S    
C30   C54   A    
C75   H19   S    
N12   H40   S    
O8    V1    S    
C42   C57   A    
C73   H17   S    
C38   C46   A    
C71   H15   S    
C41   C58   A    
C26   C50   A    
N16   H48   S    
C66   C106  A    
C58   N10   S    
C99   C107  A    
C80   C88   A    
C46   C61   A    
C21   O33   S    
C93   C101  A    
C34   C42   A    
C67   C75   A    
C45   C62   A    
O1    V3    S    
C97   C105  A    
C30   C38   A    
O3    C2    A    
C16   N8    A    
N1    C17   A    
N7    C112  S    
C70   C110  A    
C1    C88   S    
O13   V3    S    
N8    C111  S    
C2    C87   S    
C54   C62   A    
C27   C35   A    
C64   N16   S    
C101  C109  A    
C26   C34   A    
C95   C103  A    
O11   V2    S    
C101  N21   S    
N14   H43   S    
C96   C104  A    
C94   C102  A    
N23   H61   S    
C104  C112  A    
N20   H55   S    
C56   H8    S    
C20   C28   A    
C11   C43   A    
C9    O21   S    
C92   C100  A    
O9    V1    S    
C59   N11   S    
O15   C7    A    
N4    C20   A    
C79   H23   S    
O2    C3    A    
N7    C23   A    
N5    C21   A    
N11   H37   S    
O16   C8    A    
O7    V2    S    
C12   C44   A    
N23   H62   S    
O12   C4    A    
O3    V4    S    
C23   C31   A    
C21   C29   A    
C78   C86   A    
C19   O31   S    
C11   O23   S    
C104  N24   S    
N18   H51   S    
C68   H12   S    
C82   C90   A    
C19   C27   A    
O5    V1    S    
C6    C83   S    
N13   H42   S    
C76   C84   A    
O17   V1    S    
N19   H54   S    
N24   H64   S    
C94   H30   S    
C67   H11   S    
N12   H39   S    
C69   C77   A    
O19   V3    S    
C35   C36   A    
C18   C26   A    
C51   H3    S    
O20   V4    S    
C62   N14   S    
C66   C74   A    
N10   H36   S    
C33   C41   A    
C85   C93   A    
C68   C108  A    
N16   H47   S    
C17   O29   S    
C91   H27   S    
C14   C46   A    
C83   C91   A    
N17   H49   S    
C65   C73   A    
C70   C78   A    
C71   C111  A    
C39   C47   A    
C40   C48   A    
C55   C63   A    
C72   C112  A    
C22   O34   S    
N9    H34   S    
C44   C59   A    
C55   H7    S    
N21   H57   S    
C27   C51   A    
C16   O28   S    
C49   H1    S    
O10   V2    S    
C52   C60   A    
N15   H45   S    
C90   H26   S    
C75   C83   A    
O11   C3    A    
N6    C22   A    
C16   C48   A    
O8    C5    A    
C73   C81   A    
C54   H6    S    
C71   C79   A    
C36   C44   A    
O9    C1    A    
C48   C63   A    
C53   H5    S    
C72   C80   A    
C50   H2    S    
C31   C39   A    
C100  C108  A    
C29   C53   A    
C43   C60   A    
C10   C42   A    
C96   H32   S    
C57   N9    S    
C77   C85   A    
N2    C105  S    
C9    C41   A    
O6    V2    S    
N2    C18   A    
C33   C34   A    
N20   H56   S    
C4    C85   S    
C91   C99   A    
O14   C6    A    
N21   H58   S    
N15   H46   S    
C12   N4    A    
C23   O35   S    
C35   C43   A    
O4    C1    A    
N6    C109  S    
C13   N5    A    
C98   N18   S    
C60   N12   S    
C8    C81   S    
C86   C94   A    
C15   N7    A    
C29   C37   A    
N8    C24   A    
N24   H63   S    
C65   H9    S    
O1    C4    A    
C32   C56   A    
C31   C55   A    
N22   H60   S    
C3    C86   S    
C68   C76   A    
C102  N22   S    
C97   N17   S    
N10   H35   S    
C103  C111  A    
C17   C25   A    
C12   O24   S    
O20   V2    S    
C15   O27   S    
C63   N15   S    
N17   H50   S    
O7    C6    A    
C51   C59   A    
C69   H13   S    
C50   C58   A    
C74   H18   S    
C28   C36   A    
C9    N1    A    
C78   H22   S    
C72   H16   S    
C84   C92   A    
C89   H25   S    
C47   C64   A    
C14   O26   S    
N14   H44   S    
C24   O36   S    
O13   C5    A    
C14   N6    A    
C13   O25   S    
C28   C52   A    
N3    C19   A    
C24   C32   A    
O5    C8    A    
C13   C45   A    
N3    C108  S    
O10   C2    A    
C81   C89   A    
O6    C7    A    
C100  N20   S    
N22   H59   S    
C10   O22   S    
C5    C84   S    
C87   C95   A    
N1    C106  S    
C95   H31   S    
C25   C49   A    
C79   C87   A    
C88   C96   A    
C49   C57   A    
C67   C107  A    
C37   C38   A    
N11   H38   S    
C90   C98   A    
O4    V3    S    
C92   H28   S    
N4    C107  S    
C65   C105  A    
C103  N23   S    
C98   C106  A    
N5    C110  S    
C39   C40   A    
C53   C61   A    
O14   V4    S    
C70   H14   S    
C52   H4    S    
N9    H33   S    
C7    C82   S    
C99   N19   S    
C18   O30   S    
C22   C30   A    
C20   O32   S    
C69   C109  A    
C102  C110  A    
C74   C82   A    
C93   H29   S    
C89   C97   A    
C66   H10   S    
C80   H24   S    
C15   C47   A    
O2    V4    S    
C25   C33   A    
O18   V2    S    
