data_mof_unit_63626.cif
_audit_creation_date              2012-12-10T18:37:12-0500
_audit_creation_method            fapswitch 2.2
_symmetry_space_group_name_H-M    P1
_symmetry_Int_Tables_number       1
_space_group_crystal_system       triclinic
_cell_length_a                    25.545529
_cell_length_b                    25.568638
_cell_length_c                    25.571752
_cell_angle_alpha                 120.019975
_cell_angle_beta                  90.024872
_cell_angle_gamma                 120.007186
_cell_volume                      11803.0721752

loop_
_atom_site_label
_atom_site_type_symbol
_atom_type_description
_atom_site_fract_x
_atom_site_fract_y
_atom_site_fract_z
_atom_type_partial_charge
C1    C     C_R   0.599644 0.699257 0.599651 0.502947
C2    C     C_1   0.826537 0.498414 0.826296 -0.025219
C3    C     C_3   0.164510 0.358206 0.753177 -0.257005
C4    C     C_3   0.095168 0.320011 0.713816 -0.293427
C5    C     C_3   0.048430 0.250722 0.711146 -0.446824
C6    C     C_3   0.146190 0.519051 0.724758 -0.270272
C7    C     C_3   0.074179 0.475526 0.715590 -0.305030
C8    C     C_3   0.048836 0.522346 0.729440 -0.440516
C9    C     C_3   0.365266 0.061326 0.219649 -0.254530
C10   C     C_3   0.417911 0.048140 0.205029 -0.317099
C11   C     C_3   0.435706 0.053866 0.150217 -0.454350
C12   C     C_3   0.244579 0.042514 0.319554 -0.216901
C13   C     C_R   0.400349 0.300712 0.400291 0.503526
C14   C     C_3   0.333198 0.042500 0.266387 0.065292
C15   C     C_3   0.287483 0.955718 0.228843 -0.177519
C16   C     C_1   0.140137 0.778558 0.139226 -0.009173
C17   C     C_3   0.289695 0.073134 0.285979 0.091785
C18   C     C_3   0.202788 0.956912 0.277759 -0.222173
C19   C     C_3   0.215735 0.926843 0.213550 0.048343
C20   C     C_3   0.202390 0.957053 0.179312 -0.221860
C21   C     C_1   0.860203 0.499123 0.859941 0.002250
C22   C     C_3   0.242024 0.042917 0.223816 -0.231637
C23   C     C_1   0.174149 0.845279 0.172727 -0.078166
C24   C     C_1   0.328890 0.154721 0.327080 -0.083369
C25   C     C_R   0.400304 0.499918 0.599576 0.505823
C26   C     C_1   0.361335 0.221395 0.360564 -0.021153
C27   C     C_3   0.776519 0.577626 0.319415 -0.220265
C28   C     C_3   0.676222 0.475170 0.219864 0.018377
C29   C     C_3   0.719160 0.472420 0.175466 0.006522
C30   C     C_1   0.860738 0.500199 0.139260 0.000481
C31   C     C_3   0.712363 0.499774 0.285731 0.062612
C32   C     C_3   0.786794 0.539186 0.727623 -0.114108
C33   C     C_3   0.817816 0.578637 0.275128 -0.213606
C34   C     C_3   0.785980 0.499615 0.212748 0.090449
C35   C     C_3   0.772947 0.444729 0.230760 -0.027711
C36   C     C_3   0.728864 0.444571 0.272873 -0.212812
C37   C     C_R   0.599718 0.500116 0.400434 0.503625
C38   C     C_1   0.827218 0.500032 0.172372 -0.030885
C39   C     C_1   0.672293 0.500160 0.327162 -0.036119
C40   C     C_1   0.639296 0.500266 0.360787 0.002534
C41   C     C_3   0.762566 0.957438 0.775460 0.001715
C42   C     C_3   0.671749 0.957193 0.733517 -0.032085
C43   C     C_3   0.713366 0.499444 0.712559 0.006302
C44   C     C_3   0.715572 0.043533 0.779321 -0.245726
C45   C     C_1   0.860455 0.221389 0.860743 0.002398
C46   C     C_3   0.713663 0.926730 0.713721 0.118281
C47   C     C_3   0.806201 0.043759 0.817565 -0.205016
C48   C     C_3   0.786946 0.073259 0.786485 0.072864
C49   C     C_R   0.400141 0.499986 0.400167 0.506475
C50   C     C_3   0.792592 0.042618 0.718041 -0.003532
C51   C     C_3   0.751228 0.956290 0.676109 -0.228435
C52   C     C_1   0.827298 0.154753 0.827330 -0.030631
C53   C     C_1   0.672746 0.845141 0.672683 0.012656
C54   C     C_3   0.793059 0.566616 0.797992 0.109290
C55   C     C_1   0.639335 0.778498 0.639285 0.014765
C56   C     C_3   0.260846 0.542240 0.325194 -0.191980
C57   C     C_3   0.234840 0.421938 0.229558 -0.216889
C58   C     C_3   0.194806 0.422851 0.185064 -0.197919
C59   C     C_1   0.140213 0.500728 0.139321 -0.006753
C60   C     C_3   0.290489 0.502015 0.284642 0.029526
C61   C     C_R   0.599877 0.499995 0.599837 0.506186
C62   C     C_3   0.212002 0.536308 0.282363 -0.024280
C63   C     C_3   0.217357 0.503785 0.213450 0.114942
C64   C     C_3   0.290182 0.551940 0.217754 0.142146
C65   C     C_3   0.785604 0.497789 0.785624 0.084743
C66   C     C_3   0.332243 0.543068 0.255164 -0.058055
C67   C     C_1   0.174654 0.501894 0.172616 -0.046742
C68   C     C_1   0.329271 0.501223 0.326596 -0.088760
C69   C     C_1   0.361408 0.500664 0.360459 -0.010837
C70   C     C_3   0.318459 0.566156 0.776263 -0.240544
C71   C     C_3   0.258287 0.426718 0.714126 -0.070846
C72   C     C_3   0.220006 0.431978 0.763342 -0.071363
C73   C     C_3   0.777721 0.469077 0.715252 0.115245
C74   C     C_1   0.137637 0.498001 0.859272 -0.023990
C75   C     C_3   0.281557 0.492665 0.708228 0.049300
C76   C     C_3   0.720303 0.529121 0.783626 -0.090447
C77   C     C_3   0.273359 0.568106 0.816383 -0.238433
C78   C     C_3   0.206842 0.491728 0.780388 0.083302
C79   C     C_3   0.174538 0.474679 0.716208 -0.080958
C80   C     C_3   0.222858 0.484812 0.678694 -0.206977
C81   C     C_1   0.168829 0.495467 0.823906 -0.072724
C82   C     C_1   0.324666 0.496492 0.669766 -0.080297
C83   C     C_1   0.359477 0.498600 0.637976 -0.011980
C84   C     C_R   0.900404 0.500159 0.099695 0.505597
C85   C     C_3   0.704809 0.429187 0.698917 0.042970
C86   C     C_R   0.099506 0.499639 0.900275 0.503105
C87   C     C_3   0.712154 0.458370 0.770182 -0.124370
C88   C     C_R   0.099814 0.699178 0.099459 0.506436
C89   C     C_R   0.900117 0.300617 0.900445 0.502974
C90   C     C_R   0.099743 0.499821 0.099756 0.505846
C91   C     C_R   0.900028 0.499758 0.899996 0.507424
C92   C     C_1   0.639608 0.499995 0.639324 -0.005642
C93   C     C_3   0.653329 0.350977 0.640598 -0.242961
C94   C     C_3   0.653943 0.292368 0.642523 -0.290540
C95   C     C_3   0.602273 0.214649 0.584028 -0.463019
C96   C     C_3   0.389959 0.077395 0.324702 -0.236608
C97   C     C_3   0.375354 0.077990 0.383180 -0.304102
C98   C     C_1   0.672991 0.499912 0.672446 -0.067854
C99   C     C_3   0.430754 0.093493 0.425441 -0.465498
C100  C     C_3   0.365619 0.506320 0.216057 -0.259302
C101  C     C_3   0.434027 0.562757 0.223725 -0.314331
C102  C     C_3   0.465376 0.524574 0.187465 -0.448345
C103  C     C_3   0.315723 0.635859 0.255763 -0.213694
C104  C     C_3   0.380440 0.687025 0.253132 -0.299087
C105  C     C_3   0.402588 0.767506 0.295373 -0.463496
C106  C     C_3   0.223502 0.350508 0.647243 -0.255469
C107  C     C_3   0.246435 0.303463 0.642578 -0.309319
C108  C     C_3   0.206882 0.226423 0.579597 -0.451996
H1    H     H_    0.297501 0.937605 0.256718 0.105147
H2    H     H_    0.767761 0.620628 0.333875 0.122021
H3    H     H_    0.297543 0.331298 0.645326 0.166013
H4    H     H_    0.243255 0.297786 0.682916 0.148753
H5    H     H_    0.171151 0.319109 0.635061 0.149874
H6    H     H_    0.232646 0.358255 0.608382 0.148207
H7    H     H_    0.060909 0.210396 0.687815 0.146072
H8    H     H_    0.049647 0.265318 0.760211 0.168290
H9    H     H_    0.998919 0.224247 0.682885 0.143607
H10   H     H_    0.079619 0.357294 0.735773 0.164334
H11   H     H_    0.089973 0.302824 0.663922 0.138007
H12   H     H_    0.176721 0.317711 0.732979 0.141169
H13   H     H_    0.632593 0.417556 0.196157 0.119520
H14   H     H_    0.163802 0.370889 0.801556 0.144096
H15   H     H_    0.073826 0.571789 0.780003 0.162327
H16   H     H_    0.056191 0.540427 0.697005 0.145325
H17   H     H_    0.996698 0.489139 0.721589 0.147515
H18   H     H_    0.047134 0.425429 0.665348 0.147913
H19   H     H_    0.064835 0.457072 0.747679 0.168920
H20   H     H_    0.172468 0.572897 0.772528 0.155251
H21   H     H_    0.151355 0.531681 0.688533 0.136376
H22   H     H_    0.393647 0.010320 0.105368 0.147658
H23   H     H_    0.452642 0.109171 0.162241 0.152366
H24   H     H_    0.694806 0.413081 0.135042 0.111825
H25   H     H_    0.474772 0.046197 0.142026 0.141568
H26   H     H_    0.462036 0.090575 0.247866 0.151556
H27   H     H_    0.401660 0.992591 0.191731 0.152614
H28   H     H_    0.328071 0.027523 0.172715 0.143289
H29   H     H_    0.386810 0.120319 0.239736 0.144134
H30   H     H_    0.752368 0.459144 0.319273 0.148095
H31   H     H_    0.683952 0.387742 0.248062 0.087418
H32   H     H_    0.803778 0.592745 0.364330 0.110884
H33   H     H_    0.866883 0.601440 0.301154 0.107245
H34   H     H_    0.681935 0.425298 0.787566 0.100936
H35   H     H_    0.746909 0.387828 0.185669 0.134086
H36   H     H_    0.800948 0.064851 0.865849 0.087340
H37   H     H_    0.295599 0.927612 0.183082 0.105124
H38   H     H_    0.735086 0.939426 0.803716 0.149469
H39   H     H_    0.641987 0.940696 0.689128 0.136660
H40   H     H_    0.709892 0.063717 0.827399 0.122487
H41   H     H_    0.700652 0.065999 0.759571 0.097096
H42   H     H_    0.781165 0.935338 0.659494 0.133060
H43   H     H_    0.716852 0.934317 0.631792 0.076874
H44   H     H_    0.697349 0.555407 0.812176 0.116551
H45   H     H_    0.857749 0.065772 0.825678 0.131556
H46   H     H_    0.772864 0.059470 0.695352 0.136187
H47   H     H_    0.237195 0.518450 0.351721 0.144485
H48   H     H_    0.208603 0.059607 0.236143 0.114589
H49   H     H_    0.253354 0.389265 0.201243 0.104718
H50   H     H_    0.203404 0.393438 0.249873 0.135001
H51   H     H_    0.143314 0.388245 0.179172 0.150648
H52   H     H_    0.197195 0.394706 0.136221 0.092060
H53   H     H_    0.371630 0.599057 0.297381 0.118219
H54   H     H_    0.299646 0.601536 0.362260 0.080271
H55   H     H_    0.223137 0.592290 0.303811 0.105787
H56   H     H_    0.296235 0.583402 0.863397 0.107443
H57   H     H_    0.359113 0.572177 0.800817 0.110728
H58   H     H_    0.302920 0.437106 0.736646 0.114802
H59   H     H_    0.266724 0.067182 0.198098 0.104126
H60   H     H_    0.256033 0.457199 0.808278 0.098517
H61   H     H_    0.817574 0.572496 0.710656 0.100892
H62   H     H_    0.240496 0.535014 0.679708 0.117504
H63   H     H_    0.198112 0.436961 0.627377 0.095448
H64   H     H_    0.339350 0.614260 0.773301 0.122888
H65   H     H_    0.268018 0.612693 0.827296 0.116485
H66   H     H_    0.134279 0.415416 0.684894 0.129080
H67   H     H_    0.213467 0.937559 0.304035 0.109796
H68   H     H_    0.269459 0.065009 0.368390 0.103250
H69   H     H_    0.554016 0.203190 0.582519 0.149951
H70   H     H_    0.150438 0.933696 0.165345 0.120152
H71   H     H_    0.610612 0.208823 0.539356 0.149903
H72   H     H_    0.603677 0.173269 0.586609 0.141464
H73   H     H_    0.701473 0.301794 0.643500 0.197135
H74   H     H_    0.645178 0.296240 0.686497 0.157198
H75   H     H_    0.605719 0.341322 0.639793 0.140209
H76   H     H_    0.661842 0.347026 0.596542 0.142538
H77   H     H_    0.437597 0.048517 0.398858 0.145249
H78   H     H_    0.475873 0.147112 0.441335 0.151600
H79   H     H_    0.419894 0.096436 0.468500 0.140672
H80   H     H_    0.369822 0.123451 0.413163 0.165253
H81   H     H_    0.212094 0.060762 0.327092 0.108580
H82   H     H_    0.331544 0.023934 0.368069 0.157217
H83   H     H_    0.412047 0.046540 0.306401 0.135524
H84   H     H_    0.427580 0.135634 0.342453 0.140809
H85   H     H_    0.796108 0.423256 0.632825 0.222725
H86   H     H_    0.858353 0.476504 0.699821 0.223920
H87   H     H_    0.691651 0.575044 0.247224 0.232665
H88   H     H_    0.623312 0.498052 0.184861 0.222762
H89   H     H_    0.680564 0.485673 0.115656 0.225395
H90   H     H_    0.744807 0.566686 0.179983 0.232326
H91   H     H_    0.860406 0.458595 0.234001 0.235785
H92   H     H_    0.151196 0.935339 0.268621 0.117904
H93   H     H_    0.858080 0.513010 0.306391 0.235880
H94   H     H_    0.652254 0.948675 0.808842 0.223491
H95   H     H_    0.594547 0.938334 0.765050 0.227459
H96   H     H_    0.860998 0.059109 0.674372 0.219259
H97   H     H_    0.877785 0.052435 0.733347 0.227660
H98   H     H_    0.835264 0.951575 0.742864 0.225905
H99   H     H_    0.825346 0.940561 0.802269 0.222615
H100  H     H_    0.145653 0.514755 0.327682 0.222111
H101  H     H_    0.115352 0.490782 0.255596 0.231898
H102  H     H_    0.836107 0.677280 0.848361 0.225960
H103  H     H_    0.214488 0.939084 0.134463 0.112625
H104  H     H_    0.886203 0.653441 0.849877 0.226348
H105  H     H_    0.468734 0.494976 0.206129 0.162350
H106  H     H_    0.437101 0.484490 0.135497 0.146968
H107  H     H_    0.514554 0.566562 0.193837 0.143470
H108  H     H_    0.433887 0.593847 0.205480 0.148196
H109  H     H_    0.463842 0.603112 0.275311 0.156856
H110  H     H_    0.370420 0.475999 0.232905 0.157015
H111  H     H_    0.336204 0.463253 0.164735 0.141977
H112  H     H_    0.366652 0.773378 0.279271 0.150961
H113  H     H_    0.409594 0.786797 0.346190 0.146870
H114  H     H_    0.824383 0.617663 0.263734 0.117446
H115  H     H_    0.448912 0.803032 0.292112 0.139102
H116  H     H_    0.417818 0.683753 0.270284 0.146041
H117  H     H_    0.376064 0.671127 0.203397 0.172547
H118  H     H_    0.279874 0.640275 0.237120 0.152552
H119  H     H_    0.321767 0.659294 0.307169 0.104808
H120  H     H_    0.268577 0.470577 0.120660 0.219061
H121  H     H_    0.339118 0.551725 0.151560 0.225133
H122  H     H_    0.155767 0.196582 0.576353 0.146969
H123  H     H_    0.210503 0.230460 0.538299 0.152714
H124  H     H_    0.225202 0.194282 0.577232 0.141290
N1    N     N_3   0.808916 0.435842 0.678476 -0.648797
N2    N     N_3   0.292298 0.527596 0.152160 -0.630475
N3    N     N_3   0.653506 0.520829 0.228811 -0.640391
N4    N     N_3   0.725640 0.511040 0.145794 -0.638314
N5    N     N_3   0.831724 0.460487 0.263075 -0.650637
N6    N     N_3   0.627483 0.924900 0.761974 -0.643941
N7    N     N_3   0.859659 0.074544 0.720463 -0.640590
N8    N     N_3   0.800581 0.926913 0.759940 -0.645204
N9    N     N_3   0.146793 0.489971 0.280874 -0.650522
N10   N     N_3   0.841345 0.641743 0.853166 -0.627255
O1    O     O_3   0.500000 0.500000 0.500000 -0.433184
O2    O     O_R   0.960830 0.335840 0.918110 -0.535515
O3    O     O_R   0.082190 0.542890 0.125100 -0.543149
O4    O     O_R   0.625020 0.663960 0.582080 -0.534253
O5    O     O_R   0.874750 0.456980 0.917820 -0.535989
O6    O     O_R   0.082060 0.456790 0.039130 -0.534743
O7    O     O_R   0.960740 0.542810 0.917680 -0.538393
O8    O     O_R   0.081970 0.663760 0.038700 -0.537364
O9    O     O_R   0.874800 0.335990 0.918070 -0.541479
O10   O     O_R   0.961140 0.543090 0.125040 -0.541558
O11   O     O_R   0.081820 0.456620 0.917920 -0.538070
O12   O     O_R   0.418020 0.456930 0.581980 -0.540382
O13   O     O_R   0.418070 0.336020 0.461010 -0.540056
O14   O     O_R   0.417900 0.542920 0.581890 -0.535911
O15   O     O_R   0.539010 0.457110 0.375020 -0.536709
O16   O     O_R   0.417800 0.543010 0.460800 -0.538630
O17   O     O_R   0.625170 0.542960 0.582200 -0.535271
O18   O     O_R   0.417840 0.457080 0.374840 -0.539494
O19   O     O_R   0.539180 0.456950 0.582160 -0.540369
O20   O     O_R   0.625070 0.543050 0.461120 -0.540078
O21   O     O_R   0.538910 0.663940 0.581950 -0.535626
O22   O     O_R   0.418000 0.336080 0.374960 -0.539546
O23   O     O_3   0.999930 0.499860 0.999930 -0.433046
O24   O     O_R   0.874990 0.457140 0.039030 -0.532662
O25   O     O_R   0.081780 0.542610 0.917740 -0.539772
O26   O     O_R   0.082140 0.663870 0.124840 -0.538538
Zn1   Zn    Zn3+2 0.469350 0.438540 0.530750 0.933933
Zn2   Zn    Zn3+2 0.469190 0.561400 0.530630 0.942885
Zn3   Zn    Zn3+2 0.469250 0.438630 0.407810 0.936320
Zn4   Zn    Zn3+2 0.592210 0.561430 0.530810 0.944714
Zn5   Zn    Zn3+2 0.030570 0.561190 0.969050 0.938600
Zn6   Zn    Zn3+2 0.030810 0.561360 0.092130 0.936725
Zn7   Zn    Zn3+2 0.030630 0.438350 0.969310 0.940354
Zn8   Zn    Zn3+2 0.907720 0.438560 0.969250 0.944864

loop_
_geom_bond_atom_site_label_1
_geom_bond_atom_site_label_2
_ccdc_geom_bond_type
C64   C103  S    
C57   H50   S    
C47   H36   S    
C101  C102  S    
C97   H80   S    
O10   Zn6   S    
C107  H4    S    
C15   H1    S    
C35   C36   S    
C14   C17   S    
C43   C98   S    
C80   H62   S    
C16   C88   S    
C32   H61   S    
C2    C65   S    
H87   N3    S    
C94   H74   S    
C99   H79   S    
C42   N6    S    
C92   C98   T    
C104  H117  S    
C54   C65   S    
C108  H122  S    
C77   C78   S    
C27   C33   S    
C103  H118  S    
C15   C19   S    
C12   H81   S    
C93   C94   S    
C42   C44   S    
C106  H6    S    
C54   N10   S    
C96   H83   S    
C28   C29   S    
C37   O15   A    
C18   C19   S    
C37   C40   S    
O4    Zn4   S    
C1    O4    A    
C56   H47   S    
C108  H124  S    
C49   O18   A    
C35   N5    S    
C20   H103  S    
C29   H24   S    
C91   O7    A    
C106  C107  S    
C76   H44   S    
C101  H108  S    
C103  H119  S    
C13   O13   A    
C90   O3    A    
C56   H54   S    
C43   C76   S    
C65   C73   S    
C3    H12   S    
C30   C38   T    
C34   C35   S    
C42   C46   S    
O8    Zn5   S    
C14   C96   S    
H121  N2    S    
H97   N7    S    
C70   H64   S    
O1    Zn4   S    
H95   N6    S    
H104  N10   S    
O23   Zn8   S    
C59   C67   T    
C1    O21   A    
C9    H29   S    
C95   H69   S    
O21   Zn2   S    
O25   Zn5   S    
C41   H38   S    
C62   H55   S    
C51   H42   S    
O24   Zn8   S    
C68   C69   T    
C71   H58   S    
C90   O6    A    
C12   C17   S    
O2    Zn7   S    
C72   C78   S    
C107  C108  S    
C4    H11   S    
O15   Zn3   S    
C94   H73   S    
C45   C89   S    
C9    C10   S    
C31   C36   S    
H120  N2    S    
C3    H14   S    
C12   H68   S    
C18   H67   S    
C7    H18   S    
C77   H56   S    
C48   C50   S    
C60   C66   S    
C21   C91   S    
C49   C69   S    
C87   H34   S    
C5    H7    S    
C70   C77   S    
C72   H60   S    
C79   H66   S    
C4    H10   S    
C85   C93   S    
C86   O25   A    
H96   N7    S    
O16   Zn2   S    
C42   H39   S    
H91   N5    S    
O19   Zn1   S    
H85   N1    S    
C104  C105  S    
C97   C99   S    
H89   N4    S    
C102  H106  S    
C65   C87   S    
C63   C67   S    
C53   C55   T    
C93   H76   S    
C91   O5    A    
C17   C24   S    
C25   O14   A    
C85   C87   S    
C27   C31   S    
C43   C85   S    
C7    C8    S    
H100  N9    S    
C100  H111  S    
O6    Zn7   S    
C13   O22   A    
O11   Zn7   S    
C70   H57   S    
H101  N9    S    
C32   C73   S    
C15   H37   S    
C27   H32   S    
C78   C79   S    
C8    H16   S    
C57   C60   S    
C22   H48   S    
C106  H5    S    
C45   C52   T    
C33   H33   S    
C105  H115  S    
C66   C100  S    
C29   C34   S    
C100  H110  S    
C74   C86   S    
C56   C60   S    
C66   H53   S    
C5    H9    S    
O3    Zn6   S    
C86   O11   A    
C59   C90   S    
C64   C66   S    
C19   C23   S    
C9    C14   S    
O1    Zn1   S    
C29   N4    S    
C64   N2    S    
C62   C63   S    
C51   H43   S    
C44   H41   S    
C101  H109  S    
C49   O16   A    
C102  H107  S    
C102  H105  S    
C47   C48   S    
C48   C52   S    
C41   C46   S    
C105  H112  S    
C73   C85   S    
C96   C97   S    
C2    C21   T    
C33   C34   S    
C41   C47   S    
C89   O2    A    
C84   O24   A    
C50   C51   S    
O9    Zn8   S    
C76   C87   S    
H102  N10   S    
H99   N8    S    
C54   C76   S    
C22   H59   S    
C50   H46   S    
O23   Zn5   S    
C97   H82   S    
C6    H20   S    
C8    H17   S    
C20   C22   S    
O22   Zn3   S    
C34   C38   S    
C6    H21   S    
C5    H8    S    
C18   H92   S    
C56   C62   S    
C13   C26   S    
H98   N8    S    
C61   O17   A    
H86   N1    S    
C12   C18   S    
C3    C4    S    
C27   H2    S    
C11   H22   S    
C99   H77   S    
C62   N9    S    
C88   O8    A    
O13   Zn1   S    
C95   H71   S    
C58   C63   S    
C57   H49   S    
C50   N7    S    
C77   H65   S    
C41   N8    S    
C89   O9    A    
C28   H13   S    
C107  H3    S    
C95   H72   S    
C28   C31   S    
C88   O26   A    
C10   H26   S    
C24   C26   T    
C4    C5    S    
C11   H23   S    
H94   N6    S    
C20   H70   S    
C25   O12   A    
C61   C92   S    
C75   C82   S    
H93   N5    S    
C6    C7    S    
H88   N3    S    
C16   C23   T    
C47   H45   S    
O12   Zn1   S    
C17   C22   S    
C32   C54   S    
C58   H51   S    
C73   N1    S    
C96   H84   S    
C19   C20   S    
C11   H25   S    
C3    C72   S    
C1    C55   S    
O1    Zn2   S    
C61   O19   A    
C10   H27   S    
H90   N4    S    
C33   H114  S    
C71   C75   S    
C93   H75   S    
C78   C81   S    
C57   C58   S    
O14   Zn2   S    
O18   Zn3   S    
C105  H113  S    
C46   C51   S    
C46   C53   S    
C63   C64   S    
C100  C101  S    
C44   H40   S    
C32   C43   S    
C31   C39   S    
O7    Zn5   S    
C8    H15   S    
C30   C84   S    
C94   C95   S    
C37   O20   A    
C36   H31   S    
O1    Zn3   S    
C10   C11   S    
C28   N3    S    
O20   Zn4   S    
C79   C80   S    
C39   C40   T    
C9    H28   S    
C6    C79   S    
O23   Zn6   S    
C71   C72   S    
C75   C80   S    
C103  C104  S    
C60   C68   S    
O23   Zn7   S    
C82   C83   T    
C71   C106  S    
O26   Zn6   S    
C70   C75   S    
C25   C83   S    
C14   C15   S    
C58   H52   S    
C74   C81   T    
C80   H63   S    
C7    H19   S    
O5    Zn8   S    
C36   H30   S    
C104  H116  S    
C99   H78   S    
O17   Zn4   S    
C44   C48   S    
C35   H35   S    
C84   O10   A    
C108  H123  S    
