data_mof_unit_58246.cif
_audit_creation_date              2012-10-26T20:50:50-0400
_audit_creation_method            fapswitch 2.2
_symmetry_space_group_name_H-M    P1
_symmetry_Int_Tables_number       1
_space_group_crystal_system       triclinic
_cell_length_a                    11.05306
_cell_length_b                    10.842856
_cell_length_c                    9.540058
_cell_angle_alpha                 90.929319
_cell_angle_beta                  103.264599
_cell_angle_gamma                 90.033977
_cell_volume                      1112.68402268

loop_
_atom_site_label
_atom_site_type_symbol
_atom_type_description
_atom_site_fract_x
_atom_site_fract_y
_atom_site_fract_z
_atom_type_partial_charge
C1    C     C_R   0.498225 0.262576 0.498496 0.543921
C2    C     C_R   0.414463 0.433951 0.050518 -0.032470
C3    C     C_R   0.414460 0.433932 0.901569 -0.019787
C4    C     C_R   0.262452 0.502442 0.441097 0.550821
C5    C     C_R   0.593555 0.556340 0.952101 0.110839
C6    C     C_3   0.625130 0.689381 0.957024 -0.245845
C7    C     C_3   0.626803 0.690079 0.116523 0.121643
C8    C     C_R   0.500970 0.737882 0.501140 0.579270
C9    C     C_R   0.737994 0.495572 0.559675 0.587982
C10   C     C_2   0.126814 0.508627 0.407894 -0.138545
C11   C     C_2   0.069429 0.518212 0.516487 -0.181724
C12   C     C_R   0.491637 0.129681 0.496438 0.012037
C13   C     C_2   0.875026 0.487834 0.596087 -0.005486
C14   C     C_2   0.934114 0.518469 0.492273 -0.158679
C15   C     C_R   0.529652 0.067800 0.625307 -0.021117
C16   C     C_3   0.768100 0.832352 0.240303 -0.010105
C17   C     C_3   0.904610 0.852230 0.311817 -0.364485
C18   C     C_3   0.949735 0.440846 0.741648 -0.295607
C19   C     C_3   0.876307 0.391175 0.846450 -0.417328
C20   C     C_3   0.861616 0.898443 0.794450 -0.015438
C21   C     C_3   0.944383 0.789766 0.778920 -0.369314
C22   C     C_R   0.444429 0.062035 0.369116 -0.165743
C23   C     C_R   0.445930 0.933265 0.371359 -0.180874
C24   C     C_R   0.494708 0.871515 0.500839 0.032641
C25   C     C_R   0.530622 0.940649 0.628999 0.036031
C26   C     C_3   0.651065 0.942525 0.741135 0.144827
C27   C     C_3   0.649671 0.082075 0.733039 -0.239755
C28   C     C_R   0.593690 0.556601 0.099708 0.218127
Cu1   Cu    Cu3+1 0.499990 0.499980 0.640670 0.931940
Cu2   Cu    Cu3+1 0.500010 0.500020 0.359330 0.952744
H1    H     H_    0.882117 0.544339 0.385920 0.196339
H2    H     H_    0.409644 0.108213 0.268087 0.123434
H3    H     H_    0.411726 0.882347 0.271488 0.116322
H4    H     H_    0.640219 0.910170 0.846958 0.079087
H5    H     H_    0.637965 0.128331 0.833893 0.095615
H6    H     H_    0.711400 0.861149 0.317664 0.170062
H7    H     H_    0.744753 0.891338 0.143191 0.101887
H8    H     H_    0.963046 0.827382 0.235230 0.143062
H9    H     H_    0.921328 0.950537 0.345101 0.100764
H10   H     H_    0.931360 0.793835 0.408374 0.166184
H11   H     H_    0.830068 0.467614 0.892400 0.176408
H12   H     H_    0.723973 0.121370 0.685617 0.137138
H13   H     H_    0.807311 0.320984 0.792732 0.159550
H14   H     H_    0.941267 0.346458 0.937543 0.115763
H15   H     H_    0.009974 0.364125 0.719837 0.141839
H16   H     H_    0.011391 0.515713 0.798506 0.129336
H17   H     H_    0.849739 0.899534 0.907532 0.106684
H18   H     H_    0.909352 0.985040 0.776524 0.132181
H19   H     H_    0.961814 0.786096 0.668952 0.158188
H20   H     H_    0.034635 0.798650 0.858720 0.087928
H21   H     H_    0.897935 0.703192 0.798658 0.162911
H22   H     H_    0.343901 0.382360 0.086725 0.113851
H23   H     H_    0.343846 0.382270 0.826104 0.116655
H24   H     H_    0.717316 0.705670 0.932508 0.153235
H25   H     H_    0.546381 0.743154 0.893866 0.107183
H26   H     H_    0.552582 0.747296 0.146649 0.107927
H27   H     H_    0.123840 0.524035 0.626530 0.156106
H28   H     H_    0.074319 0.503722 0.296646 0.105927
N1    N     N_R   0.500780 0.500930 0.148120 -0.256839
N2    N     N_R   0.500790 0.500890 0.852210 -0.241639
O1    O     O_R   0.500000 0.319640 0.618810 -0.504628
O2    O     O_3   0.748408 0.886758 0.689710 -0.547147
O3    O     O_R   0.500010 0.319680 0.381230 -0.509495
O4    O     O_R   0.320680 0.500000 0.575130 -0.507558
O5    O     O_R   0.320690 0.500040 0.337550 -0.507814
O6    O     O_R   0.499990 0.680320 0.618770 -0.495246
O7    O     O_R   0.500000 0.680360 0.381190 -0.510151
O8    O     O_R   0.679310 0.499960 0.662450 -0.495335
O9    O     O_R   0.679320 0.500000 0.424870 -0.479977
O10   O     O_3   0.747719 0.706311 0.203497 -0.566254

loop_
_geom_bond_atom_site_label_1
_geom_bond_atom_site_label_2
_ccdc_geom_bond_type
C23   C24   A    
Cu1   N2    S    
C24   C25   A    
C8    O6    A    
C6    C7    S    
C8    C24   S    
C12   C22   A    
C5    C28   A    
C4    O4    A    
C15   C27   S    
Cu2   O7    S    
C12   C15   A    
C14   H1    S    
C3    N2    A    
Cu2   O9    S    
C7    O10   S    
C21   H19   S    
C2    C3    A    
C26   O2    S    
Cu1   O4    S    
C11   H27   S    
C13   C14   D    
C16   H6    S    
Cu1   Cu2   S    
C3    H23   S    
C27   H12   S    
C26   C27   S    
C20   H18   S    
C1    C12   S    
C2    H22   S    
C7    H26   S    
C6    H24   S    
C6    H25   S    
C18   H16   S    
C21   H20   S    
C10   H28   S    
C19   H13   S    
C17   H8    S    
C22   C23   A    
C20   O2    S    
C5    C6    S    
C11   C14   S    
Cu1   O1    S    
C9    O8    A    
Cu2   O5    S    
C15   C25   A    
C10   C11   D    
C4    C10   S    
Cu1   O6    S    
Cu1   O8    S    
C18   H15   S    
C19   H14   S    
C21   H21   S    
C22   H2    S    
C16   O10   S    
C20   C21   S    
C20   H17   S    
C8    O7    A    
C13   C18   S    
C18   C19   S    
C17   H9    S    
C28   N1    A    
Cu2   N1    S    
C9    C13   S    
C4    O5    A    
C1    O3    A    
C5    N2    A    
C27   H5    S    
C25   C26   S    
Cu2   O3    S    
C2    N1    A    
C26   H4    S    
C7    C28   S    
C19   H11   S    
C16   H7    S    
C9    O9    A    
C16   C17   S    
C23   H3    S    
C17   H10   S    
C1    O1    A    
