data_mof_unit_16354.cif
_audit_creation_date              2012-12-11T18:13:29-0500
_audit_creation_method            fapswitch 2.2
_symmetry_space_group_name_H-M    P1
_symmetry_Int_Tables_number       1
_space_group_crystal_system       triclinic
_cell_length_a                    8.277634
_cell_length_b                    12.615916
_cell_length_c                    18.764087
_cell_angle_alpha                 99.357136
_cell_angle_beta                  91.265274
_cell_angle_gamma                 98.872254
_cell_volume                      1908.08823904

loop_
_atom_site_label
_atom_site_type_symbol
_atom_type_description
_atom_site_fract_x
_atom_site_fract_y
_atom_site_fract_z
_atom_type_partial_charge
Ba1   Ba    Ba6+2 0.852780 0.548340 0.465070 1.647658
Ba2   Ba    Ba6+2 0.337060 0.451750 0.534940 1.648454
C1    C     C_3   0.627210 0.920650 0.267355 -0.346987
C2    C     C_R   0.895661 0.397824 0.094990 0.019443
C3    C     C_R   0.735722 0.349227 0.071257 -0.071114
C4    C     C_3   0.141048 0.759670 0.264302 0.350121
C5    C     C_R   0.674637 0.354061 0.002084 -0.075354
C6    C     C_R   0.774204 0.405646 0.954267 0.018163
C7    C     C_R   0.935716 0.454342 0.976948 0.024651
C8    C     C_R   0.714696 0.407800 0.884085 -0.106151
C9    C     C_R   0.816302 0.453492 0.833820 -0.038347
C10   C     C_R   0.978204 0.504832 0.856762 -0.005366
C11   C     C_R   0.036348 0.505970 0.928881 -0.009866
C12   C     C_3   0.651378 0.825205 0.304258 0.313536
C13   C     C_R   0.761808 0.448554 0.761070 0.031157
C14   C     C_R   0.869011 0.489855 0.712142 -0.270185
C15   C     C_R   0.026359 0.544641 0.733940 0.064214
C16   C     C_3   0.117996 0.783124 0.188076 -0.340906
C17   C     C_R   0.081755 0.555039 0.807936 -0.022685
C18   C     C_R   0.155791 0.501891 0.071802 0.003248
C19   C     C_R   0.213560 0.502424 0.143982 0.005276
C20   C     C_R   0.109497 0.451737 0.192646 -0.008002
C21   C     C_R   0.954678 0.394806 0.165360 0.022217
C22   C     C_R   0.236193 0.613743 0.835108 -0.035428
C23   C     C_3   0.469814 0.290407 0.311006 0.300087
C24   C     C_R   0.294825 0.612781 0.906056 0.033648
C25   C     C_R   0.195942 0.557135 0.952767 0.009503
C26   C     C_R   0.255997 0.554560 0.023944 0.019841
C27   C     C_R   0.452171 0.666177 0.931031 -0.078267
C28   C     C_3   0.268142 0.789055 0.625150 0.272990
C29   C     C_R   0.513372 0.660942 0.000300 -0.080706
C30   C     C_R   0.416083 0.605541 0.047271 0.032513
C31   C     C_R   0.374923 0.554167 0.167163 -0.033863
C32   C     C_R   0.475499 0.602841 0.117557 -0.107504
C33   C     C_R   0.429126 0.557993 0.239777 -0.006936
C34   C     C_3   0.506840 0.273141 0.230819 0.329245
C35   C     C_R   0.321107 0.515806 0.288590 -0.311201
C36   C     C_R   0.163167 0.461110 0.266839 0.070214
C37   C     C_R   0.789111 0.177441 0.504494 -0.100855
C38   C     C_R   0.430299 0.806408 0.467896 -0.282108
C39   C     C_R   0.405633 0.983487 0.440619 -0.096905
C40   C     C_3   0.218774 0.897920 0.617186 -0.368183
C41   C     C_R   0.339906 0.875035 0.438588 -0.006007
C42   C     C_R   0.580424 0.847347 0.505823 0.064411
C43   C     C_R   0.648652 0.959131 0.508735 -0.062329
C44   C     C_R   0.560715 0.027059 0.474348 -0.085512
C45   C     C_3   0.079022 0.241189 0.731818 0.307992
C46   C     C_R   0.628962 0.137293 0.475224 0.039159
C47   C     C_R   0.872939 0.112272 0.541244 0.012671
C48   C     C_R   0.800930 0.005477 0.544910 -0.112372
C49   C     C_3   0.018768 0.188524 0.354514 0.230690
C50   C     C_3   0.077506 0.086554 0.318308 -0.245930
C51   C     C_3   0.740299 0.724798 0.687377 0.316719
C52   C     C_3   0.776887 0.782352 0.765596 -0.155173
C53   C     C_3   0.027514 0.216105 0.806278 -0.119418
C54   C     C_3   0.534017 0.174807 0.704449 0.441393
C55   C     C_3   0.493135 0.072215 0.738429 -0.350385
C56   C     C_R   0.995869 0.451597 0.047990 0.018273
H1    H     H_    0.742947 0.853950 0.350158 0.091823
H2    H     H_    0.852543 0.697380 0.665230 0.033002
H3    H     H_    0.640690 0.654171 0.685119 0.038855
H4    H     H_    0.741423 0.951109 0.242327 0.132169
H5    H     H_    0.882824 0.848916 0.767329 0.129564
H6    H     H_    0.669065 0.819148 0.785782 0.098663
H7    H     H_    0.532236 0.795233 0.325808 -0.052639
H8    H     H_    0.593253 0.987525 0.307403 0.105037
H9    H     H_    0.341428 0.302993 0.317591 -0.027510
H10   H     H_    0.552363 0.365296 0.336879 0.007145
H11   H     H_    0.507402 0.350574 0.210130 -0.065904
H12   H     H_    0.185912 0.940911 0.669822 0.142671
H13   H     H_    0.629979 0.249351 0.224820 0.014629
H14   H     H_    0.527917 0.894202 0.224473 0.148629
H15   H     H_    0.164873 0.721437 0.148491 0.060867
H16   H     H_    0.204892 0.286220 0.736485 0.106981
H17   H     H_    0.997345 0.295742 0.715499 -0.004132
H18   H     H_    0.037429 0.293476 0.844854 0.081876
H19   H     H_    0.897678 0.176279 0.802951 0.131636
H20   H     H_    0.462262 0.162616 0.652140 0.079622
H21   H     H_    0.565265 0.081428 0.790337 0.128045
H22   H     H_    0.521649 0.999962 0.701599 0.075265
H23   H     H_    0.320509 0.949555 0.595580 0.073949
H24   H     H_    0.067785 0.679180 0.267480 0.075689
H25   H     H_    0.361955 0.058299 0.749402 0.109492
H26   H     H_    0.657345 0.308220 0.106561 0.100969
H27   H     H_    0.549882 0.316250 0.985724 0.112211
H28   H     H_    0.826521 0.483117 0.656387 0.072471
H29   H     H_    0.589041 0.372027 0.869323 0.117156
H30   H     H_    0.876243 0.349821 0.198820 0.098240
H31   H     H_    0.314007 0.659150 0.801330 0.090967
H32   H     H_    0.527911 0.712457 0.897022 0.058813
H33   H     H_    0.636172 0.701912 0.017571 0.075753
H34   H     H_    0.111153 0.885281 0.579343 0.147360
H35   H     H_    0.599719 0.641327 0.133247 0.109056
H36   H     H_    0.272750 0.757564 0.274886 -0.068353
H37   H     H_    0.363598 0.521359 0.344212 0.069202
H38   H     H_    0.333395 0.032325 0.415282 0.083576
H39   H     H_    0.865336 0.960584 0.577041 0.110253
H40   H     H_    0.379184 0.721382 0.464342 0.069762
H41   H     H_    0.986133 0.781139 0.174655 0.147523
H42   H     H_    0.186102 0.864566 0.183783 0.177168
H43   H     H_    0.399193 0.802600 0.641490 0.039325
H44   H     H_    0.246313 0.734827 0.571935 0.032586
H45   H     H_    0.900121 0.159631 0.375947 -0.023216
H46   H     H_    0.846473 0.751711 0.863964 0.191621
H47   H     H_    0.708558 0.653081 0.816273 0.169321
H48   H     H_    0.494682 0.121422 0.082071 0.333700
H49   H     H_    0.251615 0.182719 0.836569 0.211927
H50   H     H_    0.113514 0.071059 0.800992 0.206442
H51   H     H_    0.729075 0.237713 0.650597 0.123614
H52   H     H_    0.747396 0.118750 0.674728 0.150201
H53   H     H_    0.839686 0.299103 0.445300 0.164558
H54   H     H_    0.989064 0.283007 0.488242 0.186716
H55   H     H_    0.111338 0.230212 0.396193 0.052460
H56   H     H_    0.004753 0.050508 0.267441 0.161195
H57   H     H_    0.063938 0.028288 0.356551 0.084686
H58   H     H_    0.207944 0.104118 0.307020 0.180274
N1    N     N_3   0.815469 0.707253 0.812142 -0.537209
N2    N     N_3   0.128918 0.146524 0.835068 -0.474726
N3    N     N_3   0.709240 0.193176 0.692735 -0.519156
N4    N     N_3   0.867022 0.285052 0.496777 -0.431773
O1    O     O_2   0.873090 0.425890 0.325140 -0.476574
O2    O     O_2   0.213800 0.124080 0.558461 -0.493281
O3    O     O_3   0.069432 0.144150 0.681543 -0.627080
O4    O     O_3   0.122420 0.434370 0.414380 -0.509420
O5    O     O_3   0.578370 0.633800 0.536380 -0.486231
O6    O     O_2   0.341510 0.231850 0.465510 -0.485941
O7    O     O_3   0.496424 0.198937 0.340570 -0.651182
O8    O     O_2   0.428025 0.459541 0.757751 -0.509074
O9    O     O_3   0.488464 0.261894 0.752697 -0.617064
O10   O     O_3   0.659500 0.627100 0.368810 -0.472603
O11   O     O_2   0.765543 0.546188 0.242812 -0.504510
O12   O     O_3   0.690295 0.801095 0.649268 -0.670782
O13   O     O_3   0.990603 0.253673 0.303947 -0.595799
O14   O     O_3   0.709473 0.745794 0.254194 -0.594965
O15   O     O_2   0.848200 0.768190 0.534530 -0.466983
O16   O     O_3   0.081160 0.685950 0.404810 -0.476392
O17   O     O_2   0.004459 0.879622 0.447102 -0.499088
O18   O     O_2   0.192010 0.198102 0.185473 -0.285210
O19   O     O_2   0.368080 0.061891 0.197904 -0.335614
O20   O     O_3   0.403402 0.163938 0.088636 -0.504257
O21   O     O_3   0.086997 0.841790 0.313190 -0.598296
O22   O     O_2   0.316610 0.574140 0.674900 -0.477902
O23   O     O_3   0.067290 0.565720 0.585630 -0.478083
O24   O     O_3   0.530210 0.372990 0.631200 -0.463363
O25   O     O_3   0.181229 0.747692 0.680364 -0.638054
O26   O     O_3   0.611340 0.366290 0.463630 -0.455888
O27   O     O_3   0.108550 0.314140 0.595200 -0.478354
P1    P     P_3+3 0.041040 0.394770 0.336330 0.981005
P2    P     P_3+3 0.672880 0.754030 0.556100 0.960211
P3    P     P_3+3 0.129899 0.823063 0.401605 0.944036
P4    P     P_3+3 0.148670 0.605320 0.663680 0.983010
P5    P     P_3+3 0.067874 0.172880 0.592896 0.943386
P6    P     P_3+3 0.640190 0.616888 0.275354 0.946767
P7    P     P_3+3 0.517638 0.231236 0.435153 0.939807
P8    P     P_3+3 0.552278 0.387805 0.725336 0.940548
S1    S     S_3+6 0.361314 0.170734 0.176332 -0.090316

loop_
_geom_bond_atom_site_label_1
_geom_bond_atom_site_label_2
_ccdc_geom_bond_type
Ba2   O23   S    
Ba2   O24   S    
C55   H21   S    
C23   H9    S    
C32   H35   S    
H48   O20   S    
C22   H31   S    
H54   N4    S    
C5    C6    A    
C51   C52   S    
C42   C43   A    
C12   H1    S    
O4    P1    S    
H51   N3    S    
C24   C25   A    
C49   H55   S    
C16   H42   S    
C4    H24   S    
O19   S1    D    
C45   C53   S    
C33   C35   A    
Ba1   O5    S    
C7    C56   A    
O27   P5    S    
C38   H40   S    
C53   H19   S    
C50   H57   S    
C39   H38   S    
C19   C31   A    
C52   H5    S    
C49   H45   S    
C37   N4    S    
C20   C36   A    
C40   H12   S    
C54   H20   S    
C54   C55   S    
C35   H37   S    
Ba1   Ba2   S    
C7    C11   A    
O8    P8    D    
C31   C33   A    
C9    C13   A    
C38   C41   A    
C6    C7    A    
C4    H36   S    
C39   C44   A    
C55   H25   S    
Ba1   P2    S    
Ba1   O16   S    
H49   N2    S    
C13   P8    S    
C54   O9    S    
C34   H13   S    
O23   P4    S    
O13   P1    S    
C19   C20   A    
C14   H28   S    
O12   P2    S    
C39   C41   A    
C55   H22   S    
H47   N1    S    
Ba1   O26   S    
C15   P4    S    
C40   H23   S    
C51   H3    S    
O7    P7    S    
C27   H32   S    
C51   H2    S    
O21   P3    S    
C50   H58   S    
C4    C16   S    
C44   C46   A    
C8    H29   S    
C49   C50   S    
H50   N2    S    
O11   P6    D    
Ba1   O10   S    
C3    C5    A    
C2    C21   A    
C14   C15   A    
C18   C26   A    
Ba2   O27   S    
O15   P2    D    
H53   N4    S    
C30   C32   A    
O22   P4    D    
C35   C36   A    
Ba1   O23   S    
C45   O3    S    
C29   C30   A    
O26   P7    S    
C26   C30   A    
C28   H44   S    
C31   C32   A    
O1    P1    D    
C51   O12   S    
C18   C19   A    
C4    O21   S    
C1    C12   S    
C36   P1    S    
O25   P4    S    
C41   P3    S    
O5    P2    S    
O20   S1    S    
C53   H18   S    
Ba2   O6    S    
C37   C47   A    
C16   H15   S    
Ba2   O4    S    
C21   H30   S    
Ba2   O22   S    
C54   N3    S    
O17   P3    D    
C1    H8    S    
C16   H41   S    
C18   C56   A    
O6    P7    D    
C34   H11   S    
C34   S1    S    
C28   O25   S    
O9    P8    S    
H46   N1    S    
C1    H4    S    
O18   S1    D    
Ba2   P4    S    
C3    H26   S    
C46   P7    S    
O3    P5    S    
C48   H39   S    
C47   P5    S    
C28   C40   S    
C33   P6    S    
C45   H16   S    
C22   C24   A    
C2    C3    A    
H52   N3    S    
O16   P3    S    
C9    C10   A    
C23   H10   S    
C50   H56   S    
Ba2   O26   S    
C12   O14   S    
C29   H33   S    
C42   P2    S    
O24   P8    S    
C1    H14   S    
C23   O7    S    
Ba1   O4    S    
C45   H17   S    
C27   C29   A    
C49   O13   S    
C5    H27   S    
C52   H6    S    
C43   C48   A    
C10   C17   A    
C15   C17   A    
C12   H7    S    
C28   H43   S    
C17   C22   A    
O10   P6    S    
C40   H34   S    
Ba1   O1    S    
C8    C9    A    
C23   C34   S    
O14   P6    S    
Ba2   O5    S    
C43   C44   A    
C38   C42   A    
C10   C11   A    
C24   C27   A    
C6    C8    A    
C47   C48   A    
C52   N1    S    
C2    C56   A    
C25   C26   A    
C20   C21   A    
C11   C25   A    
Ba1   P1    S    
Ba1   O15   S    
C13   C14   A    
O2    P5    D    
C37   C46   A    
C53   N2    S    
