data_mof_unit_14065.cif
_audit_creation_date              2012-12-10T18:25:40-0500
_audit_creation_method            fapswitch 2.2
_symmetry_space_group_name_H-M    P1
_symmetry_Int_Tables_number       1
_space_group_crystal_system       triclinic
_cell_length_a                    14.851677
_cell_length_b                    14.012583
_cell_length_c                    18.966046
_cell_angle_alpha                 90.305656
_cell_angle_beta                  89.86953
_cell_angle_gamma                 90.381381
_cell_volume                      3946.87707699

loop_
_atom_site_label
_atom_site_type_symbol
_atom_type_description
_atom_site_fract_x
_atom_site_fract_y
_atom_site_fract_z
_atom_type_partial_charge
C1    C     C_R   0.326628 0.500054 0.497485 0.973648
C2    C     C_R   0.097515 0.489515 0.570649 -0.015576
C3    C     C_R   0.960022 0.450639 0.634002 -0.213565
C4    C     C_R   0.043044 0.636370 0.411892 -0.179837
C5    C     C_R   0.054745 0.461185 0.633823 0.424713
C6    C     C_R   0.949524 0.646965 0.422084 0.425644
C7    C     C_R   0.571754 0.798196 0.526959 0.073330
C8    C     C_R   0.426171 0.201541 0.476755 0.005352
C9    C     C_R   0.427293 0.796983 0.474937 0.054135
C10   C     C_R   0.571578 0.202889 0.527074 0.061226
C11   C     C_R   0.422696 0.897734 0.477683 0.001422
C12   C     C_R   0.673688 0.500643 0.502618 0.972643
C13   C     C_R   0.572162 0.102031 0.531274 0.003024
C14   C     C_R   0.574170 0.899213 0.528750 -0.000013
C15   C     C_R   0.423238 0.100492 0.476034 -0.026447
C16   C     C_R   0.498498 0.949287 0.502926 0.039378
C17   C     C_R   0.498135 0.050459 0.503111 0.055539
C18   C     C_R   0.345037 0.947617 0.455339 -0.049032
C19   C     C_R   0.644912 0.052021 0.562029 -0.069307
C20   C     C_R   0.647588 0.950878 0.558610 -0.061036
C21   C     C_R   0.346418 0.048741 0.452062 -0.089776
C22   C     C_R   0.498406 0.499854 0.364603 1.016887
C23   C     C_R   0.816722 0.459577 0.564476 -0.068942
C24   C     C_R   0.499783 0.500066 0.635467 1.032142
C25   C     C_R   0.524758 0.577973 0.248447 0.398200
C26   C     C_R   0.439297 0.430645 0.748826 0.402475
C27   C     C_R   0.522278 0.582789 0.751110 0.419834
C28   C     C_R   0.423378 0.439250 0.253667 0.405569
C29   C     C_R   0.496654 0.594499 0.179698 -0.190105
C30   C     C_R   0.412014 0.447921 0.818157 -0.165029
C31   C     C_R   0.493061 0.597708 0.819965 -0.192130
C32   C     C_R   0.398070 0.457078 0.184212 -0.206531
C33   C     C_R   0.433612 0.534536 0.147224 -0.070654
C34   C     C_R   0.182994 0.549457 0.444561 -0.033709
C35   C     C_R   0.437391 0.531438 0.853631 -0.077928
C36   C     C_R   0.485290 0.502326 0.287636 -0.287685
C37   C     C_R   0.490394 0.501968 0.712805 -0.307279
C38   C     C_R   0.417881 0.542398 0.929088 0.366412
C39   C     C_R   0.415846 0.544161 0.071609 0.362324
C40   C     C_R   0.813580 0.570159 0.465906 -0.141304
C41   C     C_R   0.188736 0.474683 0.560152 -0.188594
C42   C     C_R   0.770240 0.506061 0.510078 -0.111648
C43   C     C_R   0.230363 0.503297 0.498440 -0.072889
C44   C     C_2   0.770458 0.384002 0.605767 0.389843
C45   C     C_R   0.909740 0.480357 0.573931 -0.068222
C46   C     C_2   0.224323 0.557477 0.373149 0.388044
C47   C     C_2   0.914104 0.415522 0.698419 0.564286
C48   C     C_2   0.089872 0.695293 0.358077 0.536999
C49   C     C_2   0.260984 0.895423 0.435914 0.353250
C50   C     C_2   0.718658 0.104161 0.598925 0.345577
C51   C     C_2   0.725663 0.900944 0.590533 0.417151
C52   C     C_2   0.264695 0.098636 0.426572 0.369500
C53   C     C_R   0.091838 0.573539 0.456561 -0.068481
C54   C     C_R   0.954396 0.534767 0.520967 0.038216
C55   C     C_R   0.048081 0.534267 0.516784 0.039001
C56   C     C_R   0.905418 0.585088 0.469740 -0.024604
H1    H     H_    0.527162 0.652392 0.150371 0.211889
H2    H     H_    0.628003 0.245084 0.545192 0.179576
H3    H     H_    0.629131 0.759834 0.359283 0.399185
H4    H     H_    0.341695 0.262658 0.621148 0.377855
H5    H     H_    0.714353 0.661838 0.643823 0.387516
H6    H     H_    0.433900 0.198119 0.318028 0.397524
H7    H     H_    0.803117 0.315754 0.612865 0.114710
H8    H     H_    0.184897 0.538204 0.327053 0.119213
H9    H     H_    0.857230 0.454328 0.719951 0.108370
H10   H     H_    0.151789 0.732479 0.371385 0.099919
H11   H     H_    0.097112 0.456719 0.825562 0.402170
H12   H     H_    0.372387 0.394602 0.845470 0.215895
H13   H     H_    0.919269 0.881130 0.338398 0.399814
H14   H     H_    0.223505 0.915772 0.389359 0.098602
H15   H     H_    0.788363 0.085691 0.588803 0.085098
H16   H     H_    0.750227 0.922850 0.642016 0.110723
H17   H     H_    0.198880 0.078584 0.446828 0.096399
H18   H     H_    0.516509 0.660459 0.848171 0.216037
H19   H     H_    0.351135 0.409297 0.158158 0.214659
H20   H     H_    0.774882 0.603379 0.425020 0.237818
H21   H     H_    0.228549 0.438397 0.598989 0.236209
H22   H     H_    0.625834 0.756267 0.547949 0.200506
H23   H     H_    0.369648 0.242949 0.459510 0.217971
H24   H     H_    0.373532 0.754633 0.452478 0.199402
N1    N     N_R   0.377208 0.471117 0.035263 -0.141684
N2    N     N_R   0.451734 0.618055 0.965426 -0.140541
N3    N     N_R   0.378201 0.470250 0.965282 -0.142733
N4    N     N_R   0.450787 0.618907 0.035383 -0.141566
N5    N     N_R   0.500000 0.750030 0.500000 -0.136962
N6    N     N_R   0.500000 0.249970 0.500000 -0.122825
O1    O     O_R   0.367850 0.580280 0.500020 -0.606658
O2    O     O_2   0.667645 0.691777 0.220864 -0.215615
O3    O     O_3   0.576069 0.735966 0.332828 -0.526805
O4    O     O_2   0.498204 0.267074 0.691936 -0.228513
O5    O     O_2   0.363420 0.255858 0.765706 -0.235982
O6    O     O_3   0.346867 0.327862 0.641221 -0.552713
O7    O     O_2   0.554702 0.745838 0.683143 -0.303973
O8    O     O_2   0.659378 0.703964 0.777158 -0.260102
O9    O     O_3   0.671491 0.611427 0.658872 -0.548042
O10   O     O_2   0.324830 0.364321 0.358766 -0.291527
O11   O     O_2   0.314569 0.284443 0.244284 -0.252181
O12   O     O_R   0.632150 0.419720 0.499980 -0.629494
O13   O     O_3   0.461204 0.262743 0.316559 -0.529901
O14   O     O_2   0.698084 0.398479 0.634354 -0.495926
O15   O     O_2   0.300770 0.587746 0.364779 -0.581274
O16   O     O_2   0.937257 0.341208 0.726185 -0.469162
O17   O     O_2   0.061839 0.699155 0.297691 -0.480039
O18   O     O_2   0.149584 0.344670 0.717190 -0.215274
O19   O     O_2   0.200165 0.511423 0.712719 -0.305143
O20   O     O_3   0.057965 0.473119 0.785242 -0.502963
O21   O     O_2   0.858850 0.704228 0.307640 -0.187275
O22   O     O_2   0.808476 0.770423 0.420743 -0.280346
O23   O     O_R   0.632150 0.580280 0.499980 -0.612741
O24   O     O_3   0.955320 0.837093 0.367487 -0.518715
O25   O     O_2   0.230490 0.832938 0.473917 -0.555185
O26   O     O_2   0.701682 0.164176 0.643824 -0.491917
O27   O     O_2   0.765921 0.838748 0.558396 -0.524151
O28   O     O_2   0.269618 0.158388 0.380175 -0.487610
O29   O     O_R   0.367850 0.419720 0.500020 -0.609017
O30   O     O_R   0.499990 0.580300 0.398140 -0.556807
O31   O     O_R   0.500010 0.419700 0.601860 -0.535497
O32   O     O_R   0.500010 0.580300 0.601860 -0.580107
O33   O     O_R   0.499990 0.419700 0.398140 -0.557118
O34   O     O_2   0.677273 0.585201 0.322268 -0.331134
S1    S     S_3+6 0.615683 0.648085 0.280812 0.080443
S2    S     S_3+6 0.412441 0.316407 0.712628 0.093240
S3    S     S_3+6 0.603213 0.664856 0.717666 0.049852
S4    S     S_3+6 0.376882 0.336170 0.294115 0.070548
S5    S     S_3+6 0.119078 0.446536 0.713036 0.074183
S6    S     S_3+6 0.889260 0.740253 0.378520 0.091220
Zn1   Zn    Zn3+2 0.500000 0.607200 0.500000 1.068644
Zn2   Zn    Zn3+2 0.500000 0.392800 0.500000 1.074588

loop_
_geom_bond_atom_site_label_1
_geom_bond_atom_site_label_2
_ccdc_geom_bond_type
C1    O1    A    
C11   C18   A    
C23   C45   A    
C38   N3    A    
C18   C21   A    
C41   C43   A    
C19   C20   A    
C8    N6    A    
C32   H19   S    
O1    Zn1   S    
O30   Zn1   S    
O20   S5    S    
C24   O31   A    
C51   O27   D    
C23   C42   A    
C30   C35   A    
C10   H2    S    
C39   N4    A    
O11   S4    D    
C2    C55   A    
C41   H21   S    
C4    C53   A    
C2    C41   A    
C29   C33   A    
C11   C16   A    
C3    C47   S    
C48   H10   S    
C12   C42   S    
C9    N5    A    
C1    C43   S    
C7    C14   A    
H3    O3    S    
O18   S5    D    
C22   O30   A    
C40   C56   A    
O5    S2    D    
C8    H23   S    
C34   C46   S    
C12   O12   A    
C49   O25   D    
O8    S3    D    
C40   C42   A    
C47   O16   D    
C38   N2    A    
O4    S2    D    
C12   O23   A    
N1    N3    A    
O23   Zn1   S    
C53   C55   A    
C44   H7    S    
C25   C29   A    
C22   O33   A    
C46   O15   D    
C54   C56   A    
O10   S4    D    
C27   C31   A    
C14   C20   A    
C28   C32   A    
C35   C38   S    
C6    S6    S    
C4    C6    A    
C52   H17   S    
C13   C19   A    
C16   C17   A    
C31   H18   S    
C48   O17   D    
N6    Zn2   S    
C3    C45   A    
C26   S2    S    
O29   Zn2   S    
C40   H20   S    
C46   H8    S    
C9    H24   S    
C50   H15   S    
O6    S2    S    
H13   O24   S    
C50   O26   D    
C24   C37   S    
H11   O20   S    
C33   C39   S    
C9    C11   A    
C39   N1    A    
O24   S6    S    
C7    H22   S    
C29   H1    S    
C45   C54   A    
C26   C30   A    
C8    C15   A    
N2    N4    A    
C49   H14   S    
C14   C16   A    
N5    Zn1   S    
C2    C5    A    
O32   Zn1   S    
O34   S1    D    
C4    C48   S    
O9    S3    S    
C15   C17   A    
C54   C55   A    
C10   N6    A    
C27   S3    S    
C34   C43   A    
O7    S3    D    
O21   S6    D    
C6    C56   A    
O2    S1    D    
C3    C5    A    
C10   C13   A    
H5    O9    S    
C26   C37   A    
C52   O28   D    
C20   C51   S    
C22   C36   S    
C24   O32   A    
C13   C17   A    
O22   S6    D    
C32   C33   A    
O19   S5    D    
O33   Zn2   S    
C44   O14   D    
C19   C50   S    
C7    N5    A    
O3    S1    S    
C27   C37   A    
O12   Zn2   S    
C31   C35   A    
O31   Zn2   S    
C23   C44   S    
C25   C36   A    
H6    O13   S    
C15   C21   A    
C28   C36   A    
C34   C53   A    
C51   H16   S    
C5    S5    S    
C1    O29   A    
C28   S4    S    
H4    O6    S    
C25   S1    S    
C47   H9    S    
C21   C52   S    
C30   H12   S    
C18   C49   S    
O13   S4    S    
