data_mof_unit_42405.cif
_audit_creation_date              2012-10-26T20:06:16-0400
_audit_creation_method            fapswitch 2.2
_symmetry_space_group_name_H-M    P1
_symmetry_Int_Tables_number       1
_space_group_crystal_system       triclinic
_cell_length_a                    9.492911
_cell_length_b                    10.868267
_cell_length_c                    13.516456
_cell_angle_alpha                 90.1965
_cell_angle_beta                  73.278823
_cell_angle_gamma                 89.335395
_cell_volume                      1335.42445629

loop_
_atom_site_label
_atom_site_type_symbol
_atom_type_description
_atom_site_fract_x
_atom_site_fract_y
_atom_site_fract_z
_atom_type_partial_charge
C1    C     C_R   0.498962 0.737981 0.500044 0.571804
C2    C     C_R   0.378110 0.507105 0.813478 0.002843
C3    C     C_R   0.630735 0.932789 0.484758 -0.167687
C4    C     C_R   0.422402 0.506443 0.699786 0.535212
C5    C     C_R   0.634837 0.060480 0.486721 0.250048
C6    C     C_R   0.502984 0.128152 0.499745 -0.019499
C7    C     C_R   0.369584 0.067126 0.514143 -0.168453
C8    C     C_R   0.365559 0.939475 0.512078 0.251078
C9    C     C_R   0.497286 0.871798 0.499448 -0.015937
C10   C     C_R   0.902656 0.587733 0.553522 0.002222
C11   C     C_R   0.051321 0.587195 0.554079 0.003325
C12   C     C_R   0.441815 0.509984 0.976670 0.044665
C13   C     C_R   0.097349 0.412099 0.446618 -0.019306
C14   C     C_R   0.948668 0.412713 0.445993 0.000125
C15   C     C_R   0.501144 0.262008 0.499674 0.570724
C16   C     C_R   0.577082 0.505608 0.300467 0.565624
C17   C     C_R   0.803418 0.548254 0.024814 -0.148555
C18   C     C_R   0.617700 0.518905 0.187961 0.021240
C19   C     C_R   0.241221 0.456729 0.865100 -0.135716
C20   C     C_R   0.209444 0.424524 0.968307 -0.153804
C21   C     C_R   0.311744 0.445221 0.021922 -0.118051
C22   C     C_3   0.822297 0.106324 0.553887 -0.112378
C23   C     C_R   0.477572 0.539266 0.870413 0.025024
C24   C     C_3   0.181338 0.891934 0.442384 -0.115157
C25   C     C_3   0.259657 0.582629 0.229546 -0.086517
C26   C     C_R   0.545282 0.533584 0.031481 0.054311
C27   C     C_R   0.692778 0.556939 0.975561 0.023178
C28   C     C_R   0.725042 0.593382 0.872891 -0.136333
C29   C     C_R   0.614463 0.595126 0.824132 -0.118032
C30   C     C_R   0.505872 0.541975 0.139922 0.246988
C31   C     C_R   0.766314 0.520154 0.129526 -0.176622
Cu1   Cu    Cu3+1 0.359340 0.499980 0.500000 0.950904
Cu2   Cu    Cu3+1 0.640660 0.500020 0.500000 0.946093
H1    H     H_    0.853244 0.508280 0.166033 0.129277
H2    H     H_    0.291855 0.403758 0.096779 0.092783
H3    H     H_    0.108504 0.377035 0.005342 0.117453
H4    H     H_    0.639723 0.637672 0.749380 0.135267
H5    H     H_    0.733254 0.881549 0.470848 0.140202
H6    H     H_    0.741898 0.143926 0.624966 0.133064
H7    H     H_    0.924595 0.160141 0.540336 0.131417
H8    H     H_    0.850936 0.009053 0.565672 0.107659
H9    H     H_    0.079500 0.837705 0.454906 0.123114
H10   H     H_    0.263588 0.853699 0.372448 0.149699
H11   H     H_    0.153064 0.988888 0.429186 0.109866
H12   H     H_    0.267036 0.118261 0.527719 0.141252
H13   H     H_    0.206512 0.633467 0.302269 0.152028
H14   H     H_    0.259986 0.483573 0.249443 0.105333
H15   H     H_    0.190630 0.599544 0.177149 0.119878
H16   H     H_    0.828786 0.658813 0.595510 0.097990
H17   H     H_    0.088834 0.656741 0.597659 0.151259
H18   H     H_    0.171946 0.341866 0.403603 0.106056
H19   H     H_    0.911266 0.343402 0.402152 0.151730
H20   H     H_    0.834178 0.624283 0.831464 0.106931
H21   H     H_    0.917795 0.560918 0.982191 0.122734
H22   H     H_    0.163159 0.432603 0.823672 0.133489
N1    N     N_R   0.147940 0.499970 0.499970 -0.234753
N2    N     N_R   0.852060 0.500060 0.499990 -0.226266
O1    O     O_R   0.381250 0.680340 0.500010 -0.451023
O2    O     O_3   0.231378 0.881573 0.530785 -0.563567
O3    O     O_3   0.400940 0.631307 0.186318 -0.558465
O4    O     O_R   0.618820 0.680370 0.500010 -0.534847
O5    O     O_R   0.323240 0.499950 0.650980 -0.505570
O6    O     O_R   0.560810 0.499980 0.650980 -0.510583
O7    O     O_R   0.381180 0.319630 0.499990 -0.528998
O8    O     O_R   0.618750 0.319660 0.499990 -0.449919
O9    O     O_R   0.439190 0.500020 0.349020 -0.492480
O10   O     O_R   0.676760 0.500050 0.349020 -0.513862
O11   O     O_3   0.769123 0.118470 0.466991 -0.561511

loop_
_geom_bond_atom_site_label_1
_geom_bond_atom_site_label_2
_ccdc_geom_bond_type
Cu1   O7    S    
C2    C4    S    
C15   O7    A    
C23   C29   A    
C6    C7    A    
C21   H2    S    
C25   O3    S    
C4    O5    A    
C24   H9    S    
C25   H14   S    
C25   H13   S    
C19   C20   A    
C4    O6    A    
Cu1   O1    S    
C28   H20   S    
C13   N1    A    
C22   H7    S    
Cu1   Cu2   S    
C2    C19   A    
C31   H1    S    
Cu1   O5    S    
C7    C8    A    
C16   O10   A    
C1    O1    A    
C12   C23   A    
C22   O11   S    
C26   C27   A    
C30   O3    S    
C24   H10   S    
C5    O11   S    
C3    C9    A    
C22   H6    S    
C12   C21   A    
Cu2   O4    S    
C28   C29   A    
C24   H11   S    
C26   C30   A    
C24   O2    S    
C8    O2    S    
C5    C6    A    
C17   C31   A    
Cu2   O6    S    
C22   H8    S    
C16   O9    A    
C10   C11   A    
C18   C30   A    
C29   H4    S    
C17   C27   A    
C7    H12   S    
C27   C28   A    
C10   N2    A    
C1    C9    S    
C20   C21   A    
Cu2   O10   S    
Cu1   O9    S    
C19   H22   S    
C2    C23   A    
C11   H17   S    
C14   N2    A    
C20   H3    S    
Cu2   N2    S    
C18   C31   A    
C13   C14   A    
C3    C5    A    
C6    C15   S    
C13   H18   S    
C10   H16   S    
C25   H15   S    
C17   H21   S    
Cu1   N1    S    
C16   C18   S    
C14   H19   S    
C11   N1    A    
Cu2   O8    S    
C3    H5    S    
C12   C26   A    
C8    C9    A    
C1    O4    A    
C15   O8    A    
