data_mof_unit_13428.cif
_audit_creation_date              2012-12-10T21:29:46-0500
_audit_creation_method            fapswitch 2.2
_symmetry_space_group_name_H-M    P1
_symmetry_Int_Tables_number       1
_space_group_crystal_system       triclinic
_cell_length_a                    10.630873
_cell_length_b                    16.049927
_cell_length_c                    16.891253
_cell_angle_alpha                 88.084118
_cell_angle_beta                  90.286551
_cell_angle_gamma                 93.715118
_cell_volume                      2874.38973929

loop_
_atom_site_label
_atom_site_type_symbol
_atom_type_description
_atom_site_fract_x
_atom_site_fract_y
_atom_site_fract_z
_atom_type_partial_charge
C1    C     C_R   0.497107 0.489110 0.652979 0.867843
C2    C     C_R   0.432787 0.526613 0.099863 0.328917
C3    C     C_R   0.452403 0.400148 0.859452 -0.194238
C4    C     C_R   0.461637 0.599457 0.140950 -0.194815
C5    C     C_R   0.473514 0.404861 0.778309 -0.222212
C6    C     C_R   0.484546 0.594852 0.221914 -0.226496
C7    C     C_R   0.462675 0.762935 0.450517 -0.010320
C8    C     C_R   0.537765 0.237096 0.549333 -0.010042
C9    C     C_R   0.463726 0.850222 0.453872 -0.286071
C10   C     C_R   0.536736 0.149809 0.545980 -0.286396
C11   C     C_R   0.519843 0.891050 0.519219 0.337121
C12   C     C_R   0.497661 0.510848 0.347052 0.871450
C13   C     C_R   0.480183 0.108946 0.480788 0.336875
C14   C     C_R   0.573020 0.841842 0.579096 -0.314959
C15   C     C_R   0.426556 0.158120 0.421064 -0.314396
C16   C     C_R   0.740047 0.500090 0.511682 0.895499
C17   C     C_R   0.260079 0.499935 0.488080 0.892770
C18   C     C_R   0.569825 0.754775 0.573377 -0.028763
C19   C     C_R   0.429708 0.245186 0.426792 -0.023552
C20   C     C_R   0.873998 0.350171 0.557111 -0.161155
C21   C     C_R   0.126465 0.649810 0.442028 -0.160543
C22   C     C_R   0.922081 0.273086 0.544146 -0.174888
C23   C     C_R   0.481152 0.482897 0.738222 -0.026975
C24   C     C_R   0.078348 0.726928 0.454777 -0.175775
C25   C     C_R   0.029472 0.268801 0.497536 0.152235
C26   C     C_R   0.970780 0.731306 0.501202 0.151692
C27   C     C_R   0.093394 0.343268 0.470002 -0.159501
C28   C     C_R   0.906834 0.656900 0.528868 -0.160353
C29   C     C_R   0.051541 0.422126 0.489351 0.061806
C30   C     C_R   0.948668 0.577968 0.509711 0.061110
C31   C     C_R   0.933253 0.424827 0.524231 0.087056
C32   C     C_R   0.067026 0.575219 0.474911 0.087155
C33   C     C_R   0.124139 0.498317 0.475345 -0.243483
C34   C     C_R   0.478239 0.516864 0.262088 -0.029331
C35   C     C_R   0.876120 0.501748 0.523931 -0.245713
C36   C     C_3   0.921783 0.814804 0.518928 -0.437913
C37   C     C_3   0.011208 0.864310 0.574229 -0.334277
C38   C     C_3   0.951974 0.942429 0.601966 -0.893082
C39   C     C_3   0.078362 0.185346 0.479541 -0.438433
C40   C     C_3   0.988363 0.135742 0.424652 -0.333867
C41   C     C_3   0.047406 0.057667 0.396637 -0.893666
C42   C     C_R   0.465907 0.555779 0.779456 -0.233698
C43   C     C_R   0.444813 0.444075 0.221406 -0.236560
C44   C     C_R   0.444246 0.551042 0.859948 -0.164983
C45   C     C_R   0.421313 0.448736 0.141037 -0.162662
C46   C     C_R   0.438696 0.472887 0.900786 0.328745
H1    H     H_    0.579977 0.115177 0.593776 0.148964
H2    H     H_    0.126689 0.783280 0.430035 0.133299
H3    H     H_    0.173756 0.339018 0.431675 0.142540
H4    H     H_    0.826564 0.661312 0.567227 0.143895
H5    H     H_    0.436422 0.383333 0.251540 0.155730
H6    H     H_    0.469940 0.616701 0.749610 0.162548
H7    H     H_    0.397014 0.391238 0.111120 0.146661
H8    H     H_    0.434022 0.608752 0.889998 0.147815
H9    H     H_    0.449001 0.339934 0.890576 0.136982
H10   H     H_    0.470341 0.659529 0.109594 0.136793
H11   H     H_    0.484056 0.347817 0.747176 0.155100
H12   H     H_    0.420854 0.884882 0.405950 0.149026
H13   H     H_    0.508208 0.651893 0.252748 0.156867
H14   H     H_    0.581673 0.268186 0.599147 0.116198
H15   H     H_    0.419090 0.731872 0.400585 0.117263
H16   H     H_    0.922634 0.981524 0.550539 0.271740
H17   H     H_    0.868085 0.924624 0.639240 0.257548
H18   H     H_    0.021460 0.979845 0.637695 0.250088
H19   H     H_    0.033402 0.824665 0.627081 0.228810
H20   H     H_    0.100724 0.883180 0.542810 0.221230
H21   H     H_    0.909784 0.851191 0.462515 0.204243
H22   H     H_    0.827683 0.805660 0.547194 0.209988
H23   H     H_    0.616991 0.870886 0.630099 0.142529
H24   H     H_    0.130703 0.075532 0.358864 0.257288
H25   H     H_    0.077620 0.018694 0.447923 0.271678
H26   H     H_    0.977495 0.020102 0.361345 0.250327
H27   H     H_    0.899244 0.116803 0.456481 0.221223
H28   H     H_    0.965479 0.175339 0.371908 0.229229
H29   H     H_    0.172071 0.194563 0.450800 0.209330
H30   H     H_    0.091101 0.148986 0.535887 0.204518
H31   H     H_    0.382213 0.129049 0.370191 0.142210
H32   H     H_    0.611039 0.717446 0.619971 0.123517
H33   H     H_    0.388032 0.282474 0.380361 0.118555
H34   H     H_    0.790524 0.351241 0.593381 0.140161
H35   H     H_    0.210132 0.648646 0.405939 0.141690
H36   H     H_    0.873845 0.216690 0.568874 0.133030
N1    N     N_2   0.429850 0.465414 0.983895 -0.208626
N2    N     N_2   0.427211 0.533591 0.016671 -0.210419
N3    N     N_R   0.515300 0.716920 0.509720 -0.080599
N4    N     N_R   0.484700 0.283080 0.490280 -0.080392
N5    N     N_2   0.525092 0.979877 0.527540 -0.193861
N6    N     N_2   0.474938 0.020119 0.472469 -0.193733
O1    O     O_R   0.494530 0.422540 0.612660 -0.632798
O2    O     O_R   0.505470 0.577460 0.387340 -0.633024
O3    O     O_R   0.504350 0.561840 0.618900 -0.631185
O4    O     O_R   0.495650 0.438160 0.381100 -0.628441
O5    O     O_R   0.678310 0.430340 0.496890 -0.605112
O6    O     O_R   0.321690 0.569660 0.503110 -0.606734
O7    O     O_R   0.688140 0.569650 0.503130 -0.617784
O8    O     O_R   0.311860 0.430350 0.496870 -0.618993
Zn1   Zn    Zn3+2 0.493440 0.406980 0.495830 0.941732
Zn2   Zn    Zn3+2 0.506560 0.593020 0.504170 0.940202

loop_
_geom_bond_atom_site_label_1
_geom_bond_atom_site_label_2
_ccdc_geom_bond_type
N5    N6    D    
C27   C29   A    
C14   C18   A    
C2    N2    S    
C19   N4    A    
C36   H21   S    
C7    N3    A    
C15   C19   A    
C16   O5    A    
C23   C42   A    
C17   C33   S    
C30   C35   A    
C22   H36   S    
C12   O2    A    
C36   C37   S    
C24   C26   A    
C16   C35   S    
C11   C14   A    
O6    Zn2   S    
C29   C33   A    
C4    H10   S    
C40   H27   S    
C9    H12   S    
N4    Zn1   S    
C7    H15   S    
N3    Zn2   S    
C3    H9    S    
C11   N5    S    
C22   C25   A    
C37   H19   S    
C39   H29   S    
C41   H25   S    
C45   H7    S    
C1    O3    A    
C37   H20   S    
C42   C44   A    
C44   C46   A    
O4    Zn1   S    
C38   H18   S    
C2    C45   A    
C21   C32   A    
O7    Zn2   S    
C18   N3    A    
C20   H34   S    
C24   H2    S    
C4    C6    A    
C39   C40   S    
C28   H4    S    
C6    C34   A    
O1    Zn1   S    
C2    C4    A    
C37   C38   S    
C43   C45   A    
N1    N2    D    
C5    C23   A    
C18   H32   S    
O8    Zn1   S    
C17   O8    A    
C39   H30   S    
C19   H33   S    
C9    C11   A    
C41   H26   S    
C26   C36   S    
C40   C41   S    
C20   C22   A    
C1    C23   S    
C13   C15   A    
C14   H23   S    
C31   C35   A    
C12   C34   S    
O5    Zn1   S    
C38   H17   S    
C7    C9    A    
C16   O7    A    
C1    O1    A    
C6    H13   S    
C12   O4    A    
C34   C43   A    
C21   H35   S    
C3    C5    A    
C10   C13   A    
C36   H22   S    
C25   C27   A    
C3    C46   A    
C26   C28   A    
C5    H11   S    
C32   C33   A    
C28   C30   A    
C29   C31   A    
C25   C39   S    
C30   C32   A    
C43   H5    S    
C15   H31   S    
C13   N6    S    
C40   H28   S    
C8    N4    A    
O3    Zn2   S    
C46   N1    S    
C44   H8    S    
C8    C10   A    
C21   C24   A    
C10   H1    S    
C17   O6    A    
O2    Zn2   S    
C8    H14   S    
C27   H3    S    
C42   H6    S    
C41   H24   S    
C38   H16   S    
C20   C31   A    
