data_mof_unit_16691.cif
_audit_creation_date              2012-10-26T19:48:46-0400
_audit_creation_method            fapswitch 2.2
_symmetry_space_group_name_H-M    P1
_symmetry_Int_Tables_number       1
_space_group_crystal_system       triclinic
_cell_length_a                    10.965688
_cell_length_b                    9.560831
_cell_length_c                    27.826764
_cell_angle_alpha                 90.893208
_cell_angle_beta                  91.097662
_cell_angle_gamma                 89.200258
_cell_volume                      2916.22622811

loop_
_atom_site_label
_atom_site_type_symbol
_atom_type_description
_atom_site_fract_x
_atom_site_fract_y
_atom_site_fract_z
_atom_type_partial_charge
C1    C     C_R   0.259052 0.500188 0.499185 0.548005
C2    C     C_R   0.416032 0.405480 0.973890 0.007094
C3    C     C_R   0.629862 0.474500 0.977105 0.012368
C4    C     C_R   0.501492 0.498786 0.407666 0.553869
C5    C     C_R   0.523744 0.440694 0.950034 0.039081
C6    C     C_R   0.315906 0.357549 0.946186 -0.126799
C7    C     C_R   0.317374 0.353290 0.896009 0.063319
C8    C     C_R   0.423551 0.394619 0.871748 0.010518
C9    C     C_R   0.525020 0.444272 0.898999 -0.049371
C10   C     C_R   0.627303 0.498883 0.875409 0.014292
C11   C     C_R   0.625981 0.498921 0.824538 0.417278
C12   C     C_R   0.500529 0.610604 0.277713 -0.054685
C13   C     C_R   0.433443 0.385924 0.821264 0.426229
C14   C     C_R   0.426660 0.535609 0.726937 -0.045437
C15   C     C_R   0.419315 0.561743 0.677351 0.010581
C16   C     C_R   0.738667 0.498625 0.496975 0.542475
C17   C     C_R   0.614484 0.440085 0.668920 -0.070617
C18   C     C_R   0.617369 0.412780 0.718112 -0.054190
C19   C     C_R   0.523180 0.459658 0.747335 0.187351
C20   C     C_R   0.410990 0.422784 0.024685 0.004964
C21   C     C_R   0.520325 0.442541 0.051578 0.028335
C22   C     C_R   0.632797 0.454865 0.027685 0.010363
C23   C     C_R   0.515023 0.481501 0.253855 0.225410
C24   C     C_R   0.299839 0.423121 0.049291 -0.128086
C25   C     C_R   0.739052 0.452177 0.105549 -0.089437
C26   C     C_R   0.725927 0.538342 0.953514 -0.150898
C27   C     C_R   0.725464 0.553398 0.903747 -0.011027
C28   C     C_R   0.500163 0.501532 0.592755 0.590098
C29   C     C_R   0.742807 0.446287 0.055530 -0.025301
C30   C     C_3   0.061996 0.600806 0.538698 -0.008606
C31   C     C_3   0.067126 0.340919 0.504550 -0.001772
C32   C     C_3   0.921481 0.604690 0.532423 -0.205631
C33   C     C_3   0.926853 0.351040 0.510285 -0.218892
C34   C     C_R   0.517424 0.450554 0.102541 -0.046205
C35   C     C_3   0.066585 0.549600 0.448250 -0.218080
C36   C     C_3   0.118792 0.498112 0.498025 -0.039065
C37   C     C_3   0.875603 0.495970 0.495845 -0.054523
C38   C     C_3   0.924893 0.535116 0.445825 -0.247572
C39   C     C_3   0.616893 0.082398 0.521593 0.037970
C40   C     C_3   0.618692 0.915167 0.520267 0.032361
C41   C     C_3   0.397793 0.086342 0.528324 -0.113397
C42   C     C_3   0.402550 0.922343 0.530778 -0.114658
C43   C     C_3   0.488828 0.080589 0.451176 -0.043265
C44   C     C_3   0.482830 0.913545 0.451513 -0.037206
C45   C     C_R   0.404848 0.450147 0.126788 0.006756
C46   C     C_R   0.407158 0.468402 0.177459 0.423362
C47   C     C_R   0.624674 0.470668 0.179453 0.415153
C48   C     C_R   0.526369 0.358176 0.280470 0.036626
C49   C     C_R   0.522693 0.365017 0.330550 -0.128683
C50   C     C_R   0.496580 0.617080 0.327832 -0.133069
C51   C     C_1   0.540731 0.223854 0.256740 0.248505
C52   C     C_1   0.728392 0.423653 0.644807 0.254400
C53   C     C_2   0.827864 0.633297 0.884090 0.660808
C54   C     C_1   0.859593 0.411965 0.034725 0.231545
C55   C     C_2   0.097089 0.754604 0.538351 0.569573
C56   C     C_R   0.295283 0.435051 0.099331 0.064213
C57   C     C_2   0.088601 0.235578 0.462886 0.577728
C58   C     C_1   0.090766 0.549293 0.587480 0.250747
C59   C     C_1   0.118906 0.274259 0.548507 0.229565
C60   C     C_2   0.652291 0.139974 0.571063 0.638730
C61   C     C_2   0.664143 0.854106 0.568300 0.634420
C62   C     C_1   0.386642 0.142574 0.422770 0.243817
C63   C     C_1   0.369480 0.858848 0.428328 0.261608
C64   C     C_2   0.173379 0.425136 0.120839 0.642580
C65   C     C_2   0.321743 0.661250 0.661698 0.610941
C66   C     C_2   0.200892 0.317950 0.871020 0.638606
C67   C     C_R   0.627721 0.459651 0.129233 0.016656
C68   C     C_R   0.506629 0.494113 0.354709 0.001054
C69   C     C_R   0.510765 0.503466 0.646629 -0.017497
Cu1   Cu    Cu3+1 0.499860 0.642410 0.500020 0.990288
Cu2   Cu    Cu3+1 0.499860 0.357590 0.500020 0.973323
H1    H     H_    0.485158 0.718043 0.345408 0.137697
H2    H     H_    0.089529 0.658382 0.440577 0.201894
H3    H     H_    0.110585 0.494788 0.417745 0.187272
H4    H     H_    0.882911 0.635625 0.433815 0.132644
H5    H     H_    0.898119 0.454389 0.418632 0.180440
H6    H     H_    0.692259 0.114209 0.497920 0.089999
H7    H     H_    0.690858 0.884360 0.494277 0.087205
H8    H     H_    0.392642 0.133858 0.564654 0.207005
H9    H     H_    0.412267 0.893960 0.568420 0.220033
H10   H     H_    0.571333 0.108294 0.430818 0.082390
H11   H     H_    0.558303 0.873468 0.428702 0.092762
H12   H     H_    0.824151 0.448247 0.126063 0.193058
H13   H     H_    0.311075 0.118054 0.511159 0.186548
H14   H     H_    0.314312 0.881795 0.519470 0.198377
H15   H     H_    0.358940 0.579213 0.750978 0.198582
H16   H     H_    0.234370 0.321626 0.962965 0.146913
H17   H     H_    0.213610 0.417370 0.030093 0.151863
H18   H     H_    0.532743 0.269110 0.350539 0.128405
H19   H     H_    0.956274 0.499066 0.909800 0.312616
H20   H     H_    0.089824 0.941192 0.573351 0.368712
H21   H     H_    0.121709 0.034821 0.442820 0.378008
H22   H     H_    0.613838 0.157444 0.641657 0.350630
H23   H     H_    0.798628 0.587686 0.974052 0.143354
H24   H     H_    0.633838 0.809348 0.637795 0.353714
H25   H     H_    0.061602 0.318443 0.163277 0.356896
H26   H     H_    0.267184 0.805559 0.615070 0.357709
H27   H     H_    0.069044 0.375480 0.823466 0.372364
H28   H     H_    0.696237 0.360817 0.734240 0.175264
H29   H     H_    0.874833 0.593863 0.567229 0.186004
H30   H     H_    0.902452 0.334249 0.548046 0.200247
H31   H     H_    0.491737 0.705866 0.257317 0.152334
H32   H     H_    0.890537 0.707345 0.517869 0.199875
H33   H     H_    0.879731 0.267098 0.489142 0.162619
N1    N     N_R   0.515712 0.475454 0.202281 -0.402766
N2    N     N_1   0.308721 0.190239 0.399398 -0.229183
N3    N     N_1   0.281640 0.816574 0.409908 -0.276683
N4    N     N_R   0.529709 0.444294 0.798859 -0.399324
N5    N     N_3   0.500250 0.143650 0.501060 -0.300047
N6    N     N_3   0.500250 0.856350 0.501060 -0.297409
N7    N     N_1   0.552215 0.116164 0.237679 -0.257334
N8    N     N_1   0.822757 0.412243 0.627395 -0.241683
N9    N     N_1   0.952931 0.383960 0.018106 -0.271282
N10   N     N_1   0.109517 0.507657 0.625764 -0.167467
N11   N     N_1   0.158242 0.221686 0.582764 -0.259852
O1    O     O_R   0.317570 0.620260 0.500030 -0.466269
O2    O     O_2   0.349471 0.316869 0.794387 -0.417644
O3    O     O_2   0.729761 0.477037 0.205417 -0.470539
O4    O     O_2   0.719913 0.552273 0.800630 -0.434890
O5    O     O_2   0.806865 0.741700 0.862638 -0.370561
O6    O     O_R   0.948931 0.590597 0.892015 -0.612519
O7    O     O_2   0.123219 0.810825 0.501066 -0.535762
O8    O     O_R   0.072748 0.838780 0.578769 -0.643134
O9    O     O_2   0.061607 0.264760 0.421434 -0.516326
O10   O     O_R   0.119380 0.096353 0.472795 -0.689482
O11   O     O_2   0.757612 0.174347 0.578516 -0.513380
O12   O     O_R   0.317570 0.379740 0.500030 -0.511875
O13   O     O_R   0.573063 0.133116 0.609708 -0.670599
O14   O     O_2   0.773043 0.831632 0.574110 -0.514898
O15   O     O_R   0.589093 0.845321 0.608142 -0.649683
O16   O     O_2   0.093534 0.510495 0.110387 -0.491983
O17   O     O_R   0.148493 0.314953 0.151449 -0.626345
O18   O     O_2   0.241566 0.697254 0.689540 -0.439390
O19   O     O_R   0.323256 0.721106 0.616758 -0.679353
O20   O     O_2   0.147155 0.211723 0.881470 -0.468314
O21   O     O_R   0.149508 0.409858 0.837404 -0.600984
O22   O     O_R   0.499900 0.620250 0.430280 -0.521686
O23   O     O_R   0.499900 0.379750 0.430280 -0.513571
O24   O     O_R   0.682190 0.620260 0.500010 -0.525832
O25   O     O_R   0.682190 0.379740 0.500010 -0.515048
O26   O     O_R   0.499860 0.620280 0.569750 -0.431648
O27   O     O_R   0.499860 0.379720 0.569750 -0.481971
O28   O     O_2   0.302747 0.480630 0.202050 -0.425713

loop_
_geom_bond_atom_site_label_1
_geom_bond_atom_site_label_2
_ccdc_geom_bond_type
C10   C27   A    
C26   H23   S    
C46   N1    A    
C35   H3    S    
C17   C69   A    
C8    C13   A    
C49   C68   A    
C33   H33   S    
C41   C42   S    
C6    C7    A    
C28   C69   S    
C25   C67   A    
C11   O4    S    
H21   O10   S    
C53   O5    D    
C7    C8    A    
C38   H5    S    
C45   C46   A    
C42   H9    S    
C12   C23   A    
C26   C27   A    
C33   H30   S    
C39   H6    S    
C22   C29   A    
C44   H11   S    
C57   O10   S    
C29   C54   S    
C52   N8    T    
C15   C65   S    
C54   N9    T    
H27   O21   S    
C18   C19   A    
C31   C59   S    
C50   H1    S    
Cu1   N6    S    
C4    O22   A    
C30   C58   S    
C48   C51   S    
C20   C24   A    
C45   C56   A    
C8    C9    A    
C47   N1    A    
H24   O15   S    
C31   C33   S    
Cu1   Cu2   S    
C1    O1    A    
C9    C10   A    
C65   O19   S    
C61   O14   D    
C16   C37   S    
H25   O17   S    
C19   N4    S    
C55   O7    D    
Cu1   O24   S    
C41   N5    S    
C21   C22   A    
Cu2   O12   S    
C2    C6    A    
H26   O19   S    
C13   N4    A    
C17   C52   S    
C47   C67   A    
Cu2   O23   S    
C38   H4    S    
C47   O3    S    
C44   C63   S    
C25   C29   A    
C15   C69   A    
C55   O8    S    
C2    C20   A    
C64   O17   S    
C60   O13   S    
C35   C38   S    
C14   H15   S    
C49   H18   S    
C39   C40   S    
C4    C68   S    
C40   N6    S    
C21   C34   A    
Cu1   O1    S    
C41   H13   S    
C33   C37   S    
C6    H16   S    
C32   H29   S    
C35   C36   S    
C43   C44   S    
C12   H31   S    
C37   C38   S    
C12   C50   A    
C64   O16   D    
C56   C64   S    
C17   C18   A    
C32   H32   S    
C42   H14   S    
C32   C37   S    
C24   H17   S    
C46   O28   S    
C34   C45   A    
C61   O15   S    
Cu2   O27   S    
C66   O21   S    
C48   C49   A    
C43   H10   S    
H19   O6    S    
C40   H7    S    
C16   O24   A    
C28   O27   A    
C18   H28   S    
C63   N3    T    
C16   O25   A    
C25   H12   S    
C35   H2    S    
Cu1   O26   S    
C51   N7    T    
C23   C48   A    
C14   C15   A    
C14   C19   A    
C3    C26   A    
C1    O12   A    
C5    C9    A    
C3    C5    A    
C34   C67   A    
C41   H8    S    
C13   O2    S    
C27   C53   S    
Cu2   O25   S    
C62   N2    T    
C24   C56   A    
C30   C55   S    
C30   C36   S    
C31   C57   S    
C60   O11   D    
C42   N6    S    
H22   O13   S    
C53   O6    S    
C7    C66   S    
C30   C32   S    
C39   C60   S    
Cu2   N5    S    
C10   C11   A    
C40   C61   S    
C4    O23   A    
C66   O20   D    
C2    C5    A    
C39   N5    S    
C20   C21   A    
C43   C62   S    
Cu1   O22   S    
C59   N11   T    
C11   N4    A    
C58   N10   T    
C31   C36   S    
C3    C22   A    
H20   O8    S    
C28   O26   A    
C43   N5    S    
C50   C68   A    
C65   O18   D    
C1    C36   S    
C44   N6    S    
C57   O9    D    
C23   N1    S    
