data_mof_unit_25857.cif
_audit_creation_date              2012-12-11T14:36:13-0500
_audit_creation_method            fapswitch 2.2
_symmetry_space_group_name_H-M    P1
_symmetry_Int_Tables_number       1
_space_group_crystal_system       triclinic
_cell_length_a                    13.486699
_cell_length_b                    13.490888
_cell_length_c                    27.502428
_cell_angle_alpha                 90.915529
_cell_angle_beta                  90.261643
_cell_angle_gamma                 60.032011
_cell_volume                      4334.40058172

loop_
_atom_site_label
_atom_site_type_symbol
_atom_type_description
_atom_site_fract_x
_atom_site_fract_y
_atom_site_fract_z
_atom_type_partial_charge
C1    C     C_R   0.620814 0.102017 0.569881 0.545964
C2    C     C_1   0.631147 0.732578 0.616489 -0.015941
C3    C     C_3   0.707891 0.558449 0.767403 -0.099525
C4    C     C_3   0.678551 0.654086 0.805474 0.050345
C5    C     C_3   0.596405 0.639167 0.739922 -0.097254
C6    C     C_3   0.662922 0.683436 0.710820 0.054689
C7    C     C_3   0.567269 0.734342 0.778721 -0.106943
C8    C     C_3   0.633582 0.779062 0.748896 -0.107520
C9    C     C_1   0.687594 0.633160 0.857855 -0.063359
C10   C     C_1   0.649294 0.705266 0.658510 -0.058517
C11   C     C_3   0.083330 0.144446 0.736581 -0.119488
C12   C     C_R   0.599636 0.779751 0.568823 0.545072
C13   C     C_3   0.168402 0.062137 0.774913 -0.149099
C14   C     C_1   0.094116 0.201505 0.901637 -0.017401
C15   C     C_1   0.231817 0.137343 0.617978 -0.013149
C16   C     C_3   0.059093 0.248725 0.769500 -0.136663
C17   C     C_3   0.144052 0.166628 0.807119 0.058321
C18   C     C_3   0.158224 0.255979 0.744841 -0.067198
C19   C     C_3   0.182120 0.151841 0.712568 0.015787
C20   C     C_3   0.241894 0.172924 0.782628 0.318159
C21   C     C_3   0.268379 0.068558 0.749823 -0.113587
C22   C     C_1   0.120420 0.181494 0.859385 -0.042003
C23   C     C_R   0.278300 0.121727 0.569841 0.544891
C24   C     C_1   0.204935 0.145278 0.660209 -0.055695
C25   C     C_3   0.652608 0.277714 0.738041 -0.105677
C26   C     C_3   0.568280 0.273625 0.775013 -0.091483
C27   C     C_1   0.694095 0.209445 0.901857 -0.016196
C28   C     C_1   0.638918 0.136925 0.617041 -0.016828
C29   C     C_3   0.754750 0.194968 0.770138 -0.101296
C30   C     C_3   0.670131 0.190557 0.806236 0.048165
C31   C     C_3   0.761768 0.090869 0.742290 -0.095062
C32   C     C_3   0.659883 0.173733 0.711063 0.050169
C33   C     C_3   0.677481 0.086744 0.779078 -0.114874
C34   C     C_R   0.621930 0.098844 0.430944 0.546272
C35   C     C_3   0.575464 0.169565 0.747136 -0.102660
C36   C     C_1   0.679507 0.199757 0.859122 -0.062185
C37   C     C_1   0.650405 0.157806 0.658770 -0.058959
C38   C     C_R   0.736172 0.702035 0.359971 -0.137577
C39   C     C_R   0.748490 0.683742 0.309669 0.016205
C40   C     C_R   0.763554 0.662022 0.207892 0.016233
C41   C     C_R   0.853583 0.658962 0.234819 -0.132768
C42   C     C_R   0.845758 0.670553 0.285453 -0.135174
C43   C     C_R   0.773518 0.641689 0.157708 -0.136864
C44   C     C_R   0.684506 0.638986 0.132131 -0.005659
C45   C     C_R   0.602053 0.775365 0.430477 0.546203
C46   C     C_R   0.554635 0.704484 0.356641 -0.129199
C47   C     C_R   0.562158 0.693620 0.306552 0.013712
C48   C     C_R   0.658598 0.684808 0.282760 0.065345
C49   C     C_R   0.471372 0.698243 0.279856 -0.132072
C50   C     C_R   0.475137 0.695962 0.229421 -0.132946
C51   C     C_R   0.571652 0.684643 0.205435 0.013847
C52   C     C_R   0.664368 0.677999 0.232007 0.065091
C53   C     C_R   0.580213 0.671314 0.155410 -0.130623
C54   C     C_R   0.636319 0.718301 0.383019 -0.003527
C55   C     C_R   0.216477 0.054759 0.357822 -0.134181
C56   C     C_R   0.277362 0.120734 0.431219 0.547852
C57   C     C_R   0.189154 0.069147 0.308379 0.014595
C58   C     C_R   0.149265 0.095326 0.207747 0.015476
C59   C     C_R   0.172793 0.993006 0.230018 -0.126204
C60   C     C_R   0.193608 0.979644 0.279993 -0.125038
C61   C     C_R   0.125347 0.111279 0.158013 -0.133655
C62   C     C_R   0.100252 0.215158 0.136703 -0.003177
C63   C     C_R   0.178635 0.250760 0.363882 -0.128484
C64   C     C_R   0.155655 0.264931 0.314535 0.013588
C65   C     C_R   0.162702 0.173295 0.286393 0.062471
C66   C     C_R   0.132478 0.367112 0.292501 -0.125359
C67   C     C_3   0.774264 0.603137 0.737514 -0.098828
C68   C     C_R   0.118575 0.377838 0.242437 -0.124395
C69   C     C_R   0.124676 0.287683 0.214192 0.012311
C70   C     C_R   0.145655 0.185283 0.236083 0.062393
C71   C     C_R   0.105656 0.300381 0.164576 -0.127629
C72   C     C_R   0.216560 0.143845 0.384974 -0.005045
C73   C     C_R   0.569863 0.237577 0.363201 -0.133818
C74   C     C_R   0.575266 0.256201 0.313549 0.015761
C75   C     C_R   0.585679 0.289391 0.213359 0.013022
C76   C     C_R   0.511625 0.381236 0.243783 -0.126973
C77   C     C_R   0.505548 0.364456 0.293502 -0.127483
C78   C     C_3   0.745125 0.698367 0.776437 -0.102731
C79   C     C_R   0.598298 0.306132 0.164203 -0.134833
C80   C     C_R   0.677654 0.213972 0.135156 -0.004851
C81   C     C_R   0.720306 0.039338 0.352175 -0.126599
C82   C     C_R   0.723239 0.055154 0.302709 0.010155
C83   C     C_R   0.650406 0.163731 0.283111 0.062478
C84   C     C_R   0.795926 0.962832 0.272446 -0.125926
C85   C     C_R   0.796832 0.977743 0.222643 -0.126197
C86   C     C_R   0.727239 0.085946 0.202886 0.013632
C87   C     C_R   0.653520 0.179586 0.233038 0.062721
C88   C     C_R   0.735825 0.103280 0.153910 -0.129123
C89   C     C_1   0.696800 0.607480 0.900069 -0.018159
C90   C     C_R   0.641208 0.128588 0.382377 -0.001145
C91   C     C_R   0.048784 0.236222 0.949737 0.543455
C92   C     C_R   0.711513 0.562788 0.948150 0.543125
C93   C     C_R   0.722602 0.225684 0.950593 0.543964
C94   C     C_R   0.047286 0.245972 0.088736 0.546912
C95   C     C_R   0.707484 0.575968 0.086111 0.545203
C96   C     C_R   0.718296 0.234364 0.089317 0.548064
Cr1   Cr    Cr6+3 0.417550 0.169090 0.500530 1.022312
Cr2   Cr    Cr6+3 0.669180 0.913420 0.499920 1.020306
Cr3   Cr    Cr6+3 0.413260 0.917540 0.499520 1.020508
Cr4   Cr    Cr6+3 0.909170 0.177380 0.020380 1.019592
Cr5   Cr    Cr6+3 0.912710 0.429210 0.018220 1.022338
Cr6   Cr    Cr6+3 0.657170 0.432570 0.019030 1.021170
H1    H     H_    0.805730 0.723260 0.792074 0.105262
H2    H     H_    0.155231 0.335165 0.732194 0.112532
H3    H     H_    0.973003 0.322502 0.777936 0.105155
H4    H     H_    0.488368 0.348276 0.789063 0.123796
H5    H     H_    0.642891 0.355816 0.720694 0.101987
H6    H     H_    0.501293 0.160118 0.736163 0.124533
H7    H     H_    0.687263 0.008430 0.796263 0.092905
H8    H     H_    0.841627 0.016070 0.728279 0.106482
H9    H     H_    0.828870 0.205428 0.780229 0.103631
H10   H     H_    0.853542 0.618639 0.139544 0.119106
H11   H     H_    0.859146 0.548917 0.720089 0.104735
H12   H     H_    0.800124 0.711132 0.380461 0.116458
H13   H     H_    0.929856 0.647528 0.216734 0.092070
H14   H     H_    0.915589 0.669212 0.305639 0.093178
H15   H     H_    0.509958 0.672586 0.135506 0.127822
H16   H     H_    0.404103 0.699840 0.209228 0.095203
H17   H     H_    0.396760 0.705558 0.297971 0.092464
H18   H     H_    0.478304 0.714575 0.374302 0.128466
H19   H     H_    0.121382 0.045336 0.136474 0.119129
H20   H     H_    0.245058 0.972221 0.374149 0.123284
H21   H     H_    0.175719 0.923240 0.208779 0.100725
H22   H     H_    0.603216 0.870051 0.740588 0.093594
H23   H     H_    0.213454 0.899377 0.296412 0.098965
H24   H     H_    0.086210 0.381012 0.148515 0.129768
H25   H     H_    0.102426 0.456774 0.225830 0.098110
H26   H     H_    0.127740 0.437637 0.313820 0.100342
H27   H     H_    0.552918 0.391777 0.149651 0.126465
H28   H     H_    0.508421 0.306324 0.386498 0.116482
H29   H     H_    0.459163 0.466069 0.229207 0.106167
H30   H     H_    0.447456 0.436311 0.316334 0.103200
H31   H     H_    0.795668 0.031740 0.131287 0.126706
H32   H     H_    0.482343 0.788637 0.796113 0.101865
H33   H     H_    0.854184 0.905496 0.199790 0.104009
H34   H     H_    0.852108 0.879244 0.287339 0.105918
H35   H     H_    0.774767 0.954425 0.366439 0.131525
H36   H     H_    0.535645 0.614356 0.724383 0.104439
H37   H     H_    0.738434 0.467360 0.775636 0.099060
H38   H     H_    0.171962 0.983002 0.787973 0.108685
H39   H     H_    0.017680 0.132651 0.717011 0.114850
H40   H     H_    0.352935 0.993655 0.740370 0.091208
O1    O     O_R   0.301710 0.195650 0.554160 -0.508491
O2    O     O_R   0.658900 0.818120 0.449760 -0.502692
O3    O     O_R   0.503220 0.801620 0.445520 -0.524018
O4    O     O_R   0.319370 0.022040 0.450020 -0.502072
O5    O     O_3   0.499990 0.000010 0.499990 -0.244159
O6    O     O_R   0.818720 0.150820 0.967160 -0.509469
O7    O     O_R   0.006410 0.181720 0.970200 -0.498281
O8    O     O_R   0.027890 0.334070 0.964920 -0.501708
O9    O     O_R   0.809600 0.521790 0.967960 -0.494465
O10   O     O_R   0.635520 0.542770 0.964420 -0.508599
O11   O     O_R   0.665950 0.325030 0.970100 -0.492907
O12   O     O_R   0.522390 0.158990 0.550460 -0.494992
O13   O     O_R   0.816620 0.158530 0.074540 -0.519566
O14   O     O_R   0.004460 0.188870 0.069750 -0.499461
O15   O     O_R   0.025800 0.341780 0.072300 -0.523046
O16   O     O_R   0.807650 0.528950 0.067500 -0.502748
O17   O     O_R   0.633420 0.550490 0.071810 -0.523710
O18   O     O_R   0.664000 0.332180 0.069640 -0.501306
O19   O     O_3   0.826350 0.346390 0.019210 -0.243817
O20   O     O_R   0.694390 0.003530 0.554040 -0.506492
O21   O     O_R   0.657700 0.819660 0.549320 -0.494998
O22   O     O_R   0.501930 0.803280 0.552920 -0.507458
O23   O     O_R   0.318170 0.023580 0.549580 -0.494577
O24   O     O_R   0.303010 0.193990 0.446760 -0.520018
O25   O     O_R   0.523600 0.157450 0.450900 -0.498884
O26   O     O_R   0.695690 0.001860 0.446640 -0.523235
O27   O     O_3   0.315945 0.200040 0.808875 -0.573973
C97   C     C_3   0.419220 0.101081 0.821614 0.001956
H41   H     H_    0.478968 0.130576 0.833674 0.167457
H42   H     H_    0.460709 0.042615 0.789984 0.102796
C98   C     C_3   0.403878 0.037386 0.863998 -0.271187
H43   H     H_    0.354256 0.099266 0.893641 0.184307
H44   H     H_    0.356642 0.993944 0.851452 0.150508
C99   C     C_3   0.519503 0.947544 0.884033 -0.483604
H45   H     H_    0.573304 0.887938 0.854588 0.154104
H46   H     H_    0.506461 0.897777 0.912549 0.155148
H47   H     H_    0.565048 0.989445 0.900335 0.151235
H48   H     H_    0.176642 0.320443 0.384920 0.129067

loop_
_geom_bond_atom_site_label_1
_geom_bond_atom_site_label_2
_ccdc_geom_bond_type
C83   C87   A    
C8    C78   S    
C40   C41   A    
C95   O16   A    
C41   C42   A    
C66   C68   A    
C74   C83   A    
C43   C44   A    
C2    C12   S    
C26   H4    S    
C34   C90   S    
Cr2   O21   S    
C5    H36   S    
C47   C49   A    
C49   H17   S    
C85   C86   A    
C81   H35   S    
C11   C19   S    
C20   C21   S    
C95   O17   A    
C60   H23   S    
C19   C21   S    
Cr4   O6    S    
C21   H40   S    
C5    C6    S    
C38   H12   S    
C76   H29   S    
C86   C88   A    
C96   O13   A    
Cr2   O5    S    
Cr1   O24   S    
C79   H27   S    
Cr5   O8    S    
C17   C20   S    
C58   C70   A    
C93   O6    A    
C61   H19   S    
C18   C19   S    
C73   C74   A    
C69   C71   A    
Cr1   O1    S    
C35   H6    S    
C23   O23   A    
C44   C53   A    
C40   C43   A    
C97   H41   S    
C31   C32   S    
Cr3   O23   S    
C68   C69   A    
C56   C72   S    
C74   C77   A    
C92   O10   A    
C45   O2    A    
C31   C33   S    
C71   H24   S    
Cr4   O19   S    
C80   C96   S    
Cr1   O25   S    
Cr5   O19   S    
C55   C72   A    
Cr4   O14   S    
C25   C32   S    
C15   C23   S    
C20   O27   S    
Cr3   O3    S    
C55   H20   S    
Cr5   O15   S    
C59   C60   A    
C80   C88   A    
C59   H21   S    
Cr1   O5    S    
C23   O1    A    
C1    O12   A    
C67   C78   S    
C41   H13   S    
C4    C7    S    
C34   O26   A    
Cr2   O20   S    
C81   C82   A    
C39   C42   A    
C99   H47   S    
C25   C29   S    
C46   H18   S    
C51   C52   A    
O27   C97   S    
C7    C8    S    
C76   C77   A    
C7    H32   S    
C9    C89   T    
C5    C7    S    
C86   C87   A    
C16   C17   S    
C57   C60   A    
C6    C8    S    
C25   C26   S    
C98   H43   S    
C93   O11   A    
Cr5   O9    S    
C63   H48   S    
Cr3   O22   S    
C51   C53   A    
C77   H30   S    
C64   C66   A    
C75   C76   A    
C32   C35   S    
C4    C78   S    
C29   C30   S    
C12   O22   A    
C11   C16   S    
C47   C48   A    
C38   C54   A    
C61   C62   A    
C46   C54   A    
C92   O9    A    
C50   C51   A    
C13   C21   S    
C1    C28   S    
C18   H2    S    
C32   C37   S    
C84   C85   A    
C89   C92   S    
C11   H39   S    
Cr6   O11   S    
C98   H44   S    
C16   H3    S    
C85   H33   S    
C81   C90   A    
Cr4   O13   S    
C8    H22   S    
C99   H45   S    
C96   O18   A    
Cr3   O4    S    
C45   C54   S    
C26   C30   S    
C94   O15   A    
C82   C84   A    
C62   C94   S    
Cr4   O7    S    
C49   C50   A    
C45   O3    A    
C58   C59   A    
C3    H37   S    
Cr5   O16   S    
C13   H38   S    
Cr6   O18   S    
C3    C4    S    
C2    C10   T    
C6    C67   S    
C25   H5    S    
C91   O7    A    
C98   C99   S    
C42   H14   S    
Cr3   O5    S    
C73   H28   S    
C84   H34   S    
C30   C33   S    
Cr2   O2    S    
C78   H1    S    
C50   H16   S    
C29   H9    S    
C16   C18   S    
C3    C67   S    
C57   C65   A    
C63   C64   A    
C3    C5    S    
Cr1   O12   S    
Cr6   O17   S    
C6    C10   S    
C91   O8    A    
C18   C20   S    
C30   C36   S    
C27   C36   T    
C17   C22   S    
C13   C17   S    
C64   C65   A    
C14   C22   T    
C55   C57   A    
C19   C24   S    
C67   H11   S    
C29   C31   S    
C44   C95   S    
C40   C52   A    
C15   C24   T    
C11   C13   S    
C38   C39   A    
C97   H42   S    
C28   C37   T    
C58   C61   A    
Cr6   O19   S    
C99   H46   S    
C33   C35   S    
C31   H8    S    
C66   H26   S    
C62   C71   A    
C53   H15   S    
C56   O4    A    
C69   C70   A    
C14   C91   S    
C46   C47   A    
C27   C93   S    
C1    O20   A    
C68   H25   S    
C79   C80   A    
C26   C35   S    
C48   C52   A    
C33   H7    S    
C63   C72   A    
C73   C90   A    
C94   O14   A    
C82   C83   A    
C43   H10   S    
C56   O24   A    
C34   O25   A    
C88   H31   S    
C4    C9    S    
C75   C79   A    
Cr2   O26   S    
C75   C87   A    
C65   C70   A    
Cr6   O10   S    
C39   C48   A    
C12   O21   A    
C97   C98   S    
