data_mof_unit_38880.cif
_audit_creation_date              2012-10-26T19:20:39-0400
_audit_creation_method            fapswitch 2.2
_symmetry_space_group_name_H-M    P1
_symmetry_Int_Tables_number       1
_space_group_crystal_system       triclinic
_cell_length_a                    10.865535
_cell_length_b                    11.013932
_cell_length_c                    9.991515
_cell_angle_alpha                 110.67842
_cell_angle_beta                  99.40133
_cell_angle_gamma                 94.392075
_cell_volume                      1091.91198717

loop_
_atom_site_label
_atom_site_type_symbol
_atom_type_description
_atom_site_fract_x
_atom_site_fract_y
_atom_site_fract_z
_atom_type_partial_charge
C1    C     C_R   0.492903 0.254284 0.440408 0.547431
C2    C     C_R   0.737519 0.501786 0.502042 0.527004
C3    C     C_R   0.179131 0.703516 0.719144 -0.071541
C4    C     C_R   0.820877 0.294702 0.283506 -0.110210
C5    C     C_R   0.146805 0.786129 0.845895 0.138150
C6    C     C_R   0.851846 0.214934 0.153472 0.115798
C7    C     C_R   0.021758 0.774482 0.862192 0.105833
C8    C     C_R   0.976882 0.228391 0.137243 0.141314
C9    C     C_R   0.929764 0.688797 0.744572 -0.111959
C10   C     C_R   0.069135 0.312555 0.254338 -0.084098
C11   C     C_R   0.962607 0.594893 0.620474 -0.023056
C12   C     C_R   0.512464 0.746164 0.559240 0.549310
C13   C     C_R   0.037140 0.404830 0.380118 -0.031904
C14   C     C_R   0.090817 0.598758 0.611904 -0.029220
C15   C     C_R   0.909217 0.399983 0.389833 -0.026035
C16   C     C_R   0.871846 0.498154 0.505653 -0.012046
C17   C     C_R   0.128093 0.501314 0.495080 -0.017349
C18   C     C_3   0.388858 0.367949 0.822428 -0.209798
C19   C     C_3   0.427204 0.236451 0.821763 -0.437792
C20   C     C_3   0.632778 0.607991 0.173162 -0.214920
C21   C     C_3   0.755444 0.554921 0.140634 -0.428263
C22   C     C_2   0.490118 0.114039 0.405799 -0.134162
C23   C     C_2   0.529368 0.886907 0.590789 -0.134415
C24   C     C_2   0.536088 0.069875 0.509182 -0.168530
C25   C     C_2   0.518168 0.930232 0.480602 -0.166576
C26   C     C_2   0.516490 0.509105 0.080536 0.136960
C27   C     C_2   0.490379 0.483766 0.918293 0.140694
C28   C     C_R   0.262445 0.498121 0.498046 0.525415
Cu1   Cu    Cu3+1 0.521920 0.521810 0.644910 0.903363
Cu2   Cu    Cu3+1 0.478080 0.478190 0.355090 0.896288
H1    H     H_    0.274837 0.723157 0.707452 0.173384
H2    H     H_    0.360619 0.390669 0.076827 0.206494
H3    H     H_    0.975955 0.061295 0.965180 0.290352
H4    H     H_    0.969115 0.196291 0.924495 0.225843
H5    H     H_    0.028596 0.815263 0.076639 0.231179
H6    H     H_    0.891247 0.836012 0.989898 0.231471
H7    H     H_    0.214677 0.974848 0.974935 0.261240
H8    H     H_    0.248652 0.864401 0.052932 0.234808
H9    H     H_    0.743743 0.152416 0.950896 0.216472
H10   H     H_    0.671011 0.117268 0.070858 0.228694
H11   H     H_    0.530702 0.238880 0.832680 0.148425
H12   H     H_    0.725938 0.275398 0.297612 0.152615
H13   H     H_    0.399808 0.211878 0.912195 0.143965
H14   H     H_    0.378654 0.156077 0.718422 0.147271
H15   H     H_    0.298129 0.382099 0.859045 0.095683
H16   H     H_    0.362782 0.359177 0.709705 0.219968
H17   H     H_    0.751219 0.452923 0.136645 0.182006
H18   H     H_    0.773293 0.555108 0.034664 0.136589
H19   H     H_    0.836408 0.616801 0.227616 0.138506
H20   H     H_    0.629125 0.702179 0.156748 0.081946
H21   H     H_    0.638136 0.640556 0.290077 0.216875
H22   H     H_    0.834110 0.697975 0.755981 0.150812
H23   H     H_    0.164121 0.304690 0.239093 0.169947
H24   H     H_    0.491514 0.862421 0.367459 0.157876
H25   H     H_    0.583610 0.137304 0.617047 0.153289
H26   H     H_    0.553016 0.955215 0.703785 0.110062
H27   H     H_    0.446916 0.046279 0.295872 0.108591
H28   H     H_    0.617737 0.635888 0.929323 0.201973
N1    N     N_2   0.445130 0.445420 0.137360 -0.354472
N2    N     N_2   0.554870 0.554580 0.862640 -0.353804
N3    N     N_3   0.012272 0.160206 0.001283 -0.643869
N4    N     N_3   0.988798 0.850596 0.997629 -0.646062
N5    N     N_3   0.242488 0.882442 0.956286 -0.637080
N6    N     N_3   0.757503 0.120239 0.038222 -0.639957
O1    O     O_R   0.511700 0.332340 0.577400 -0.501784
O2    O     O_R   0.488300 0.667660 0.422600 -0.511825
O3    O     O_R   0.474680 0.295500 0.332650 -0.498276
O4    O     O_R   0.525320 0.704500 0.667350 -0.493487
O5    O     O_R   0.338170 0.518410 0.622370 -0.522639
O6    O     O_R   0.661830 0.481590 0.377630 -0.519866
O7    O     O_R   0.301150 0.481570 0.377630 -0.504445
O8    O     O_R   0.698850 0.518430 0.622370 -0.504454

loop_
_geom_bond_atom_site_label_1
_geom_bond_atom_site_label_2
_ccdc_geom_bond_type
C21   H18   S    
C1    O1    A    
C24   C25   S    
C7    N4    S    
C12   O2    A    
Cu1   Cu2   S    
C1    O3    A    
C28   O5    A    
C3    C14   A    
H5    N4    S    
Cu1   O4    S    
C2    C16   S    
C11   C16   A    
Cu2   O3    S    
H10   N6    S    
Cu1   N2    S    
C13   C17   A    
C8    N3    S    
C9    C11   A    
Cu1   O8    S    
Cu2   N1    S    
C4    H12   S    
C4    C15   A    
C21   H19   S    
Cu2   O7    S    
C1    C22   S    
H6    N4    S    
C2    O6    A    
C25   H24   S    
C24   H25   S    
C3    H1    S    
H9    N6    S    
C12   O4    A    
C14   C17   A    
C26   C27   S    
Cu2   O2    S    
C9    H22   S    
C20   C26   S    
C22   H27   S    
C20   H20   S    
C2    O8    A    
C18   H16   S    
C22   C24   D    
C8    C10   A    
Cu2   O6    S    
C19   H13   S    
H8    N5    S    
C20   H21   S    
Cu1   O5    S    
C27   N2    D    
C13   C15   A    
C11   C14   A    
Cu1   O1    S    
C28   O7    A    
H28   N2    S    
C15   C16   A    
C18   H15   S    
C7    C9    A    
C23   H26   S    
C23   C25   D    
C19   H14   S    
C5    N5    S    
H3    N3    S    
C18   C19   S    
C26   N1    D    
C6    N6    S    
C12   C23   S    
C5    C7    A    
C10   H23   S    
C6    C8    A    
H2    N1    S    
C21   H17   S    
C20   C21   S    
H7    N5    S    
C17   C28   S    
C4    C6    A    
H4    N3    S    
C18   C27   S    
C19   H11   S    
C3    C5    A    
C10   C13   A    
