data_mof_unit_6873.cif
_audit_creation_date              2012-10-26T20:57:27-0400
_audit_creation_method            fapswitch 2.2
_symmetry_space_group_name_H-M    P1
_symmetry_Int_Tables_number       1
_space_group_crystal_system       triclinic
_cell_length_a                    14.653165
_cell_length_b                    14.541934
_cell_length_c                    15.868424
_cell_angle_alpha                 76.547163
_cell_angle_beta                  102.388517
_cell_angle_gamma                 115.206159
_cell_volume                      2949.69457815

loop_
_atom_site_label
_atom_site_type_symbol
_atom_type_description
_atom_site_fract_x
_atom_site_fract_y
_atom_site_fract_z
_atom_type_partial_charge
C1    C     C_R   0.879778 0.310763 0.517791 0.542368
C2    C     C_R   0.356593 0.926034 0.537448 0.015429
C3    C     C_R   0.673612 0.998951 0.599021 0.021218
C4    C     C_R   0.319947 0.005602 0.510764 0.023191
C5    C     C_R   0.531516 0.055270 0.556264 0.038342
C6    C     C_R   0.461781 0.950971 0.568292 0.033573
C7    C     C_R   0.499802 0.875242 0.609914 -0.152700
C8    C     C_R   0.492533 0.132509 0.534974 -0.146515
C9    C     C_R   0.603658 0.899174 0.626102 -0.142131
C10   C     C_R   0.388817 0.107873 0.514707 -0.131435
C11   C     C_R   0.705420 0.651845 0.343189 -0.143237
C12   C     C_R   0.119892 0.689290 0.488623 0.539965
C13   C     C_R   0.293866 0.353954 0.665179 -0.146082
C14   C     C_R   0.790356 0.627898 0.369498 0.069768
C15   C     C_R   0.206694 0.372191 0.631126 0.072312
C16   C     C_R   0.999780 0.500612 0.660015 0.544394
C17   C     C_R   0.000906 0.500438 0.339957 0.554139
C18   C     C_R   0.717559 0.514927 0.492622 0.028730
C19   C     C_R   0.286130 0.486648 0.511405 0.039897
C20   C     C_R   0.635143 0.546421 0.476958 -0.017631
C21   C     C_R   0.381380 0.479431 0.547145 -0.022571
C22   C     C_R   0.626247 0.611263 0.395893 0.042192
C23   C     C_R   0.778189 0.020304 0.603719 -0.025844
C24   C     C_R   0.384374 0.410108 0.625969 0.029835
C25   C     C_R   0.558032 0.509913 0.534539 -0.009640
C26   C     C_R   0.470881 0.535195 0.504570 -0.008611
C27   C     C_R   0.476440 0.616419 0.432815 0.012149
C28   C     C_R   0.566284 0.455715 0.622563 0.015679
C29   C     C_R   0.540909 0.637621 0.370326 0.049610
C30   C     C_R   0.477519 0.401513 0.666102 0.041075
C31   C     C_3   0.973383 0.407173 0.042599 -0.097472
C32   C     C_3   0.034161 0.602832 0.957051 -0.097715
C33   C     C_3   0.909920 0.450191 0.966312 0.047128
C34   C     C_R   0.215806 0.981733 0.479405 -0.026943
C35   C     C_3   0.097715 0.559894 0.033566 0.045270
C36   C     C_1   0.000017 0.502770 0.749354 -0.039700
C37   C     C_1   0.003147 0.501854 0.250449 -0.033369
C38   C     C_3   0.067295 0.463031 0.992078 -0.099910
C39   C     C_3   0.940354 0.547021 0.007669 -0.099607
C40   C     C_3   0.002629 0.505312 0.916651 0.038948
C41   C     C_3   0.004860 0.504627 0.083048 0.037749
C42   C     C_1   0.001021 0.504347 0.824783 -0.066769
C43   C     C_1   0.004496 0.503284 0.174905 -0.067104
C44   C     C_R   0.811476 0.200708 0.541667 -0.037860
C45   C     C_R   0.846960 0.120743 0.574544 -0.038289
C46   C     C_R   0.186145 0.799852 0.493497 -0.037062
C47   C     C_3   0.802729 0.388796 0.925291 -0.282441
C48   C     C_3   0.727763 0.341627 0.992184 -0.445097
C49   C     C_3   0.204698 0.622759 0.074470 -0.277062
C50   C     C_3   0.279398 0.669414 0.007316 -0.443300
C51   C     C_3   0.433205 0.695233 0.433438 -0.289284
C52   C     C_3   0.514487 0.805410 0.427752 -0.425544
C53   C     C_3   0.670362 0.472572 0.677184 -0.270660
C54   C     C_3   0.696046 0.376575 0.698149 -0.445434
C55   C     C_1   0.042905 0.858340 0.437722 0.241631
C56   C     C_R   0.148942 0.879289 0.470740 -0.034370
C57   C     C_1   0.952832 0.139211 0.577152 0.236767
C58   C     C_1   0.815310 0.938758 0.636470 0.187814
C59   C     C_1   0.177188 0.062634 0.454012 0.195915
C60   C     C_3   0.515741 0.685287 0.276524 -0.277634
C61   C     C_3   0.485648 0.609101 0.213341 -0.445698
C62   C     C_3   0.481618 0.336181 0.756765 -0.267730
C63   C     C_3   0.447883 0.222815 0.749900 -0.431669
C64   C     C_R   0.707513 0.177449 0.536129 -0.158321
C65   C     C_R   0.288876 0.824781 0.526931 -0.157780
C66   C     C_R   0.637602 0.078411 0.565136 0.015766
Cu1   Cu    Cu3+1 0.081740 0.475690 0.522610 0.950124
Cu2   Cu    Cu3+1 0.918260 0.524310 0.477390 0.945846
H1    H     H_    0.275796 0.530736 0.448204 0.122780
H2    H     H_    0.119793 0.429370 0.984602 0.104495
H3    H     H_    0.628081 0.837118 0.656223 0.129475
H4    H     H_    0.363804 0.170762 0.498377 0.134277
H5    H     H_    0.315972 0.763925 0.541934 0.125394
H6    H     H_    0.681597 0.237973 0.506065 0.129523
H7    H     H_    0.450514 0.796459 0.630809 0.109594
H8    H     H_    0.540392 0.212988 0.535166 0.098086
H9    H     H_    0.750685 0.287725 0.045315 0.155327
H10   H     H_    0.724519 0.402891 0.020693 0.151799
H11   H     H_    0.650702 0.298293 0.959700 0.132356
H12   H     H_    0.720489 0.452356 0.541969 0.137129
H13   H     H_    0.777687 0.441270 0.872346 0.144545
H14   H     H_    0.804128 0.326617 0.896747 0.143135
H15   H     H_    0.285879 0.607618 0.982072 0.150599
H16   H     H_    0.253925 0.719426 0.951949 0.155309
H17   H     H_    0.355515 0.717057 0.038349 0.133131
H18   H     H_    0.202360 0.685484 0.101581 0.143428
H19   H     H_    0.230862 0.572216 0.128821 0.145233
H20   H     H_    0.579257 0.809395 0.480132 0.174666
H21   H     H_    0.543595 0.833487 0.363743 0.146968
H22   H     H_    0.480888 0.858047 0.435106 0.153311
H23   H     H_    0.140348 0.333407 0.665093 0.136656
H24   H     H_    0.370184 0.691625 0.379335 0.129533
H25   H     H_    0.402726 0.679908 0.495766 0.143379
H26   H     H_    0.675256 0.330496 0.762355 0.137580
H27   H     H_    0.656196 0.325242 0.648211 0.141393
H28   H     H_    0.779139 0.400527 0.701064 0.155250
H29   H     H_    0.732135 0.539614 0.646309 0.157904
H30   H     H_    0.674338 0.498701 0.738735 0.131099
H31   H     H_    0.547964 0.584831 0.213736 0.153077
H32   H     H_    0.417053 0.539810 0.231414 0.156243
H33   H     H_    0.467725 0.645753 0.145931 0.133020
H34   H     H_    0.851872 0.661639 0.329947 0.138105
H35   H     H_    0.450221 0.706895 0.269245 0.143933
H36   H     H_    0.580293 0.757508 0.256007 0.133161
H37   H     H_    0.368533 0.190853 0.717186 0.161564
H38   H     H_    0.497857 0.213631 0.711821 0.161080
H39   H     H_    0.452161 0.177605 0.816362 0.132518
H40   H     H_    0.556756 0.362491 0.796409 0.138791
H41   H     H_    0.434753 0.344356 0.798603 0.124289
H42   H     H_    0.704751 0.704645 0.282912 0.100045
H43   H     H_    0.288366 0.297193 0.723394 0.098482
H44   H     H_    0.947933 0.327094 0.078505 0.109933
H45   H     H_    0.059430 0.682863 0.921051 0.111777
H46   H     H_    0.887885 0.580719 0.015147 0.105233
N1    N     N_R   0.795440 0.560790 0.443380 -0.230768
N2    N     N_R   0.204560 0.439210 0.556620 -0.228446
N3    N     N_1   0.958525 0.842902 0.411475 -0.293912
N4    N     N_1   0.037073 0.153036 0.579279 -0.269575
N5    N     N_1   0.844888 0.873841 0.662442 -0.297252
N6    N     N_1   0.146493 0.127040 0.433688 -0.267223
O1    O     O_R   0.977900 0.338120 0.529810 -0.480100
O2    O     O_R   0.022100 0.661880 0.470190 -0.479139
O3    O     O_R   0.839850 0.379180 0.491620 -0.512059
O4    O     O_R   0.160150 0.620820 0.508380 -0.512162
O5    O     O_R   0.069010 0.479460 0.640020 -0.505778
O6    O     O_R   0.930990 0.520540 0.359980 -0.502996
O7    O     O_R   0.930960 0.520530 0.601820 -0.500776
O8    O     O_R   0.069040 0.479470 0.398180 -0.491021

loop_
_geom_bond_atom_site_label_1
_geom_bond_atom_site_label_2
_ccdc_geom_bond_type
C23   C58   S    
C55   C56   S    
C38   H2    S    
C34   C56   A    
C59   N6    T    
C23   C45   A    
C22   C29   A    
C27   C29   A    
C49   H19   S    
C36   C42   T    
C21   C26   A    
C2    C65   A    
Cu1   O4    S    
C50   H16   S    
C39   C41   S    
C2    C6    A    
C53   C54   S    
C44   C64   A    
C25   C28   A    
C45   C57   S    
C26   C27   A    
C33   C39   S    
C48   H11   S    
C19   C21   A    
Cu1   O5    S    
C5    C6    A    
C11   C14   A    
C17   O6    A    
C32   C39   S    
C62   H40   S    
C20   C25   A    
C14   N1    A    
C8    H8    S    
C65   H5    S    
C47   H14   S    
C48   H10   S    
C3    C23   A    
C50   H17   S    
C52   H22   S    
C35   C49   S    
C31   H44   S    
C31   C33   S    
C32   H45   S    
C63   H37   S    
C60   H35   S    
C16   O5    A    
C54   H28   S    
C40   C42   S    
C11   H42   S    
C41   C43   S    
C52   H21   S    
C61   H31   S    
Cu1   O1    S    
Cu2   O3    S    
C27   C51   S    
C50   H15   S    
C1    O1    A    
C4    C34   A    
C33   C40   S    
C51   C52   S    
C32   C35   S    
C52   H20   S    
C35   C38   S    
C46   C65   A    
C12   C46   S    
Cu2   O2    S    
C47   H13   S    
C7    H7    S    
C53   H29   S    
C25   C26   A    
Cu1   Cu2   S    
C13   C24   A    
C60   C61   S    
C64   C66   A    
C48   H9    S    
C37   C43   T    
C61   H33   S    
Cu1   N2    S    
C1    O3    A    
C62   C63   S    
C3    C9    A    
C51   H24   S    
C1    C44   S    
C47   C48   S    
C12   O4    A    
C29   C60   S    
C39   H46   S    
C17   C37   S    
C63   H38   S    
Cu2   O7    S    
C54   H27   S    
C51   H25   S    
C18   H12   S    
C20   C22   A    
C30   C62   S    
C34   C59   S    
C33   C47   S    
C19   H1    S    
C3    C66   A    
C4    C10   A    
Cu2   O6    S    
C44   C45   A    
C55   N3    T    
C7    C9    A    
C31   C41   S    
C49   H18   S    
C9    H3    S    
C5    C66   A    
C18   N1    A    
C5    C8    A    
C28   C53   S    
C17   O8    A    
C6    C7    A    
C53   H30   S    
C11   C22   A    
C31   C38   S    
C13   C15   A    
C13   H43   S    
Cu1   O8    S    
C16   C36   S    
C38   C40   S    
C62   H41   S    
C19   N2    A    
C2    C4    A    
C28   C30   A    
C58   N5    T    
C18   C20   A    
C32   C40   S    
C35   C41   S    
C16   O7    A    
C24   C30   A    
C54   H26   S    
C14   H34   S    
Cu2   N1    S    
C15   H23   S    
C61   H32   S    
C12   O2    A    
C8    C10   A    
C49   C50   S    
C21   C24   A    
C46   C56   A    
C64   H6    S    
C15   N2    A    
C60   H36   S    
C63   H39   S    
C57   N4    T    
C10   H4    S    
