data_mof_unit_57843.cif
_audit_creation_date              2012-12-11T14:00:02-0500
_audit_creation_method            fapswitch 2.2
_symmetry_space_group_name_H-M    P1
_symmetry_Int_Tables_number       1
_space_group_crystal_system       triclinic
_cell_length_a                    11.228559
_cell_length_b                    11.204151
_cell_length_c                    18.668034
_cell_angle_alpha                 90.38973
_cell_angle_beta                  89.660205
_cell_angle_gamma                 119.89606
_cell_volume                      2035.98322823

loop_
_atom_site_label
_atom_site_type_symbol
_atom_type_description
_atom_site_fract_x
_atom_site_fract_y
_atom_site_fract_z
_atom_type_partial_charge
C1    C     C_R   0.540679 0.481547 0.851026 0.564440
C2    C     C_R   0.482217 0.541613 0.350315 0.563269
C3    C     C_R   0.060001 0.519521 0.350666 0.571590
C4    C     C_R   0.458062 0.939852 0.350490 0.548131
C5    C     C_2   0.862405 0.419936 0.562827 -0.120440
C6    C     C_2   0.508119 0.503313 0.577192 -0.119648
C7    C     C_2   0.496516 0.005694 0.576866 -0.117588
C8    C     C_2   0.496505 0.996558 0.421415 -0.123690
C9    C     C_2   0.505240 0.501968 0.420309 -0.129958
C10   C     C_2   0.979630 0.494498 0.415881 -0.086134
C11   C     C_2   0.898827 0.366667 0.440809 0.142457
C12   C     C_R   0.520695 0.063225 0.852757 0.563060
C13   C     C_2   0.615590 0.592816 0.458987 0.144876
C14   C     C_2   0.414663 0.030260 0.458720 0.151060
C15   C     C_2   0.393908 0.000767 0.536228 0.155401
C16   C     C_2   0.603659 0.608865 0.537185 0.149678
C17   C     C_2   0.902073 0.349721 0.518773 0.114823
C18   C     C_2   0.032776 0.514498 0.911814 -0.112009
C19   C     C_2   0.485171 0.519572 0.911694 -0.112370
C20   C     C_2   0.496372 0.993655 0.921052 -0.111809
C21   C     C_2   0.501633 0.001645 0.077627 -0.108193
C22   C     C_2   0.467741 0.549268 0.064556 -0.106487
C23   C     C_R   0.940267 0.459336 0.851187 0.572386
C24   C     C_2   0.079532 0.531250 0.064704 -0.109310
C25   C     C_2   0.097101 0.638874 0.025335 -0.164930
C26   C     C_2   0.360737 0.458430 0.025098 -0.172787
C27   C     C_2   0.586207 0.977399 0.036801 -0.167334
C28   C     C_2   0.602858 0.009891 0.960602 -0.165104
C29   C     C_2   0.382430 0.425168 0.951715 -0.163417
C30   C     C_2   0.041280 0.617320 0.952419 -0.163212
C31   C     C_3   0.760972 0.248225 0.336102 -0.287400
C32   C     C_3   0.797659 0.821161 0.415238 -0.237691
C33   C     C_3   0.203668 0.019167 0.410534 -0.244852
C34   C     C_R   0.452308 0.579891 0.138437 0.548940
C35   C     C_3   0.228368 0.071330 0.577606 -0.238229
C36   C     C_3   0.836706 0.780758 0.579267 -0.237768
C37   C     C_3   0.922995 0.147367 0.549182 -0.274820
C38   C     C_R   0.126967 0.547226 0.138136 0.542255
C39   C     C_R   0.457304 0.935877 0.146891 0.540029
C40   C     C_R   0.542964 0.481764 0.648812 0.542931
C41   C     C_R   0.518093 0.060825 0.648837 0.544803
C42   C     C_R   0.863099 0.414082 0.641364 0.587216
Cr1   Cr    Cr6+3 0.464030 0.233680 0.750360 0.997162
Cr2   Cr    Cr6+3 0.766320 0.230350 0.750360 1.004014
Cr3   Cr    Cr6+3 0.769650 0.535970 0.750360 0.998055
Cr4   Cr    Cr6+3 0.233680 0.464030 0.249640 1.022509
Cr5   Cr    Cr6+3 0.230350 0.766320 0.249640 0.999644
Cr6   Cr    Cr6+3 0.535970 0.769650 0.249640 0.990632
H1    H     H_    0.012055 0.582949 0.451227 0.064736
H2    H     H_    0.705318 0.052680 0.937898 0.155961
H3    H     H_    0.321782 0.319171 0.933578 0.150399
H4    H     H_    0.996449 0.678579 0.934990 0.150500
H5    H     H_    0.027460 0.427391 0.042863 0.112058
H6    H     H_    0.571093 0.602515 0.042478 0.116539
H7    H     H_    0.449384 0.052850 0.055767 0.112608
H8    H     H_    0.393363 0.946375 0.943601 0.106558
H9    H     H_    0.540948 0.626843 0.928401 0.105984
H10   H     H_    0.083713 0.458173 0.928031 0.106802
H11   H     H_    0.804614 0.156102 0.420145 0.242301
H12   H     H_    0.411802 0.423113 0.444786 0.077821
H13   H     H_    0.818214 0.337625 0.300198 0.165983
H14   H     H_    0.669711 0.250499 0.357630 0.118973
H15   H     H_    0.726816 0.153885 0.303229 0.154944
H16   H     H_    0.767291 0.628436 0.382204 0.246663
H17   H     H_    0.803339 0.846177 0.357432 0.150691
H18   H     H_    0.903727 0.880173 0.436051 0.104823
H19   H     H_    0.731628 0.855480 0.442582 0.171921
H20   H     H_    0.406167 0.162835 0.382803 0.241065
H21   H     H_    0.183774 0.003446 0.352074 0.148617
H22   H     H_    0.155329 0.078864 0.429870 0.121007
H23   H     H_    0.562660 0.965388 0.447035 0.055586
H24   H     H_    0.154501 0.916754 0.436825 0.178496
H25   H     H_    0.229378 0.891332 0.607381 0.252111
H26   H     H_    0.215036 0.084970 0.635511 0.148123
H27   H     H_    0.129608 0.041327 0.551425 0.101666
H28   H     H_    0.308623 0.171068 0.555442 0.179675
H29   H     H_    0.651320 0.769165 0.610965 0.248391
H30   H     H_    0.901193 0.884724 0.557287 0.104234
H31   H     H_    0.863652 0.708569 0.552539 0.175770
H32   H     H_    0.861955 0.787175 0.637063 0.152242
H33   H     H_    0.065337 0.354132 0.577418 0.267667
H34   H     H_    0.588614 0.015167 0.553595 0.050192
H35   H     H_    0.936499 0.119747 0.604375 0.141375
H36   H     H_    0.973777 0.111380 0.510580 0.123380
H37   H     H_    0.811877 0.093937 0.537175 0.136571
H38   H     H_    0.426058 0.411138 0.553564 0.052221
H39   H     H_    0.817255 0.476940 0.539697 0.060340
H40   H     H_    0.142742 0.741402 0.048630 0.151878
H41   H     H_    0.259055 0.399652 0.048663 0.141159
H42   H     H_    0.641640 0.929559 0.058701 0.151117
N1    N     N_2   0.846475 0.249307 0.394308 -0.481668
N2    N     N_2   0.746486 0.674797 0.424648 -0.496927
N3    N     N_2   0.350356 0.097406 0.423987 -0.501009
N4    N     N_2   0.262488 0.963355 0.566946 -0.497458
N5    N     N_2   0.693112 0.740092 0.569673 -0.498519
N6    N     N_2   0.985145 0.294944 0.543238 -0.486354
O1    O     O_R   0.434100 0.092480 0.829780 -0.516166
O2    O     O_R   0.362730 0.477510 0.175360 -0.502112
O3    O     O_R   0.114780 0.637270 0.175360 -0.489240
O4    O     O_R   0.522490 0.885220 0.175360 -0.517476
O5    O     O_R   0.432250 0.092620 0.670380 -0.508554
O6    O     O_R   0.907380 0.339630 0.670380 -0.507790
O7    O     O_R   0.660370 0.567750 0.670380 -0.518177
O8    O     O_R   0.092620 0.432250 0.329620 -0.467297
O9    O     O_R   0.339630 0.907380 0.329620 -0.500308
O10   O     O_R   0.567750 0.660370 0.329620 -0.500611
O11   O     O_R   0.475790 0.362860 0.676880 -0.514148
O12   O     O_R   0.907520 0.341620 0.829780 -0.518063
O13   O     O_R   0.637140 0.112930 0.676880 -0.520562
O14   O     O_R   0.887070 0.524210 0.676880 -0.513996
O15   O     O_R   0.362860 0.475790 0.323120 -0.494549
O16   O     O_R   0.112930 0.637140 0.323120 -0.509758
O17   O     O_R   0.524210 0.887070 0.323120 -0.512041
O18   O     O_3   0.666667 0.333333 0.749450 -0.265613
O19   O     O_3   0.333333 0.666667 0.250550 -0.280256
O20   O     O_R   0.658380 0.565900 0.829780 -0.518898
O21   O     O_R   0.092480 0.434100 0.170220 -0.523633
O22   O     O_R   0.341620 0.907520 0.170220 -0.527317
O23   O     O_R   0.565900 0.658380 0.170220 -0.513382
O24   O     O_R   0.477510 0.362730 0.824640 -0.493255
O25   O     O_R   0.637270 0.114780 0.824640 -0.497764
O26   O     O_R   0.885220 0.522490 0.824640 -0.490430

loop_
_geom_bond_atom_site_label_1
_geom_bond_atom_site_label_2
_ccdc_geom_bond_type
C3    O8    A    
C5    C42   S    
C35   H26   S    
C31   H13   S    
Cr3   O20   S    
C4    C8    S    
C15   N4    S    
C22   H6    S    
C19   H9    S    
C26   H41   S    
Cr5   O19   S    
C35   H27   S    
Cr4   O19   S    
C37   H37   S    
Cr1   O18   S    
C5    C17   D    
Cr5   O16   S    
Cr2   O25   S    
C25   C30   S    
Cr5   O3    S    
C27   H42   S    
C40   O11   A    
C9    C13   D    
Cr3   O7    S    
C33   H24   S    
C38   O21   A    
C28   H2    S    
Cr3   O18   S    
C18   H10   S    
Cr5   O22   S    
Cr6   O10   S    
C12   O25   A    
C41   O5    A    
Cr5   O9    S    
C24   C38   S    
C37   H36   S    
C18   C30   D    
C1    O20   A    
Cr6   O23   S    
C14   N3    S    
C20   H8    S    
Cr1   O24   S    
Cr2   O13   S    
C7    C15   D    
Cr4   O2    S    
Cr2   O18   S    
C41   O13   A    
Cr4   O15   S    
C31   H14   S    
H25   N4    S    
C22   C34   S    
C42   O6    A    
C23   O26   A    
Cr2   O12   S    
Cr6   O4    S    
C2    O15   A    
C1    C19   S    
C18   C23   S    
C31   H15   S    
C4    O17   A    
C24   C25   D    
C36   H32   S    
C21   H7    S    
H33   N6    S    
Cr2   O6    S    
Cr3   O14   S    
C35   H28   S    
H11   N1    S    
C20   C28   D    
C24   H5    S    
Cr4   O8    S    
C2    O10   A    
C25   H40   S    
C37   N6    S    
C1    O24   A    
Cr1   O5    S    
C21   C39   S    
C3    O16   A    
C12   C20   S    
C17   N6    S    
Cr1   O11   S    
C12   O1    A    
C33   H22   S    
C32   H19   S    
C31   N1    S    
Cr6   O19   S    
C13   N2    S    
C6    C40   S    
H16   N2    S    
C19   C29   D    
C32   H18   S    
C29   H3    S    
C35   N4    S    
C34   O23   A    
C30   H4    S    
C11   C17   S    
C16   N5    S    
C8    C14   D    
Cr1   O1    S    
C38   O3    A    
C36   H31   S    
C33   N3    S    
C33   H21   S    
Cr3   O26   S    
C39   O22   A    
C4    O9    A    
H20   N3    S    
C6    H38   S    
C9    H12   S    
C32   H17   S    
C42   O14   A    
C3    C10   S    
C36   H30   S    
C40   O7    A    
C10   H1    S    
C36   N5    S    
C39   O4    A    
C32   N2    S    
C23   O12   A    
C34   O2    A    
H29   N5    S    
C7    C41   S    
C21   C27   D    
C10   C11   D    
C6    C16   D    
C5    H39   S    
C11   N1    S    
C7    H34   S    
Cr4   O21   S    
C26   C29   S    
C22   C26   D    
C13   C16   S    
C27   C28   S    
C14   C15   S    
C37   H35   S    
C2    C9    S    
Cr6   O17   S    
C8    H23   S    
