data_mof_unit_26471.cif
_audit_creation_date              2012-12-10T17:07:45-0500
_audit_creation_method            fapswitch 2.2
_symmetry_space_group_name_H-M    P1
_symmetry_Int_Tables_number       1
_space_group_crystal_system       triclinic
_cell_length_a                    10.625432
_cell_length_b                    10.657468
_cell_length_c                    10.074501
_cell_angle_alpha                 91.05293
_cell_angle_beta                  90.296519
_cell_angle_gamma                 90.211513
_cell_volume                      1140.62243258

loop_
_atom_site_label
_atom_site_type_symbol
_atom_type_description
_atom_site_fract_x
_atom_site_fract_y
_atom_site_fract_z
_atom_type_partial_charge
C1    C     C_R   0.493249 0.262604 0.498539 0.773542
C2    C     C_2   0.484519 0.599610 0.075354 0.042331
C3    C     C_R   0.257869 0.499397 0.499504 0.818595
C4    C     C_R   0.508231 0.737122 0.501450 0.915910
C5    C     C_R   0.742154 0.499652 0.499956 0.822855
C6    C     C_3   0.072109 0.381246 0.569981 -0.421106
C7    C     C_3   0.927619 0.381565 0.570661 -0.380548
C8    C     C_3   0.073168 0.619052 0.570951 -0.391598
C9    C     C_3   0.070760 0.496860 0.353562 -0.410795
C10   C     C_3   0.121363 0.499135 0.498477 0.192015
C11   C     C_3   0.332384 0.117019 0.662899 0.100487
C12   C     C_3   0.878705 0.499364 0.499124 0.166649
C13   C     C_3   0.232888 0.030321 0.719303 -0.856762
C14   C     C_2   0.616812 0.441795 0.888201 1.185739
C15   C     C_3   0.341340 0.364773 0.119722 0.242529
C16   C     C_3   0.287465 0.277945 0.012019 -0.940274
C17   C     C_3   0.928701 0.619113 0.571422 -0.408335
C18   C     C_3   0.927909 0.497204 0.353890 -0.370004
C19   C     C_2   0.553960 0.932951 0.397723 -0.139588
C20   C     C_2   0.533133 0.868211 0.507184 -0.260132
C21   C     C_2   0.558641 0.068068 0.409553 -0.236734
C22   C     C_2   0.479585 0.128784 0.491657 0.330210
C23   C     C_2   0.461257 0.592287 0.927791 -0.166607
H1    H     H_    0.107579 0.379711 0.674130 0.178401
H2    H     H_    0.106193 0.294658 0.518399 0.163459
H3    H     H_    0.891354 0.294907 0.520010 0.157891
H4    H     H_    0.893925 0.380800 0.675122 0.195424
H5    H     H_    0.108516 0.623146 0.675183 0.180405
H6    H     H_    0.894859 0.623014 0.675831 0.193885
H7    H     H_    0.105309 0.580262 0.299282 0.178106
H8    H     H_    0.104187 0.411297 0.299453 0.162815
H9    H     H_    0.892697 0.412085 0.299374 0.183269
H10   H     H_    0.288996 0.210755 0.649933 0.149465
H11   H     H_    0.411797 0.123477 0.735425 0.177114
H12   H     H_    0.893841 0.581012 0.300015 0.186801
H13   H     H_    0.273141 0.935543 0.734365 0.255163
H14   H     H_    0.199468 0.068459 0.816112 0.218341
H15   H     H_    0.151586 0.022462 0.649850 0.259760
H16   H     H_    0.789507 0.456218 0.972074 0.316309
H17   H     H_    0.282750 0.451358 0.122769 0.112176
H18   H     H_    0.333710 0.316555 0.215816 0.177220
H19   H     H_    0.342002 0.189276 0.007183 0.270937
H20   H     H_    0.187712 0.255605 0.034339 0.211533
H21   H     H_    0.291943 0.324038 0.914127 0.259945
H22   H     H_    0.108384 0.704286 0.520496 0.166487
H23   H     H_    0.893382 0.704383 0.521226 0.158318
H24   H     H_    0.565559 0.888173 0.300831 0.163770
H25   H     H_    0.533755 0.913633 0.604849 0.174636
H26   H     H_    0.629726 0.117493 0.353105 0.135888
H27   H     H_    0.405510 0.665787 0.883589 0.133197
H28   H     H_    0.481104 0.691246 0.123636 0.091338
N1    N     N_2   0.501360 0.501330 0.852150 -0.161260
N2    N     N_2   0.501390 0.501360 0.147810 0.078903
O1    O     O_R   0.499980 0.319060 0.613040 -0.612214
O2    O     O_2   0.634366 0.332569 0.854561 -0.640297
O3    O     O_R   0.712246 0.509146 0.954785 -0.848188
O4    O     O_3   0.468901 0.389828 0.090979 -0.537667
O5    O     O_R   0.500020 0.319100 0.386900 -0.611010
O6    O     O_R   0.314770 0.499960 0.613070 -0.633920
O7    O     O_R   0.314820 0.500000 0.386930 -0.659825
O8    O     O_R   0.499980 0.680900 0.613100 -0.629809
O9    O     O_R   0.500020 0.680940 0.386960 -0.629951
O10   O     O_R   0.685180 0.500000 0.613070 -0.628380
O11   O     O_R   0.685230 0.500040 0.386930 -0.612801
O12   O     O_3   0.372951 0.067258 0.539659 -0.618877
Zn1   Zn    Zn3+2 0.499970 0.499970 0.650990 0.954947
Zn2   Zn    Zn3+2 0.500030 0.500030 0.349010 0.969916

loop_
_geom_bond_atom_site_label_1
_geom_bond_atom_site_label_2
_ccdc_geom_bond_type
C12   C17   S    
C6    C10   S    
C14   O3    S    
C1    O1    A    
C22   O12   S    
C6    C7    S    
O1    Zn1   S    
C4    O9    A    
C17   H6    S    
C9    C10   S    
C9    C18   S    
C13   H14   S    
C19   C20   D    
C11   H10   S    
C5    O11   A    
C6    H1    S    
C3    O7    A    
C21   H26   S    
C14   O2    D    
C23   N1    D    
O10   Zn1   S    
C7    H4    S    
C1    C22   S    
C3    C10   S    
C21   C22   D    
C8    C17   S    
C15   O4    S    
C16   H20   S    
C15   H18   S    
C13   H15   S    
C20   H25   S    
C7    H3    S    
O9    Zn2   S    
C5    C12   S    
C8    H5    S    
C9    H7    S    
C19   C21   S    
O6    Zn1   S    
C7    C12   S    
N2    Zn2   S    
C19   H24   S    
C15   H17   S    
C6    H2    S    
C18   H9    S    
C2    H28   S    
C9    H8    S    
C15   C16   S    
C4    C20   S    
O11   Zn2   S    
C16   H19   S    
O5    Zn2   S    
C11   C13   S    
N1    Zn1   S    
C17   H23   S    
C5    O10   A    
C13   H13   S    
C8    C10   S    
C18   H12   S    
C12   C18   S    
C2    C23   S    
N2    O4    S    
C8    H22   S    
C23   H27   S    
O8    Zn1   S    
C1    O5    A    
C11   O12   S    
C4    O8    A    
C16   H21   S    
C11   H11   S    
C14   N1    S    
H16   O3    S    
O7    Zn2   S    
C2    N2    D    
C3    O6    A    
