data_mof_unit_47650.cif
_audit_creation_date              2012-12-10T17:17:26-0500
_audit_creation_method            fapswitch 2.2
_symmetry_space_group_name_H-M    P1
_symmetry_Int_Tables_number       1
_space_group_crystal_system       triclinic
_cell_length_a                    10.267693
_cell_length_b                    10.721327
_cell_length_c                    12.251152
_cell_angle_alpha                 91.542787
_cell_angle_beta                  109.320325
_cell_angle_gamma                 95.322731
_cell_volume                      1264.82388101

loop_
_atom_site_label
_atom_site_type_symbol
_atom_type_description
_atom_site_fract_x
_atom_site_fract_y
_atom_site_fract_z
_atom_type_partial_charge
C1    C     C_R   0.053535 0.733168 0.498547 0.885672
C2    C     C_R   0.450825 0.559280 0.962177 0.068111
C3    C     C_R   0.324851 0.489766 0.892820 0.036126
C4    C     C_R   0.568284 0.493351 0.013720 0.038487
C5    C     C_R   0.562422 0.365908 0.974511 0.113686
C6    C     C_R   0.436401 0.299373 0.908650 -0.223557
C7    C     C_R   0.316155 0.358205 0.877152 -0.010807
C8    C     C_R   0.683977 0.541854 0.111174 -0.074559
C9    C     C_R   0.792664 0.348853 0.106058 -0.021704
C10   C     C_R   0.211816 0.554164 0.834397 -0.088245
C11   C     C_2   0.085247 0.868009 0.506493 -0.235448
C12   C     C_R   0.134009 0.514551 0.714110 0.851715
C13   C     C_2   0.048339 0.940414 0.582208 -0.071540
C14   C     C_2   0.941640 0.135182 0.536094 -0.231808
C15   C     C_2   0.058617 0.075265 0.576222 -0.090039
C16   C     C_2   0.427001 0.526496 0.494275 -0.020320
C17   C     C_2   0.563341 0.510414 0.473532 -0.015197
C18   C     C_R   0.953364 0.267442 0.513043 0.890176
C19   C     C_R   0.865941 0.486508 0.285911 0.880622
C20   C     C_R   0.678804 0.300494 0.012462 -0.205074
C21   C     C_R   0.788653 0.464144 0.162246 -0.142288
C22   C     C_R   0.210143 0.679626 0.866473 -0.194086
C23   C     C_R   0.332540 0.749421 0.933150 -0.151324
C24   C     C_R   0.454104 0.691680 0.972418 -0.147547
H1    H     H_    0.557007 0.467378 0.390566 0.174815
H2    H     H_    0.429830 0.198855 0.890570 0.152415
H3    H     H_    0.675240 0.205831 0.976930 0.152758
H4    H     H_    0.120067 0.727223 0.825947 0.159487
H5    H     H_    0.549183 0.753324 0.004835 0.153783
H6    H     H_    0.335636 0.850126 0.945933 0.149416
N1    N     N_2   0.313640 0.446500 0.454900 -0.201145
N2    N     N_2   0.686360 0.553430 0.545150 -0.134526
O1    O     O_R   0.936910 0.692950 0.509080 -0.536704
O2    O     O_R   0.138320 0.658600 0.480130 -0.633883
O3    O     O_R   0.002900 0.525670 0.675280 -0.603730
O4    O     O_R   0.204310 0.491320 0.646330 -0.633986
O5    O     O_R   0.861680 0.341400 0.519870 -0.596299
O6    O     O_R   0.063090 0.307050 0.490920 -0.624483
O7    O     O_R   0.795690 0.508680 0.353670 -0.607860
O8    O     O_R   0.997100 0.474330 0.324720 -0.614912
Zn1   Zn    Zn3+2 0.865520 0.522940 0.519330 1.024322
Zn2   Zn    Zn3+2 0.134480 0.477060 0.480670 0.946752
C25   C     C_1   0.900257 0.268089 0.153161 0.187132
N3    N     N_1   0.985319 0.202112 0.190007 -0.206758
C26   C     C_2   0.005992 0.894609 0.679980 0.407877
H7    H     H_    0.068740 0.928585 0.767561 0.049523
O9    O     O_2   0.895681 0.831089 0.663986 -0.524122
C27   C     C_1   0.803641 0.069394 0.507748 0.270946
N4    N     N_1   0.693416 0.016958 0.485021 -0.072616
C28   C     C_1   0.143479 0.921786 0.423139 0.235135
N5    N     N_1   0.189960 0.964680 0.356654 -0.141474
C29   C     C_2   0.421127 0.646609 0.553966 0.458140
H8    H     H_    0.369832 0.649520 0.617843 0.104391
O10   O     O_2   0.477683 0.744379 0.533928 -0.547567
C30   C     C_1   0.700664 0.576063 0.661266 0.418677
N6    N     N_1   0.712949 0.594697 0.757866 -0.229732
C31   C     C_2   0.315880 0.325319 0.404530 0.537377
H9    H     H_    0.218897 0.273767 0.351866 0.095218
O11   O     O_2   0.422283 0.274170 0.425599 -0.593691
C32   C     C_1   0.687774 0.660062 0.174029 0.164094
N7    N     N_1   0.692131 0.753487 0.225474 -0.170496
C33   C     C_1   0.183930 0.281371 0.840632 0.136970
N8    N     N_1   0.077879 0.220477 0.813131 -0.212546
C34   C     C_1   0.199866 0.137060 0.613228 0.233718
N9    N     N_1   0.312557 0.185230 0.641994 -0.167472

loop_
_geom_bond_atom_site_label_1
_geom_bond_atom_site_label_2
_ccdc_geom_bond_type
C2    C4    A    
C15   C34   S    
C7    C33   S    
O6    Zn2   S    
C33   N8    T    
C20   H3    S    
C12   O4    A    
C14   C18   S    
C9    C20   A    
O4    Zn2   S    
O2    Zn2   S    
C4    C8    A    
N2    Zn1   S    
C17   H1    S    
C34   N9    T    
N1    C31   S    
C30   N6    T    
O8    Zn2   S    
C8    C21   A    
C18   O6    A    
C28   N5    T    
O1    Zn1   S    
O7    Zn1   S    
C3    C10   A    
C22   H4    S    
C26   H7    S    
C10   C22   A    
C16   N1    D    
O5    Zn1   S    
C11   C13   D    
C9    C21   A    
C31   H9    S    
C6    H2    S    
C19   O7    A    
C10   C12   S    
C27   N4    T    
N1    Zn2   S    
C18   O5    A    
C29   O10   D    
C1    O2    A    
C2    C3    A    
C6    C7    A    
C3    C7    A    
C13   C15   S    
C25   N3    T    
C2    C24   A    
C5    C6    A    
O3    Zn1   S    
C31   O11   D    
C9    C25   S    
C19   O8    A    
C23   C24   A    
C1    O1    A    
C23   H6    S    
C4    C5    A    
C29   H8    S    
C13   C26   S    
C26   O9    D    
C5    C20   A    
C17   N2    D    
C11   C28   S    
C24   H5    S    
C16   C17   S    
C14   C27   S    
N2    C30   S    
C19   C21   S    
C14   C15   D    
C22   C23   A    
C8    C32   S    
C16   C29   S    
C32   N7    T    
C12   O3    A    
C1    C11   S    
