data_mof_unit_49019.cif
_audit_creation_date              2012-12-10T17:32:21-0500
_audit_creation_method            fapswitch 2.2
_symmetry_space_group_name_H-M    P1
_symmetry_Int_Tables_number       1
_space_group_crystal_system       triclinic
_cell_length_a                    12.339984
_cell_length_b                    13.281771
_cell_length_c                    15.070592
_cell_angle_alpha                 77.268467
_cell_angle_beta                  101.562844
_cell_angle_gamma                 116.375633
_cell_volume                      2143.57730113

loop_
_atom_site_label
_atom_site_type_symbol
_atom_type_description
_atom_site_fract_x
_atom_site_fract_y
_atom_site_fract_z
_atom_type_partial_charge
C1    C     C_R   0.854868 0.287162 0.507771 0.765540
C2    C     C_R   0.092419 0.483783 0.111232 0.120274
C3    C     C_R   0.810153 0.524720 0.010090 0.626997
C4    C     C_R   0.810388 0.524511 0.917645 -0.263189
C5    C     C_R   0.903788 0.511108 0.888989 0.012773
C6    C     C_R   0.997933 0.497279 0.953662 0.069504
C7    C     C_R   0.092211 0.483516 0.925374 0.120029
C8    C     C_R   0.185399 0.469753 0.990023 -0.175177
C9    C     C_R   0.185501 0.469881 0.082489 -0.148221
C10   C     C_R   0.904773 0.511535 0.796616 -0.194928
C11   C     C_R   0.998680 0.498350 0.768242 -0.066765
C12   C     C_R   0.999508 0.499404 0.671241 0.785681
C13   C     C_R   0.091858 0.484034 0.832799 -0.219489
C14   C     C_R   0.266413 0.031389 0.420241 0.283566
C15   C     C_R   0.229370 0.834305 0.474596 -0.221397
C16   C     C_R   0.815460 0.088460 0.571177 -0.151169
C17   C     C_R   0.735141 0.978454 0.600571 -0.159189
C18   C     C_R   0.610917 0.943478 0.574388 -0.092519
C19   C     C_R   0.564544 0.014991 0.510854 0.127647
C20   C     C_R   0.646559 0.127379 0.480463 0.074786
C21   C     C_R   0.437963 0.980228 0.481003 -0.071523
C22   C     C_R   0.393078 0.062110 0.435496 0.012232
C23   C     C_R   0.145424 0.713213 0.486754 0.892712
C24   C     C_R   0.475687 0.170174 0.401465 -0.135987
C25   C     C_R   0.599813 0.198730 0.417625 -0.183241
C26   C     C_R   0.355586 0.865643 0.490821 0.544205
C27   C     C_R   0.185689 0.918315 0.442978 -0.255397
C28   C     C_R   0.772125 0.165606 0.515501 -0.096140
C29   C     C_R   0.350072 0.332669 0.649058 0.532350
C30   C     C_R   0.758187 0.648955 0.377657 0.336067
C31   C     C_R   0.666372 0.686815 0.358796 0.532939
C32   C     C_R   0.567144 0.633974 0.407593 -0.249975
C33   C     C_R   0.553925 0.538191 0.474324 -0.044313
C34   C     C_R   0.999936 0.499771 0.328812 0.844139
C35   C     C_R   0.653836 0.505801 0.496244 0.196862
C36   C     C_R   0.448160 0.476933 0.522845 -0.152710
C37   C     C_R   0.449253 0.390929 0.597499 -0.038000
C38   C     C_R   0.549022 0.363461 0.620003 -0.176640
C39   C     C_R   0.647950 0.418542 0.570090 -0.158875
C40   C     C_R   0.339668 0.495145 0.500439 0.780653
C41   C     C_R   0.249829 0.358913 0.626199 -0.133493
C42   C     C_R   0.092362 0.484493 0.203493 -0.167708
C43   C     C_R   0.999278 0.498774 0.231945 -0.105858
C44   C     C_R   0.905250 0.511889 0.167681 -0.140427
C45   C     C_R   0.903769 0.511407 0.074998 -0.030528
C46   C     C_R   0.997973 0.497429 0.046672 -0.011137
Cu1   Cu    Cu3+1 0.098270 0.475420 0.521130 1.044080
Cu2   Cu    Cu3+1 0.901730 0.524580 0.478870 0.971339
H1    H     H_    0.165136 0.474294 0.252971 0.198427
H2    H     H_    0.445276 0.231749 0.358536 0.192655
H3    H     H_    0.910812 0.115375 0.597819 0.171557
H4    H     H_    0.552891 0.861955 0.608483 0.197415
H5    H     H_    0.768750 0.921764 0.648089 0.160138
H6    H     H_    0.657622 0.278081 0.380512 0.180481
H7    H     H_    0.173687 0.315093 0.666152 0.178494
H8    H     H_    0.550853 0.297761 0.676794 0.205236
H9    H     H_    0.833011 0.522263 0.189862 0.224592
H10   H     H_    0.505469 0.673950 0.393202 0.277423
H11   H     H_    0.719055 0.390979 0.593369 0.199748
H12   H     H_    0.737616 0.535026 0.868427 0.180839
H13   H     H_    0.832298 0.522080 0.746974 0.161003
H14   H     H_    0.164567 0.473756 0.811152 0.165308
H15   H     H_    0.258216 0.459071 0.969043 0.169545
H16   H     H_    0.258388 0.459278 0.131493 0.172146
H17   H     H_    0.088722 0.895592 0.431202 0.233458
N1    N     N_R   0.246280 0.438190 0.553160 -0.263534
N2    N     N_R   0.754320 0.561190 0.447410 -0.273149
O1    O     O_R   0.972510 0.318130 0.526570 -0.577341
O2    O     O_R   0.806530 0.359650 0.490890 -0.616031
O3    O     O_R   0.082980 0.479210 0.647590 -0.593308
O4    O     O_R   0.917000 0.520730 0.611900 -0.607474
O5    O     O_R   0.193470 0.640350 0.509110 -0.472614
O6    O     O_R   0.027490 0.681870 0.473430 -0.570969
O7    O     O_R   0.083000 0.479270 0.388100 -0.523478
O8    O     O_R   0.917020 0.520790 0.352410 -0.570642
Br1   Br    Br    0.198202 0.139741 0.369514 -0.487892
F1    F     F_    0.398476 0.784636 0.504277 -0.652300
F2    F     F_    0.350251 0.251080 0.721467 -0.649777
F3    F     F_    0.321440 0.564054 0.424223 -0.642397
Br2   Br    Br    0.888571 0.730406 0.302410 -0.365644
F4    F     F_    0.674074 0.777531 0.293402 -0.590175
F5    F     F_    0.718614 0.538137 0.035902 -0.642122

loop_
_geom_bond_atom_site_label_1
_geom_bond_atom_site_label_2
_ccdc_geom_bond_type
C16   C28   A    
C21   C26   A    
C9    H16   S    
C19   C20   A    
C16   H3    S    
C32   H10   S    
Cu2   O2    S    
C1    O1    A    
C18   H4    S    
C7    C8    A    
C45   C46   A    
C2    C46   A    
C36   C37   A    
C19   C21   A    
C38   C39   A    
C20   C25   A    
C33   C36   A    
C18   C19   A    
C41   H7    S    
C13   H14   S    
Cu1   Cu2   S    
C8    C9    A    
C1    C28   S    
C14   C27   A    
Cu1   N1    S    
C30   N2    A    
C34   O8    A    
C30   Br2   S    
C15   C23   S    
C40   N1    A    
C21   C22   A    
Cu2   O8    S    
C23   O6    A    
C23   O5    A    
C24   H2    S    
C26   F1    S    
C29   F2    S    
C36   C40   A    
C25   H6    S    
C8    H15   S    
C16   C17   A    
C15   C26   A    
C20   C28   A    
C3    C45   A    
C1    O2    A    
C14   Br1   S    
C35   C39   A    
C43   C44   A    
Cu1   O3    S    
C37   C38   A    
C27   H17   S    
C15   C27   A    
C31   C32   A    
C35   N2    A    
C44   H9    S    
C39   H11   S    
C4    H12   S    
C3    F5    S    
C17   C18   A    
C40   F3    S    
C24   C25   A    
C41   N1    A    
C34   O7    A    
C12   O4    A    
C22   C24   A    
C10   H13   S    
C42   C43   A    
Cu2   O4    S    
C3    C4    A    
C17   H5    S    
Cu1   O1    S    
C44   C45   A    
C12   O3    A    
C6    C46   A    
C29   C41   A    
Cu2   O6    S    
C34   C43   S    
Cu1   O7    S    
C4    C5    A    
C11   C12   S    
C6    C7    A    
C31   F4    S    
C32   C33   A    
C14   C22   A    
C5    C10   A    
C11   C13   A    
C30   C31   A    
C5    C6    A    
C2    C42   A    
C33   C35   A    
Cu2   N2    S    
Cu1   O5    S    
C10   C11   A    
C42   H1    S    
C7    C13   A    
C38   H8    S    
C29   C37   A    
C2    C9    A    
