data_mof_unit_36056.cif
_audit_creation_date              2012-12-11T14:30:12-0500
_audit_creation_method            fapswitch 2.2
_symmetry_space_group_name_H-M    P1
_symmetry_Int_Tables_number       1
_space_group_crystal_system       monoclinic
_cell_length_a                    12.637217
_cell_length_b                    12.634103
_cell_length_c                    26.977573
_cell_angle_alpha                 90.0
_cell_angle_beta                  90.0
_cell_angle_gamma                 119.973777
_cell_volume                      3731.16162278

loop_
_atom_site_label
_atom_site_type_symbol
_atom_type_description
_atom_site_fract_x
_atom_site_fract_y
_atom_site_fract_z
_atom_type_partial_charge
C1    C     C_R   0.556370 0.456907 0.821783 0.559869
C2    C     C_R   0.456777 0.556314 0.178194 0.563106
C3    C     C_R   0.001330 0.315221 0.474172 -0.118133
C4    C     C_R   0.311126 0.993228 0.025189 -0.118062
C5    C     C_R   0.684704 0.685445 0.474133 -0.115563
C6    C     C_R   0.314213 0.998800 0.526172 -0.115892
C7    C     C_R   0.995449 0.312090 0.974478 -0.118700
C8    C     C_R   0.687557 0.683013 0.525503 -0.116355
C9    C     C_R   0.314215 0.998803 0.973829 -0.115894
C10   C     C_R   0.995451 0.312090 0.525522 -0.118700
C11   C     C_R   0.687559 0.683010 0.974498 -0.116356
C12   C     C_2   0.018128 0.709909 0.134991 0.581638
C13   C     C_R   0.443502 0.900371 0.321832 0.560917
C14   C     C_2   0.692877 0.985687 0.364900 0.586153
C15   C     C_2   0.288939 0.308701 0.134876 0.585864
C16   C     C_2   0.018126 0.709908 0.365009 0.581638
C17   C     C_2   0.692877 0.985685 0.135100 0.586153
C18   C     C_2   0.288940 0.308701 0.365124 0.585863
C19   C     C_2   0.710506 0.018599 0.635084 0.582043
C20   C     C_2   0.986992 0.693523 0.864664 0.581962
C21   C     C_2   0.306935 0.292333 0.635201 0.586152
C22   C     C_2   0.710506 0.018598 0.864916 0.582043
C23   C     C_2   0.986992 0.693523 0.635336 0.581964
C24   C     C_R   0.099565 0.543210 0.178188 0.565594
C25   C     C_2   0.306935 0.292335 0.864799 0.586151
C26   C     C_R   0.995949 0.505540 0.973831 0.047692
C27   C     C_R   0.509595 0.003325 0.526287 0.046802
C28   C     C_R   0.494200 0.490196 0.973840 0.046913
C29   C     C_R   0.995948 0.505539 0.526169 0.047692
C30   C     C_R   0.509595 0.003327 0.973713 0.046802
C31   C     C_R   0.494199 0.490197 0.526160 0.046913
C32   C     C_R   0.504981 0.994664 0.474053 0.047588
C33   C     C_R   0.900524 0.443599 0.678217 0.562324
C34   C     C_R   0.004671 0.510082 0.026063 0.047556
C35   C     C_R   0.489708 0.494298 0.473923 0.046721
C36   C     C_R   0.504981 0.994666 0.025947 0.047587
C37   C     C_R   0.004671 0.510082 0.473937 0.047556
C38   C     C_R   0.489708 0.494297 0.026077 0.046721
C39   C     C_R   0.999632 0.699316 0.973905 -0.129508
C40   C     C_R   0.702254 0.004773 0.525629 -0.131639
C41   C     C_R   0.300487 0.300223 0.973903 -0.127500
C42   C     C_R   0.999628 0.699314 0.526095 -0.129509
C43   C     C_R   0.702254 0.004772 0.974371 -0.131638
C44   C     C_R   0.543173 0.099396 0.821761 0.564467
C45   C     C_R   0.300488 0.300222 0.526097 -0.127500
C46   C     C_R   0.699017 0.998970 0.474033 -0.128051
C47   C     C_R   0.005246 0.702353 0.025506 -0.132273
C48   C     C_R   0.297271 0.302951 0.474506 -0.130489
C49   C     C_R   0.699017 0.998969 0.025967 -0.128050
C50   C     C_R   0.005242 0.702350 0.474494 -0.132272
C51   C     C_R   0.297270 0.302952 0.025494 -0.130489
C52   C     C_R   0.978912 0.591157 0.894708 0.040988
C53   C     C_R   0.614314 0.023443 0.605137 0.041991
C54   C     C_R   0.408822 0.387389 0.894737 0.039017
C55   C     C_R   0.556369 0.456907 0.678217 0.559869
C56   C     C_R   0.978910 0.591156 0.605292 0.040990
C57   C     C_R   0.614313 0.023443 0.894863 0.041991
C58   C     C_R   0.408822 0.387388 0.605263 0.039016
C59   C     C_R   0.590688 0.978076 0.394887 0.039509
C60   C     C_R   0.023831 0.614235 0.104987 0.042735
C61   C     C_R   0.385310 0.409604 0.395033 0.040777
C62   C     C_R   0.590688 0.978076 0.105113 0.039510
C63   C     C_R   0.023830 0.614234 0.395013 0.042735
C64   C     C_R   0.385310 0.409604 0.104967 0.040777
C65   C     C_R   0.039162 0.522900 0.129204 -0.017263
C66   C     C_R   0.900524 0.443599 0.821782 0.562326
C67   C     C_R   0.482961 0.960450 0.370898 -0.022899
C68   C     C_R   0.476974 0.515918 0.129235 -0.017164
C69   C     C_R   0.039162 0.522900 0.370796 -0.017263
C70   C     C_R   0.482961 0.960451 0.129102 -0.022900
C71   C     C_R   0.476974 0.515919 0.370765 -0.017165
C72   C     C_R   0.522749 0.038308 0.629392 -0.016692
C73   C     C_R   0.961132 0.483344 0.870731 -0.022274
C74   C     C_R   0.516373 0.477666 0.629281 -0.022475
C75   C     C_R   0.522749 0.038309 0.870608 -0.016692
C76   C     C_R   0.961131 0.483344 0.629269 -0.022275
C77   C     C_R   0.543173 0.099396 0.678239 0.564467
C78   C     C_R   0.516374 0.477666 0.870719 -0.022475
C79   C     C_R   0.992269 0.600186 0.947129 -0.000927
C80   C     C_R   0.609480 0.009699 0.552702 -0.004499
C81   C     C_R   0.399661 0.391878 0.947142 -0.001005
C82   C     C_R   0.992267 0.600185 0.552871 -0.000928
C83   C     C_R   0.609480 0.009700 0.947298 -0.004499
C84   C     C_R   0.399661 0.391878 0.552858 -0.001006
C85   C     C_R   0.599727 0.991342 0.447307 -0.000771
C86   C     C_R   0.010447 0.609650 0.052536 -0.004147
C87   C     C_R   0.390017 0.400724 0.447471 -0.004470
C88   C     C_R   0.456777 0.556314 0.321806 0.563106
C89   C     C_R   0.599727 0.991343 0.052693 -0.000771
C90   C     C_R   0.010446 0.609649 0.447463 -0.004147
C91   C     C_R   0.390016 0.400724 0.052529 -0.004470
C92   C     C_R   0.978455 0.398044 0.897373 -0.127776
C93   C     C_R   0.418770 0.017923 0.603055 -0.125610
C94   C     C_R   0.601266 0.580453 0.897339 -0.127383
C95   C     C_R   0.978456 0.398044 0.602627 -0.127775
C96   C     C_R   0.418771 0.017925 0.896945 -0.125612
C97   C     C_R   0.601264 0.580454 0.602661 -0.127382
C98   C     C_R   0.397434 0.977252 0.397617 -0.128771
C99   C     C_R   0.443502 0.900371 0.178168 0.560918
C100  C     C_R   0.019997 0.419418 0.102755 -0.127288
C101  C     C_R   0.580711 0.599693 0.397171 -0.126504
C102  C     C_R   0.397435 0.977254 0.102383 -0.128770
C103  C     C_R   0.019998 0.419418 0.397245 -0.127288
C104  C     C_R   0.580712 0.599691 0.102829 -0.126503
C105  C     C_R   0.992116 0.406164 0.948404 0.009463
C106  C     C_R   0.412992 0.004481 0.551998 0.011723
C107  C     C_R   0.593409 0.585789 0.948403 0.011948
C108  C     C_R   0.992116 0.406164 0.551596 0.009463
C109  C     C_R   0.412993 0.004483 0.948002 0.011723
C110  C     C_R   0.099565 0.543210 0.321812 0.565594
C111  C     C_R   0.593407 0.585790 0.551597 0.011949
C112  C     C_R   0.405430 0.990518 0.448672 0.010018
C113  C     C_R   0.006496 0.413719 0.051708 0.009575
C114  C     C_R   0.586236 0.592164 0.448251 0.012304
C115  C     C_R   0.405432 0.990520 0.051328 0.010018
C116  C     C_R   0.006496 0.413719 0.448292 0.009575
C117  C     C_R   0.586237 0.592163 0.051749 0.012304
C118  C     C_R   0.001329 0.315220 0.025828 -0.118133
C119  C     C_R   0.311125 0.993225 0.474812 -0.118062
C120  C     C_R   0.684706 0.685442 0.025868 -0.115562
Cr1   Cr    Cr6+3 0.487630 0.241180 0.750000 1.120010
Cr2   Cr    Cr6+3 0.753550 0.512370 0.750000 1.107344
Cr3   Cr    Cr6+3 0.758820 0.246450 0.750000 1.114756
Cr4   Cr    Cr6+3 0.241180 0.487630 0.250000 1.114898
Cr5   Cr    Cr6+3 0.512370 0.753550 0.250000 1.107799
Cr6   Cr    Cr6+3 0.246450 0.758820 0.250000 1.102646
H1    H     H_    0.006753 0.779387 0.043493 0.152188
H2    H     H_    0.779485 0.006633 0.956424 0.151748
H3    H     H_    0.000032 0.775533 0.544326 0.155970
H4    H     H_    0.224312 0.224454 0.955653 0.157350
H5    H     H_    0.024997 0.346190 0.121445 0.202201
H6    H     H_    0.318257 0.970551 0.379141 0.198977
H7    H     H_    0.654266 0.677298 0.121607 0.192287
H8    H     H_    0.024998 0.346190 0.378555 0.202201
H9    H     H_    0.318259 0.970554 0.120859 0.198977
H10   H     H_    0.654264 0.677300 0.378394 0.192287
H11   H     H_    0.345212 0.021959 0.621857 0.195923
H12   H     H_    0.775267 0.999562 0.455751 0.157850
H13   H     H_    0.971868 0.318930 0.878865 0.202760
H14   H     H_    0.679878 0.653234 0.621238 0.193755
H15   H     H_    0.345213 0.021961 0.878143 0.195922
H16   H     H_    0.971869 0.318931 0.621135 0.202760
H17   H     H_    0.679880 0.653232 0.878763 0.193755
H18   H     H_    0.003543 0.241281 0.045289 0.138173
H19   H     H_    0.233976 0.989315 0.455543 0.138654
H20   H     H_    0.758776 0.761374 0.045337 0.140013
H21   H     H_    0.003545 0.241282 0.454712 0.138173
H22   H     H_    0.233978 0.989319 0.044457 0.138653
H23   H     H_    0.220127 0.227598 0.043479 0.153692
H24   H     H_    0.758773 0.761377 0.454663 0.140013
H25   H     H_    0.240082 0.000508 0.545675 0.138668
H26   H     H_    0.991793 0.235083 0.955170 0.137506
H27   H     H_    0.764469 0.756395 0.544805 0.139865
H28   H     H_    0.240084 0.000512 0.954326 0.138669
H29   H     H_    0.991796 0.235084 0.544830 0.137506
H30   H     H_    0.764472 0.756393 0.955196 0.139868
H31   H     H_    0.942009 0.747587 0.193136 0.336800
H32   H     H_    0.807939 0.921874 0.351453 0.344598
H33   H     H_    0.249908 0.194577 0.192993 0.343921
H34   H     H_    0.006748 0.779384 0.456506 0.152188
H35   H     H_    0.942008 0.747586 0.306864 0.336801
H36   H     H_    0.807937 0.921871 0.148547 0.344597
H37   H     H_    0.249910 0.194577 0.307007 0.343921
H38   H     H_    0.749186 0.943452 0.693293 0.337923
H39   H     H_    0.924396 0.809612 0.851246 0.339542
H40   H     H_    0.192404 0.113281 0.648388 0.346557
H41   H     H_    0.749184 0.943450 0.806707 0.337923
H42   H     H_    0.924391 0.809607 0.648755 0.339541
H43   H     H_    0.192404 0.113283 0.851612 0.346557
H44   H     H_    0.775267 0.999561 0.044249 0.157850
H45   H     H_    0.220129 0.227597 0.456521 0.153692
H46   H     H_    0.779485 0.006634 0.543576 0.151748
H47   H     H_    0.000039 0.775537 0.955674 0.155974
H48   H     H_    0.224314 0.224453 0.544346 0.157351
O1    O     O_R   0.460870 0.120930 0.805240 -0.497446
O2    O     O_R   0.120930 0.460870 0.194760 -0.492038
O3    O     O_R   0.539130 0.660060 0.305240 -0.503570
O4    O     O_R   0.339940 0.879070 0.194760 -0.498922
O5    O     O_R   0.498910 0.350470 0.801870 -0.466169
O6    O     O_R   0.851560 0.501090 0.698130 -0.467146
O7    O     O_R   0.649530 0.148440 0.801870 -0.469364
O8    O     O_R   0.498910 0.350470 0.698130 -0.466169
O9    O     O_R   0.851560 0.501090 0.801870 -0.467146
O10   O     O_R   0.649530 0.148440 0.698130 -0.469363
O11   O     O_R   0.350470 0.498910 0.301870 -0.468834
O12   O     O_R   0.660060 0.539130 0.694760 -0.503969
O13   O     O_R   0.501090 0.851560 0.198130 -0.466391
O14   O     O_R   0.148440 0.649530 0.301870 -0.469557
O15   O     O_R   0.350470 0.498910 0.198130 -0.468834
O16   O     O_R   0.501090 0.851560 0.301870 -0.466391
O17   O     O_R   0.148440 0.649530 0.198130 -0.469556
O18   O     O_3   0.666667 0.333333 0.750000 -0.287513
O19   O     O_3   0.333333 0.666667 0.250000 -0.286272
O20   O     O_2   0.086084 0.818146 0.126004 -0.563202
O21   O     O_R   0.937018 0.675011 0.174937 -0.668841
O22   O     O_2   0.734143 0.058292 0.330520 -0.475661
O23   O     O_R   0.879070 0.339940 0.805240 -0.492642
O24   O     O_R   0.739462 0.908267 0.374840 -0.740267
O25   O     O_2   0.180938 0.269604 0.125806 -0.555589
O26   O     O_R   0.322910 0.261638 0.174831 -0.665724
O27   O     O_2   0.086082 0.818145 0.373996 -0.563202
O28   O     O_R   0.937017 0.675009 0.325063 -0.668840
O29   O     O_2   0.734144 0.058291 0.169480 -0.475661
O30   O     O_R   0.739461 0.908264 0.125160 -0.740266
O31   O     O_2   0.180939 0.269603 0.374194 -0.555590
O32   O     O_R   0.322911 0.261638 0.325169 -0.665724
O33   O     O_2   0.818562 0.086918 0.625939 -0.561079
O34   O     O_R   0.460870 0.120930 0.694760 -0.497445
O35   O     O_R   0.676303 0.937873 0.675149 -0.669071
O36   O     O_2   0.059300 0.734144 0.830171 -0.482986
O37   O     O_R   0.910418 0.741052 0.874668 -0.743571
O38   O     O_2   0.265512 0.323109 0.669718 -0.475439
O39   O     O_R   0.260782 0.168519 0.625042 -0.739613
O40   O     O_2   0.818562 0.086917 0.874061 -0.561079
O41   O     O_R   0.676301 0.937872 0.824851 -0.669071
O42   O     O_2   0.059307 0.734150 0.669826 -0.482990
O43   O     O_R   0.910412 0.741046 0.625334 -0.743565
O44   O     O_2   0.265512 0.323111 0.830282 -0.475438
O45   O     O_R   0.660060 0.539130 0.805240 -0.503972
O46   O     O_R   0.260781 0.168520 0.874958 -0.739613
O47   O     O_R   0.879070 0.339940 0.694760 -0.492641
O48   O     O_R   0.120930 0.460870 0.305240 -0.492038
O49   O     O_R   0.539130 0.660060 0.194760 -0.503569
O50   O     O_R   0.339940 0.879070 0.305240 -0.498922

loop_
_geom_bond_atom_site_label_1
_geom_bond_atom_site_label_2
_ccdc_geom_bond_type
C36   C89   A    
C66   O9    A    
C23   O43   S    
C3    H21   S    
C56   C76   A    
C5    C114  A    
C44   C75   S    
C43   C83   A    
C4    C115  A    
C10   C108  A    
C42   C82   A    
C44   O1    A    
H41   O41   S    
C39   H47   S    
C22   C57   S    
C99   O13   A    
C100  H5    S    
C23   C56   S    
Cr1   O5    S    
C37   C116  A    
Cr1   O1    S    
C34   C113  A    
Cr2   O6    S    
C14   C59   S    
Cr3   O47   S    
C110  O14   A    
Cr3   O10   S    
C37   C90   A    
C18   O31   D    
C94   H17   S    
C64   C68   A    
C103  H8    S    
C2    C68   S    
C3    C116  A    
C76   C95   A    
C41   H4    S    
C97   C111  A    
Cr6   O50   S    
Cr2   O12   S    
C28   C107  A    
C4    H22   S    
C62   C89   A    
C120  H20   S    
C77   O10   A    
C62   C70   A    
C35   C114  A    
C34   C86   A    
C20   O37   S    
C30   C83   A    
C17   O29   D    
C102  H9    S    
C102  C115  A    
C61   C87   A    
C67   C98   A    
C51   C91   A    
C96   H15   S    
C55   C74   S    
C35   C87   A    
C26   C34   A    
C63   C69   A    
Cr4   O19   S    
C15   C64   S    
C40   C80   A    
C29   C108  A    
Cr5   O16   S    
C16   C63   S    
C20   O36   D    
H42   O43   S    
C42   H3    S    
C52   C79   A    
C53   C72   A    
C97   H14   S    
C46   H12   S    
C46   C85   A    
C59   C67   A    
C61   C71   A    
Cr5   O49   S    
C71   C101  A    
H31   O21   S    
C22   O41   S    
C33   O6    A    
C19   O33   D    
C101  C114  A    
C38   C117  A    
C7    C118  A    
C25   O44   D    
C7    H26   S    
Cr1   O18   S    
C16   O28   S    
C11   C120  A    
C26   C105  A    
Cr4   O15   S    
C101  H10   S    
C50   C90   A    
C75   C96   A    
C74   C97   A    
C23   O42   D    
C69   C103  A    
C9    C109  A    
C28   C38   A    
C94   C107  A    
C98   C112  A    
C104  H7    S    
C30   C109  A    
C1    C78   S    
C47   C86   A    
H35   O28   S    
C88   O3    A    
C53   C80   A    
C25   C54   S    
C65   C100  A    
C99   O4    A    
C52   C73   A    
Cr2   O45   S    
C8    C111  A    
C60   C86   A    
H39   O37   S    
C27   C106  A    
C50   H34   S    
C66   C73   S    
C38   C91   A    
C31   C84   A    
C71   C88   S    
H36   O30   S    
C5    H24   S    
C39   C79   A    
C10   H29   S    
C17   O30   S    
C40   C46   A    
C59   C85   A    
C72   C77   S    
C2    O15   A    
C58   C84   A    
C17   C62   S    
C5    C8    A    
C48   H45   S    
C15   O25   D    
C69   C110  S    
C33   C76   S    
Cr5   O19   S    
H38   O35   S    
C41   C81   A    
C57   C83   A    
C6    C106  A    
C48   C87   A    
C1    O45   A    
Cr2   O18   S    
C8    H27   S    
C24   C65   S    
C42   C50   A    
C18   O32   S    
C6    H25   S    
C11   H30   S    
C88   O11   A    
C14   O24   S    
Cr4   O48   S    
C60   C65   A    
C27   C80   A    
C22   O40   D    
C93   C106  A    
Cr5   O3    S    
C12   O21   S    
C21   O39   S    
C117  C120  A    
C45   C84   A    
C72   C93   A    
C13   O50   A    
C29   C37   A    
C16   O27   D    
C24   O2    A    
H33   O26   S    
C6    C119  A    
C40   H46   S    
C70   C99   S    
C58   C74   A    
C39   C47   A    
C104  C117  A    
C13   C67   S    
C45   C48   A    
C14   O22   D    
Cr2   O9    S    
C32   C112  A    
C27   C32   A    
C19   O35   S    
C12   O20   D    
Cr3   O23   S    
Cr3   O18   S    
C43   C49   A    
C100  C113  A    
C68   C104  A    
C73   C92   A    
C49   C89   A    
C43   H2    S    
C9    H28   S    
C112  C119  A    
C70   C102  A    
C18   C61   S    
C56   C82   A    
Cr4   O2    S    
C119  H19   S    
C96   C109  A    
H37   O32   S    
C118  H18   S    
C26   C79   A    
Cr1   O34   S    
C21   O38   D    
C30   C36   A    
Cr5   O13   S    
C57   C75   A    
Cr6   O14   S    
C103  C116  A    
C28   C81   A    
C29   C82   A    
C20   C52   S    
C3    C10   A    
C45   H48   S    
C11   C107  A    
C15   O26   S    
C1    O5    A    
Cr6   O19   S    
C19   C53   S    
C49   H44   S    
C47   H1    S    
C78   C94   A    
C36   C115  A    
C55   O12   A    
C32   C85   A    
C63   C90   A    
C2    O49   A    
H32   O24   S    
C55   O8    A    
C7    C105  A    
Cr6   O4    S    
C24   O17   A    
C31   C35   A    
Cr6   O17   S    
C66   O23   A    
C93   H11   S    
C95   C108  A    
C13   O16   A    
H40   O39   S    
C113  C118  A    
C12   C60   S    
C92   C105  A    
C21   C58   S    
H43   O46   S    
C77   O34   A    
C51   H23   S    
C95   H16   S    
Cr3   O7    S    
C98   H6    S    
C31   C111  A    
Cr4   O11   S    
C25   O46   S    
C64   C91   A    
C4    C9    A    
C92   H13   S    
C44   O7    A    
C41   C51   A    
C54   C81   A    
C33   O47   A    
Cr1   O8    S    
C54   C78   A    
C110  O48   A    
