data_mof_unit_34570.cif
_audit_creation_date              2012-10-26T19:15:26-0400
_audit_creation_method            fapswitch 2.2
_symmetry_space_group_name_H-M    P1
_symmetry_Int_Tables_number       1
_space_group_crystal_system       triclinic
_cell_length_a                    15.974957
_cell_length_b                    10.775562
_cell_length_c                    9.591512
_cell_angle_alpha                 89.543546
_cell_angle_beta                  89.223437
_cell_angle_gamma                 91.026192
_cell_volume                      1650.60253761

loop_
_atom_site_label
_atom_site_type_symbol
_atom_type_description
_atom_site_fract_x
_atom_site_fract_y
_atom_site_fract_z
_atom_type_partial_charge
C1    C     C_R   0.500541 0.262622 0.500290 0.549342
C2    C     C_R   0.453727 0.934910 0.399703 -0.170915
C3    C     C_R   0.502864 0.870428 0.495438 -0.011922
C4    C     C_R   0.341519 0.499554 0.500610 0.550606
C5    C     C_R   0.560142 0.936651 0.575298 0.108568
C6    C     C_3   0.584342 0.927581 0.724495 0.096789
C7    C     C_3   0.586389 0.069320 0.725145 -0.235764
C8    C     C_R   0.558987 0.566996 0.071424 0.149738
C9    C     C_R   0.437467 0.444163 0.078104 -0.014828
C10   C     C_R   0.436297 0.444486 0.930271 0.071324
C11   C     C_R   0.559182 0.566635 0.924399 0.149086
C12   C     C_R   0.042749 0.380065 0.486706 0.301831
C13   C     C_3   0.651613 0.549766 0.917466 -0.269440
C14   C     C_3   0.651428 0.550788 0.075473 -0.274058
C15   C     C_R   0.500194 0.737278 0.499330 0.559359
C16   C     C_R   0.658575 0.500607 0.499258 0.561361
C17   C     C_R   0.955056 0.379395 0.488660 0.316318
C18   C     C_R   0.912416 0.493174 0.496408 -0.036250
C19   C     C_R   0.957195 0.605425 0.502438 -0.158252
C20   C     C_R   0.044684 0.607785 0.500251 -0.039667
C21   C     C_R   0.087785 0.494588 0.493675 -0.034440
C22   C     C_R   0.362312 0.384371 0.867987 0.068813
C23   C     C_1   0.822748 0.497528 0.497079 -0.066057
C24   C     C_R   0.364940 0.261083 0.823038 -0.067916
C25   C     C_R   0.292682 0.201456 0.774506 -0.133628
C26   C     C_R   0.216580 0.263388 0.774991 -0.113720
C27   C     C_R   0.212628 0.384734 0.824669 -0.104428
C28   C     C_R   0.285063 0.444935 0.871811 -0.088044
C29   C     C_R   0.089498 0.729816 0.505184 0.045182
C30   C     C_R   0.147784 0.764642 0.400111 -0.081820
C31   C     C_R   0.190257 0.879073 0.405962 -0.107749
C32   C     C_R   0.174367 0.960173 0.515718 -0.075938
C33   C     C_R   0.115873 0.927051 0.619743 -0.081000
C34   C     C_1   0.177597 0.496329 0.498527 -0.075435
C35   C     C_R   0.073425 0.812509 0.614558 -0.089522
C36   C     C_1   0.252580 0.498023 0.501023 -0.025221
C37   C     C_1   0.747686 0.499688 0.497721 -0.023102
C38   C     C_R   0.560534 0.064042 0.576060 -0.012085
C39   C     C_R   0.502668 0.129358 0.497782 -0.003351
C40   C     C_R   0.453525 0.064415 0.401055 -0.161706
Cu1   Cu    Cu3+1 0.500000 0.499980 0.640670 0.958972
Cu2   Cu    Cu3+1 0.500000 0.500020 0.359330 0.939567
H1    H     H_    0.650215 0.110641 0.736278 0.167765
H2    H     H_    0.535408 0.883024 0.793030 0.117854
H3    H     H_    0.538413 0.108318 0.795494 0.092220
H4    H     H_    0.142596 0.277191 0.468849 0.308437
H5    H     H_    0.422301 0.210566 0.828332 0.105193
H6    H     H_    0.295467 0.106573 0.738791 0.102256
H7    H     H_    0.160516 0.216920 0.738552 0.140832
H8    H     H_    0.153479 0.432193 0.826471 0.121970
H9    H     H_    0.281118 0.538618 0.911192 0.099432
H10   H     H_    0.852867 0.275559 0.485922 0.318858
H11   H     H_    0.160186 0.703345 0.313599 0.112168
H12   H     H_    0.388023 0.396743 0.136958 0.123599
H13   H     H_    0.235359 0.905010 0.325183 0.101555
H14   H     H_    0.207210 0.048760 0.519874 0.111860
H15   H     H_    0.103509 0.990024 0.704601 0.120747
H16   H     H_    0.028667 0.787767 0.696399 0.112323
H17   H     H_    0.675679 0.876744 0.838917 0.317789
H18   H     H_    0.669308 0.458459 0.873801 0.154779
H19   H     H_    0.684919 0.631339 0.869823 0.158936
H20   H     H_    0.669280 0.460257 0.121753 0.160900
H21   H     H_    0.684284 0.633288 0.119053 0.135743
H22   H     H_    0.923662 0.692007 0.507292 0.148433
H23   H     H_    0.412294 0.113285 0.331539 0.124659
H24   H     H_    0.412577 0.885489 0.329509 0.126421
N1    N     N_R   0.500520 0.500930 0.147930 -0.240237
N2    N     N_R   0.500520 0.500890 0.852020 -0.236919
O1    O     O_R   0.500000 0.319640 0.618810 -0.508259
O2    O     O_3   0.914212 0.265196 0.482415 -0.638840
O3    O     O_3   0.664071 0.877217 0.737574 -0.687068
O4    O     O_R   0.500010 0.319680 0.381230 -0.501205
O5    O     O_R   0.380300 0.499950 0.618760 -0.485577
O6    O     O_R   0.380310 0.499990 0.381180 -0.513165
O7    O     O_R   0.499990 0.680320 0.618770 -0.491869
O8    O     O_R   0.500000 0.680360 0.381190 -0.496601
O9    O     O_R   0.619690 0.500010 0.618820 -0.494531
O10   O     O_R   0.619700 0.500050 0.381240 -0.499306
O11   O     O_3   0.081235 0.266161 0.478295 -0.661751

loop_
_geom_bond_atom_site_label_1
_geom_bond_atom_site_label_2
_ccdc_geom_bond_type
C15   O7    A    
C4    C36   S    
Cu1   Cu2   S    
C19   C20   A    
C13   H18   S    
C10   C22   S    
C26   C27   A    
C35   H16   S    
C7    H3    S    
C18   C19   A    
Cu1   O9    S    
H4    O11   S    
C28   H9    S    
C14   H20   S    
C12   O11   S    
C16   O9    A    
C12   C17   A    
C8    C14   S    
C7    H1    S    
C9    C10   A    
C4    O6    A    
C27   H8    S    
C16   C37   S    
C15   O8    A    
C17   O2    S    
C22   C28   A    
C5    C38   A    
Cu1   N2    S    
C20   C29   S    
C6    O3    S    
C30   H11   S    
Cu2   O6    S    
C1    O4    A    
C18   C23   S    
C38   C39   A    
C24   C25   A    
C26   H7    S    
C39   C40   A    
C21   C34   S    
C3    C5    A    
C25   C26   A    
C23   C37   T    
C12   C21   A    
C1    O1    A    
C9    N1    A    
C29   C30   A    
Cu1   O7    S    
C31   C32   A    
C19   H22   S    
Cu2   O4    S    
C17   C18   A    
C25   H6    S    
C4    O5    A    
Cu2   O10   S    
C40   H23   S    
Cu2   N1    S    
C22   C24   A    
C3    C15   S    
C11   N2    A    
Cu1   O1    S    
C33   H15   S    
C24   H5    S    
C2    H24   S    
C6    C7    S    
C10   N2    A    
C29   C35   A    
Cu2   O8    S    
C32   C33   A    
C2    C3    A    
C11   C13   S    
C30   C31   A    
C5    C6    S    
C8    C11   A    
C14   H21   S    
C33   C35   A    
C7    C38   S    
C16   O10   A    
H10   O2    S    
C1    C39   S    
Cu1   O5    S    
C2    C40   A    
C13   H19   S    
C20   C21   A    
C34   C36   T    
C8    N1    A    
C27   C28   A    
C6    H2    S    
C9    H12   S    
C31   H13   S    
C13   C14   S    
C32   H14   S    
H17   O3    S    
