data_mof_unit_45818.cif
_audit_creation_date              2012-12-11T14:42:19-0500
_audit_creation_method            fapswitch 2.2
_symmetry_space_group_name_H-M    P1
_symmetry_Int_Tables_number       1
_space_group_crystal_system       triclinic
_cell_length_a                    18.984972
_cell_length_b                    10.874751
_cell_length_c                    18.862426
_cell_angle_alpha                 90.178633
_cell_angle_beta                  90.614699
_cell_angle_gamma                 89.740843
_cell_volume                      3893.99463493

loop_
_atom_site_label
_atom_site_type_symbol
_atom_type_description
_atom_site_fract_x
_atom_site_fract_y
_atom_site_fract_z
_atom_type_partial_charge
Br1   Br    Br    0.524048 0.909123 0.094036 -0.436895
Br2   Br    Br    0.512856 0.889943 0.581152 -0.443811
Br3   Br    Br    0.033562 0.415618 0.408520 -0.409391
Br4   Br    Br    0.012856 0.389943 0.581152 -0.443811
Br5   Br    Br    0.523173 0.900292 0.921207 -0.475847
Br6   Br    Br    0.024048 0.409123 0.094036 -0.436894
Br7   Br    Br    0.023174 0.400292 0.921207 -0.475847
Br8   Br    Br    0.608302 0.526733 0.571637 -0.454674
Br9   Br    Br    0.343832 0.616551 0.401621 -0.429528
Br10  Br    Br    0.108302 0.026733 0.571637 -0.454674
Br11  Br    Br    0.843831 0.116551 0.401621 -0.429528
Br12  Br    Br    0.533562 0.915618 0.408520 -0.409391
C1    C     C_R   0.727809 0.955787 0.853525 0.566282
C2    C     C_R   0.249532 0.415572 0.924097 0.042117
C3    C     C_R   0.273341 0.973024 0.063980 0.055643
C4    C     C_R   0.749532 0.915572 0.924097 0.042117
C5    C     C_R   0.830429 0.454445 0.019047 -0.161788
C6    C     C_R   0.206515 0.330119 0.957256 -0.136625
C7    C     C_R   0.330429 0.954445 0.019047 -0.161788
C8    C     C_R   0.706515 0.830120 0.957257 -0.136625
C9    C     C_R   0.819531 0.430486 0.947723 -0.123468
C10   C     C_R   0.208443 0.318914 0.029619 -0.105335
C11   C     C_R   0.319531 0.930486 0.947723 -0.123468
C12   C     C_R   0.289089 0.998375 0.138553 0.555531
C13   C     C_R   0.708442 0.818914 0.029619 -0.105335
C14   C     C_R   0.750966 0.424373 0.920286 0.005168
C15   C     C_R   0.256312 0.387700 0.070552 0.010810
C16   C     C_R   0.250966 0.924373 0.920286 0.005169
C17   C     C_R   0.756312 0.887700 0.070552 0.010810
C18   C     C_R   0.471142 0.266988 0.544579 -0.150287
C19   C     C_R   0.468057 0.272354 0.472392 -0.150758
C20   C     C_R   0.971142 0.766988 0.544579 -0.150287
C21   C     C_R   0.968057 0.772354 0.472392 -0.150758
C22   C     C_R   0.486453 0.169479 0.431144 0.002489
C23   C     C_R   0.227808 0.455787 0.853525 0.566283
C24   C     C_R   0.494172 0.159681 0.577360 0.000980
C25   C     C_R   0.986453 0.669479 0.431144 0.002489
C26   C     C_R   0.994172 0.659681 0.577360 0.000980
C27   C     C_R   0.504734 0.057346 0.463584 0.143526
C28   C     C_R   0.503952 0.050207 0.537425 0.146690
C29   C     C_R   0.004734 0.557346 0.463584 0.143526
C30   C     C_R   0.003952 0.550207 0.537425 0.146690
C31   C     C_R   0.819659 0.403484 0.547944 -0.147637
C32   C     C_R   0.202702 0.339331 0.465878 -0.122804
C33   C     C_R   0.319659 0.903484 0.547944 -0.147637
C34   C     C_R   0.789089 0.498375 0.138553 0.555531
C35   C     C_R   0.702701 0.839331 0.465878 -0.122804
C36   C     C_R   0.831497 0.430651 0.477551 -0.114265
C37   C     C_R   0.193124 0.365728 0.535777 -0.096845
C38   C     C_R   0.331497 0.930651 0.477551 -0.114265
C39   C     C_R   0.693124 0.865728 0.535777 -0.096845
C40   C     C_R   0.530529 0.176763 0.851595 0.562139
C41   C     C_R   0.471999 0.177094 0.150317 0.565902
C42   C     C_R   0.030529 0.676763 0.851595 0.562139
C43   C     C_R   0.971999 0.677094 0.150317 0.565902
C44   C     C_R   0.777337 0.478999 0.435444 -0.012348
C45   C     C_R   0.703826 0.472794 0.035768 0.080380
C46   C     C_R   0.226557 0.466762 0.566505 -0.010494
C47   C     C_R   0.277337 0.978999 0.435444 -0.012348
C48   C     C_R   0.726558 0.966762 0.566505 -0.010495
C49   C     C_R   0.712366 0.508017 0.466021 -0.108878
C50   C     C_R   0.271128 0.540713 0.525889 -0.109612
C51   C     C_R   0.212366 0.008017 0.466021 -0.108878
C52   C     C_R   0.771128 0.040713 0.525889 -0.109612
C53   C     C_R   0.699963 0.482421 0.537104 0.140605
C54   C     C_R   0.282624 0.512252 0.454617 0.139769
C55   C     C_R   0.199963 0.982421 0.537104 0.140605
C56   C     C_R   0.302021 0.479200 0.963965 0.082091
C57   C     C_R   0.782624 0.012252 0.454617 0.139769
C58   C     C_R   0.753271 0.423720 0.578069 0.021691
C59   C     C_R   0.247687 0.410381 0.424370 0.038796
C60   C     C_R   0.253271 0.923720 0.578069 0.021691
C61   C     C_R   0.747687 0.910381 0.424370 0.038796
C62   C     C_R   0.738786 0.366474 0.851862 0.550540
C63   C     C_R   0.262918 0.358448 0.145260 0.553839
C64   C     C_R   0.238786 0.866474 0.851862 0.550540
C65   C     C_R   0.762918 0.858448 0.145260 0.553839
C66   C     C_R   0.711086 0.997183 0.639632 0.555336
C67   C     C_R   0.203826 0.972794 0.035768 0.080380
C68   C     C_R   0.290070 0.000814 0.360278 0.547551
C69   C     C_R   0.211086 0.497183 0.639632 0.555336
C70   C     C_R   0.790070 0.500814 0.360278 0.547551
C71   C     C_R   0.527543 0.174568 0.646003 0.557922
C72   C     C_R   0.468760 0.176344 0.356726 0.569451
C73   C     C_R   0.027543 0.674568 0.646003 0.557922
C74   C     C_R   0.968760 0.676344 0.356726 0.569451
C75   C     C_R   0.739348 0.364223 0.646356 0.549641
C76   C     C_R   0.260362 0.363656 0.353323 0.570808
C77   C     C_R   0.239348 0.864223 0.646356 0.549641
C78   C     C_R   0.802021 0.979199 0.963965 0.082092
C79   C     C_R   0.760362 0.863656 0.353323 0.570808
C80   C     C_2   0.503254 0.164768 0.924136 -0.118992
C81   C     C_2   0.505703 0.169314 0.080814 -0.104857
C82   C     C_2   0.003254 0.664768 0.924136 -0.118992
C83   C     C_2   0.005703 0.669314 0.080814 -0.104857
C84   C     C_2   0.511413 0.063501 0.043750 0.133150
C85   C     C_2   0.513371 0.061663 0.964379 0.141611
C86   C     C_2   0.011413 0.563501 0.043750 0.133150
C87   C     C_2   0.013371 0.561662 0.964379 0.141611
C88   C     C_R   0.693478 0.449905 0.963742 -0.132651
C89   C     C_R   0.773341 0.473024 0.063980 0.055643
C90   C     C_R   0.304610 0.464396 0.037544 -0.116723
C91   C     C_R   0.193478 0.949905 0.963742 -0.132651
C92   C     C_R   0.804610 0.964396 0.037543 -0.116723
Cr1   Cr    Cr6+3 0.769270 0.163730 0.750710 1.069229
Cr2   Cr    Cr6+3 0.385840 0.322500 0.252290 1.078636
Cr3   Cr    Cr6+3 0.114160 0.822500 0.747710 1.079659
Cr4   Cr    Cr6+3 0.885840 0.822500 0.252290 1.078636
Cr5   Cr    Cr6+3 0.230730 0.163730 0.249290 1.089334
Cr6   Cr    Cr6+3 0.269270 0.663730 0.750710 1.069229
Cr7   Cr    Cr6+3 0.730730 0.663730 0.249290 1.089334
Cr8   Cr    Cr6+3 0.612620 0.009790 0.748780 1.121674
Cr9   Cr    Cr6+3 0.387380 0.009790 0.251220 1.130355
Cr10  Cr    Cr6+3 0.112620 0.509790 0.748780 1.121674
Cr11  Cr    Cr6+3 0.887380 0.509790 0.251220 1.130355
Cr12  Cr    Cr6+3 0.614160 0.322500 0.747710 1.079659
H1    H     H_    0.882353 0.409340 0.455304 0.208259
H2    H     H_    0.486197 0.250435 0.947781 0.060385
H3    H     H_    0.013726 0.757157 0.055488 0.062296
H4    H     H_    0.986197 0.750435 0.947781 0.060385
H5    H     H_    0.640075 0.443186 0.943208 0.138211
H6    H     H_    0.344088 0.512285 0.068875 0.143248
H7    H     H_    0.140075 0.943186 0.943208 0.138211
H8    H     H_    0.844089 0.012285 0.068875 0.143248
H9    H     H_    0.883536 0.455922 0.039678 0.176468
H10   H     H_    0.167973 0.276880 0.927736 0.178713
H11   H     H_    0.383536 0.955922 0.039678 0.176467
H12   H     H_    0.159288 0.305480 0.565497 0.223823
H13   H     H_    0.667972 0.776881 0.927736 0.178713
H14   H     H_    0.864440 0.410738 0.914644 0.187715
H15   H     H_    0.172581 0.254224 0.053235 0.182508
H16   H     H_    0.364440 0.910738 0.914644 0.187715
H17   H     H_    0.672581 0.754225 0.053235 0.182509
H18   H     H_    0.460419 0.350108 0.574562 0.186788
H19   H     H_    0.450373 0.358313 0.449195 0.196440
H20   H     H_    0.960419 0.850108 0.574562 0.186788
H21   H     H_    0.950373 0.858313 0.449195 0.196440
H22   H     H_    0.861668 0.359638 0.577740 0.199373
H23   H     H_    0.382353 0.909341 0.455304 0.208259
H24   H     H_    0.175288 0.260037 0.444992 0.179232
H25   H     H_    0.361668 0.859638 0.577740 0.199373
H26   H     H_    0.675288 0.760037 0.444992 0.179232
H27   H     H_    0.613710 0.407012 0.076762 0.233204
H28   H     H_    0.612583 0.559353 0.059929 0.236758
H29   H     H_    0.385473 0.505525 0.900881 0.231735
H30   H     H_    0.381782 0.606678 0.968078 0.243042
H31   H     H_    0.113710 0.907012 0.076762 0.233205
H32   H     H_    0.112583 0.059353 0.059929 0.236758
H33   H     H_    0.885473 0.005523 0.900881 0.231735
H34   H     H_    0.659288 0.805480 0.565497 0.223823
H35   H     H_    0.881784 0.106676 0.968077 0.243042
H36   H     H_    0.670135 0.547079 0.434228 0.171326
H37   H     H_    0.296449 0.620346 0.549313 0.164201
H38   H     H_    0.170135 0.047079 0.434228 0.171326
H39   H     H_    0.796449 0.120346 0.549313 0.164201
H40   H     H_    0.513726 0.257157 0.055488 0.062296
N1    N     N_3   0.643485 0.487487 0.080114 -0.571999
N2    N     N_3   0.351024 0.560266 0.930342 -0.562808
N3    N     N_3   0.143485 0.987487 0.080114 -0.571999
N4    N     N_3   0.851025 0.060264 0.930342 -0.562808
O1    O     O_R   0.784320 0.290430 0.830510 -0.483917
O2    O     O_R   0.456080 0.282180 0.333210 -0.506483
O3    O     O_R   0.043920 0.782180 0.666790 -0.488114
O4    O     O_R   0.956080 0.782180 0.333210 -0.506483
O5    O     O_R   0.679040 0.374160 0.674430 -0.450282
O6    O     O_R   0.320960 0.374160 0.325570 -0.466788
O7    O     O_R   0.179040 0.874160 0.674430 -0.450282
O8    O     O_R   0.820960 0.874160 0.325570 -0.466788
O9    O     O_3   0.665350 0.165340 0.749070 -0.294582
O10   O     O_3   0.334650 0.165340 0.250930 -0.335319
O11   O     O_3   0.165350 0.665340 0.749070 -0.294582
O12   O     O_R   0.215680 0.290430 0.169490 -0.493156
O13   O     O_3   0.834650 0.665340 0.250930 -0.335320
O14   O     O_R   0.762640 0.040960 0.825200 -0.466641
O15   O     O_R   0.237360 0.040960 0.174800 -0.450045
O16   O     O_R   0.262640 0.540960 0.825200 -0.466641
O17   O     O_R   0.737360 0.540960 0.174800 -0.450046
O18   O     O_R   0.667400 0.923970 0.829950 -0.482952
O19   O     O_R   0.332600 0.923970 0.170050 -0.473700
O20   O     O_R   0.167400 0.423970 0.829950 -0.482952
O21   O     O_R   0.832600 0.423970 0.170050 -0.473700
O22   O     O_R   0.553960 0.081340 0.821780 -0.440936
O23   O     O_R   0.284320 0.790430 0.830510 -0.483917
O24   O     O_R   0.446040 0.081340 0.178220 -0.464290
O25   O     O_R   0.053960 0.581340 0.821780 -0.440936
O26   O     O_R   0.946040 0.581340 0.178220 -0.464290
O27   O     O_R   0.543180 0.283240 0.826740 -0.524308
O28   O     O_R   0.456820 0.283240 0.173260 -0.511858
O29   O     O_R   0.043180 0.783240 0.826740 -0.524308
O30   O     O_R   0.956820 0.783240 0.173260 -0.511858
O31   O     O_R   0.678360 0.375140 0.822710 -0.506526
O32   O     O_R   0.321640 0.375140 0.177290 -0.501113
O33   O     O_R   0.178360 0.875140 0.822710 -0.506526
O34   O     O_R   0.715680 0.790430 0.169490 -0.493156
O35   O     O_R   0.821640 0.875140 0.177290 -0.501113
O36   O     O_R   0.785050 0.289380 0.670560 -0.531936
O37   O     O_R   0.214950 0.289380 0.329440 -0.508710
O38   O     O_R   0.285050 0.789380 0.670560 -0.531936
O39   O     O_R   0.714950 0.789380 0.329440 -0.508710
O40   O     O_R   0.763320 0.039990 0.676930 -0.505489
O41   O     O_R   0.236680 0.039990 0.323070 -0.494121
O42   O     O_R   0.263320 0.539990 0.676930 -0.505489
O43   O     O_R   0.736680 0.539990 0.323070 -0.494121
O44   O     O_R   0.668130 0.922920 0.670000 -0.480614
O45   O     O_R   0.554640 0.080370 0.673500 -0.472781
O46   O     O_R   0.331870 0.922920 0.330000 -0.442660
O47   O     O_R   0.168130 0.422920 0.670000 -0.480614
O48   O     O_R   0.831870 0.422920 0.330000 -0.442660
O49   O     O_R   0.445360 0.080370 0.326500 -0.476430
O50   O     O_R   0.054640 0.580370 0.673500 -0.472781
O51   O     O_R   0.945360 0.580370 0.326500 -0.476430
O52   O     O_R   0.543920 0.282180 0.666790 -0.488114

loop_
_geom_bond_atom_site_label_1
_geom_bond_atom_site_label_2
_ccdc_geom_bond_type
C32   C37   A    
C46   C50   A    
Cr1   O36   S    
C68   O46   A    
C9    C14   A    
C4    C78   A    
C60   C77   S    
C42   O29   A    
C10   H15   S    
Cr6   O38   S    
C29   C30   A    
C2    C6    A    
Cr5   O37   S    
Cr2   O32   S    
C8    H13   S    
C91   H7    S    
C73   O50   A    
Cr4   O30   S    
C70   O48   A    
C83   C86   D    
Cr3   O11   S    
Br10  C55   S    
C3    C7    A    
C77   O38   A    
Cr4   O4    S    
C52   H39   S    
C48   C66   S    
Cr10  O25   S    
Br7   C87   S    
C32   C59   A    
C25   C29   A    
C23   O16   A    
Br6   C86   S    
C34   O21   A    
C41   O28   A    
C56   C90   A    
Cr8   O45   S    
C26   C30   A    
C67   N3    S    
C70   O43   A    
C56   N2    S    
Cr9   O24   S    
C8    C13   A    
C24   C71   S    
C53   C58   A    
C22   C72   S    
Cr10  O47   S    
C31   H22   S    
C55   C60   A    
C43   O26   A    
Cr11  O13   S    
C37   H12   S    
C5    C89   A    
Br9   C54   S    
C77   O7    A    
C80   H2    S    
Cr7   O39   S    
C82   H4    S    
Cr1   O40   S    
C3    C67   A    
C54   C59   A    
C39   H34   S    
C21   H21   S    
C18   H18   S    
C42   O25   A    
C18   C24   A    
Cr12  O9    S    
C57   C61   A    
C40   O27   A    
C20   C26   A    
C64   O23   A    
C13   H17   S    
C31   C36   A    
C35   C61   A    
C71   O52   A    
Cr5   O12   S    
C69   O47   A    
C79   O39   A    
Cr6   O11   S    
Cr4   O8    S    
H31   N3    S    
Br8   C53   S    
C32   H24   S    
C14   C62   S    
Cr7   O13   S    
Cr11  O48   S    
Cr4   O13   S    
C33   C60   A    
C33   H25   S    
Cr2   O10   S    
C34   O17   A    
C67   C91   A    
Cr10  O11   S    
C66   O40   A    
C15   C63   S    
C58   C75   S    
Cr11  O21   S    
C80   C85   D    
H27   N1    S    
C69   O42   A    
C51   C55   A    
C13   C17   A    
C1    O14   A    
C34   C89   S    
Cr3   O7    S    
C42   C82   S    
C50   C54   A    
C26   C73   S    
C41   C81   S    
C22   C27   A    
C43   O30   A    
C25   C74   S    
C24   C28   A    
C74   O51   A    
Cr12  O27   S    
C19   H19   S    
C46   C69   S    
Cr7   O43   S    
C2    C23   S    
C20   H20   S    
Cr11  O26   S    
C38   H23   S    
Cr8   O22   S    
C83   H3    S    
C11   C16   A    
C45   C88   A    
C21   C25   A    
C37   C46   A    
C59   C76   S    
C17   C92   A    
C48   C52   A    
H32   N3    S    
C76   O37   A    
C7    C11   A    
C65   O34   A    
Br2   C28   S    
C79   O8    A    
Cr8   O9    S    
C35   H26   S    
C4    C8    A    
C78   C92   A    
C84   C85   S    
Cr3   O29   S    
C12   O19   A    
Br11  C57   S    
C19   C22   A    
C52   C57   A    
Cr4   O35   S    
C61   C79   S    
C49   H36   S    
C36   H1    S    
Cr1   O9    S    
H30   N2    S    
C43   C83   S    
C3    C12   S    
Cr9   O19   S    
Cr12  O31   S    
Cr3   O3    S    
Cr6   O23   S    
C81   C84   D    
C76   O6    A    
Cr1   O14   S    
C10   C15   A    
C73   O3    A    
Cr1   O1    S    
Cr12  O5    S    
C41   O24   A    
C74   O4    A    
C38   C47   A    
C16   C64   S    
Cr2   O6    S    
Cr3   O33   S    
C72   O2    A    
Cr5   O10   S    
Cr8   O18   S    
C23   O20   A    
C36   C44   A    
C68   O41   A    
C45   N1    S    
Br3   C29   S    
C2    C56   A    
C6    C10   A    
C81   H40   S    
C51   H38   S    
C40   O22   A    
C47   C68   S    
C75   O36   A    
C62   O1    A    
C35   C39   A    
Cr5   O15   S    
C44   C70   S    
Cr9   O10   S    
C92   H8    S    
Cr6   O16   S    
C31   C58   A    
C45   C89   A    
C15   C90   A    
C47   C51   A    
C50   H37   S    
Cr11  O51   S    
Cr6   O42   S    
C82   C87   D    
H35   N4    S    
Cr10  O50   S    
Br12  C27   S    
Cr5   O41   S    
C63   O32   A    
C65   O35   A    
Cr9   O49   S    
Cr12  O52   S    
Cr9   O46   S    
H29   N2    S    
C16   C91   A    
C5    H9    S    
C18   C19   A    
Br4   C30   S    
C33   C38   A    
Br1   C84   S    
C7    H11   S    
C72   O49   A    
C11   H16   S    
Br5   C85   S    
Cr2   O2    S    
C78   N4    S    
C20   C21   A    
H33   N4    S    
C5    C9    A    
C9    H14   S    
Cr10  O20   S    
C40   C80   S    
C64   O33   A    
C75   O5    A    
Cr7   O34   S    
Cr2   O28   S    
C62   O31   A    
C27   C28   A    
C49   C53   A    
C66   O44   A    
C17   C65   S    
C71   O45   A    
C86   C87   S    
C1    C4    S    
C63   O12   A    
Cr7   O17   S    
Cr8   O44   S    
C44   C49   A    
C39   C48   A    
H28   N1    S    
C90   H6    S    
C12   O15   A    
C6    H10   S    
C1    O18   A    
C14   C88   A    
C88   H5    S    
