data_mof_unit_53655.cif
_audit_creation_date              2012-10-26T21:21:35-0400
_audit_creation_method            fapswitch 2.2
_symmetry_space_group_name_H-M    P1
_symmetry_Int_Tables_number       1
_space_group_crystal_system       triclinic
_cell_length_a                    14.339276
_cell_length_b                    10.778549
_cell_length_c                    9.609902
_cell_angle_alpha                 89.920528
_cell_angle_beta                  90.012313
_cell_angle_gamma                 92.209434
_cell_volume                      1484.16804762

loop_
_atom_site_label
_atom_site_type_symbol
_atom_type_description
_atom_site_fract_x
_atom_site_fract_y
_atom_site_fract_z
_atom_type_partial_charge
C1    C     C_R   0.501039 0.262752 0.500115 0.590185
C2    C     C_R   0.579737 0.065745 0.465399 0.251455
C3    C     C_R   0.576701 0.937086 0.464236 -0.091707
C4    C     C_R   0.331199 0.499539 0.500012 0.512972
C5    C     C_R   0.495308 0.870346 0.500103 -0.036135
C6    C     C_R   0.623081 0.665967 0.142996 -0.136150
C7    C     C_R   0.682966 0.749408 0.070900 0.225991
C8    C     C_R   0.682278 0.749032 0.926489 0.276366
C9    C     C_R   0.622604 0.665863 0.855981 -0.126857
C10   C     C_R   0.560244 0.581656 0.925234 0.102059
C11   C     C_R   0.560321 0.581661 0.074408 0.122571
C12   C     C_1   0.771196 0.502563 0.499968 0.057227
C13   C     C_R   0.442791 0.422152 0.073945 0.028476
C14   C     C_R   0.442819 0.422176 0.926147 0.025997
C15   C     C_R   0.498747 0.737023 0.499953 0.524141
C16   C     C_R   0.668812 0.501518 0.499976 0.585690
C17   C     C_1   0.228849 0.500191 0.500039 -0.045424
C18   C     C_1   0.143424 0.500912 0.500099 -0.033410
C19   C     C_1   0.042749 0.501757 0.500121 0.020629
C20   C     C_1   0.957312 0.502336 0.500089 0.036414
C21   C     C_1   0.856635 0.502714 0.500015 0.028921
C22   C     C_R   0.332280 0.122761 0.571052 -0.100320
C23   C     C_R   0.250884 0.054858 0.606123 -0.106035
C24   C     C_R   0.249913 0.925712 0.607079 -0.105528
C25   C     C_R   0.330288 0.863753 0.572714 -0.080850
C26   C     C_R   0.413544 0.930780 0.537160 0.020581
C27   C     C_R   0.414860 0.061865 0.536596 -0.019386
C28   C     C_R   0.498476 0.128439 0.500516 -0.012903
Cu1   Cu    Cu3+1 0.499990 0.499990 0.640660 0.969405
Cu2   Cu    Cu3+1 0.500010 0.500010 0.359340 0.980797
H1    H     H_    0.628166 0.671151 0.746618 0.207497
H2    H     H_    0.828642 0.096079 0.381027 0.379060
H3    H     H_    0.900937 0.915814 0.843271 0.368556
H4    H     H_    0.737048 0.818775 0.241499 0.329731
H5    H     H_    0.395953 0.358307 0.871113 0.115576
H6    H     H_    0.329600 0.222905 0.570790 0.112248
H7    H     H_    0.188249 0.102679 0.632321 0.128004
H8    H     H_    0.186545 0.873298 0.634014 0.130979
H9    H     H_    0.326475 0.763385 0.573646 0.126832
H10   H     H_    0.638679 0.887628 0.438385 0.170879
H11   H     H_    0.395898 0.358285 0.129073 0.116959
H12   H     H_    0.628678 0.671264 0.252553 0.166040
N1    N     N_R   0.500820 0.501210 0.147910 -0.220469
N2    N     N_R   0.500850 0.501290 0.852040 -0.226432
O1    O     O_R   0.499990 0.319640 0.618810 -0.479975
O2    O     O_2   0.715296 0.221298 0.556490 -0.269465
O3    O     O_3   0.771507 0.043857 0.398674 -0.491563
O4    O     O_2   0.757686 0.820838 0.680251 -0.319253
O5    O     O_2   0.720041 0.982838 0.847855 -0.200871
O6    O     O_3   0.864737 0.851871 0.896864 -0.455766
O7    O     O_3   0.742803 0.832095 0.139768 -0.582638
O8    O     O_R   0.500000 0.319660 0.381240 -0.464136
O9    O     O_R   0.376050 0.499990 0.618810 -0.497561
O10   O     O_R   0.376060 0.500010 0.381240 -0.485895
O11   O     O_R   0.500000 0.680340 0.618760 -0.513463
O12   O     O_R   0.500010 0.680360 0.381190 -0.519847
O13   O     O_R   0.623940 0.499990 0.618760 -0.483795
O14   O     O_R   0.623950 0.500010 0.381190 -0.478811
O15   O     O_2   0.678101 0.228966 0.307482 -0.255698
S1    S     S_3+6 0.687824 0.145056 0.431233 0.051258
S2    S     S_3+6 0.755893 0.854419 0.832033 0.076845

loop_
_geom_bond_atom_site_label_1
_geom_bond_atom_site_label_2
_ccdc_geom_bond_type
C1    C28   S    
C24   H8    S    
C23   C24   A    
C24   C25   A    
C11   N1    A    
C6    C7    A    
C4    O9    A    
C22   H6    S    
C9    C10   A    
C19   C20   T    
C8    S2    S    
C16   O13   A    
O2    S1    D    
C15   O12   A    
C13   H11   S    
C17   C18   T    
H3    O6    S    
C7    O7    S    
O15   S1    D    
C25   C26   A    
C16   O14   A    
C13   C14   A    
C25   H9    S    
Cu2   O10   S    
C1    O1    A    
H4    O7    S    
Cu1   Cu2   S    
Cu1   O9    S    
C4    C17   S    
Cu2   O14   S    
H2    O3    S    
Cu1   O13   S    
C3    H10   S    
C2    C3    A    
C22   C27   A    
Cu1   N2    S    
C26   C27   A    
C1    O8    A    
C2    S1    S    
Cu2   N1    S    
C5    C15   S    
O5    S2    D    
C10   C11   A    
C9    H1    S    
C10   N2    A    
C5    C26   A    
C3    C5    A    
C13   N1    A    
C20   C21   S    
C14   N2    A    
C7    C8    A    
C6    H12   S    
O4    S2    D    
C6    C11   A    
O6    S2    S    
Cu2   O8    S    
C22   C23   A    
C18   C19   S    
C2    C28   A    
Cu1   O11   S    
C4    O10   A    
O3    S1    S    
C23   H7    S    
Cu2   O12   S    
C12   C21   T    
C14   H5    S    
C12   C16   S    
Cu1   O1    S    
C8    C9    A    
C27   C28   A    
C15   O11   A    
