data_mof_unit_68192.cif
_audit_creation_date              2013-03-05T16:03:14-0500
_audit_creation_method            fapswitch 2.2
_symmetry_space_group_name_H-M    P1
_symmetry_Int_Tables_number       1
_space_group_crystal_system       triclinic
_cell_length_a                    6.955545
_cell_length_b                    13.899511
_cell_length_c                    16.697294
_cell_angle_alpha                 90.045471
_cell_angle_beta                  89.962169
_cell_angle_gamma                 90.080767
_cell_volume                      1614.26978437

loop_
_atom_site_label
_atom_site_type_symbol
_atom_site_description
_atom_site_fract_x
_atom_site_fract_y
_atom_site_fract_z
_atom_type_partial_charge
O1    O     O_R   0.361630 0.167340 0.164570 -0.590243
O2    O     O_R   0.638370 0.832660 0.835430 -0.596971
O3    O     O_R   0.690860 0.157560 0.338690 -0.558569
O4    O     O_R   0.309140 0.842440 0.661310 -0.557474
O5    O     O_R   0.861260 0.336420 0.339380 -0.571440
O6    O     O_R   0.138740 0.663580 0.660620 -0.572856
C1    C     C_R   0.522443 0.133636 0.366849 1.296711
C2    C     C_R   0.477360 0.865603 0.632624 1.292558
O7    O     O_R   0.691330 0.156310 0.165190 -0.575268
O8    O     O_R   0.308670 0.843690 0.834810 -0.566438
O9    O     O_R   0.861730 0.335160 0.164640 -0.588939
O10   O     O_R   0.138270 0.664840 0.835360 -0.592387
C3    C     C_R   0.522353 0.129534 0.139565 0.921194
C4    C     C_R   0.477987 0.871025 0.860026 0.918664
O11   O     O_R   0.361150 0.168600 0.339320 -0.563984
O12   O     O_R   0.638850 0.831400 0.660680 -0.565590
O13   O     O_3   0.527950 0.310560 0.252000 -0.255194
O14   O     O_3   0.472050 0.689440 0.748000 -0.255728
V1    V     V_3+5 0.802770 0.240990 0.251980 1.387400
V2    V     V_3+5 0.197230 0.759010 0.748020 1.387626
O15   O     O_R   0.191450 0.346190 0.165260 -0.575406
O16   O     O_R   0.808550 0.653810 0.834740 -0.569693
C5    C     C_R   0.022394 0.373801 0.140590 0.953670
C6    C     C_R   0.977712 0.626209 0.859460 0.949286
O17   O     O_R   0.190980 0.347440 0.338770 -0.557342
O18   O     O_R   0.809020 0.652560 0.661230 -0.558567
C7    C     C_R   0.022762 0.368062 0.368413 1.252386
C8    C     C_R   0.977024 0.631560 0.631830 1.251424
V3    V     V_3+5 0.302780 0.262760 0.251980 1.383908
V4    V     V_3+5 0.697220 0.737240 0.748020 1.381515
O19   O     O_3   0.027730 0.193200 0.251960 -0.251956
O20   O     O_3   0.972270 0.806800 0.748040 -0.252120
C9    C     C_3   0.825112 0.468352 0.480131 0.833596
C10   C     C_3   0.173277 0.530606 0.520432 0.834763
C11   C     C_3   0.917269 0.454175 0.563718 -0.293187
C12   C     C_3   0.080445 0.545307 0.436696 -0.288903
H1    H     H_    0.846414 0.412968 0.611851 0.290704
H2    H     H_    0.148864 0.588496 0.388914 0.282331
C13   C     C_3   0.985241 0.561087 0.562704 -0.572737
C14   C     C_3   0.013144 0.438191 0.437749 -0.569435
C15   C     C_3   0.892086 0.573576 0.479872 0.181204
C16   C     C_3   0.105418 0.425445 0.520752 0.178435
C17   C     C_R   0.011933 0.702958 0.014918 -0.318796
C18   C     C_R   0.002222 0.296851 0.984677 -0.317284
C19   C     C_R   0.029489 0.749396 0.088427 0.138774
C20   C     C_R   0.987221 0.250628 0.910937 0.140806
C21   C     C_R   0.038235 0.693126 0.158241 0.169281
C22   C     C_R   0.970795 0.307019 0.841621 0.158661
C23   C     C_R   0.031931 0.591736 0.152828 0.239822
C24   C     C_R   0.967354 0.408387 0.847395 0.246772
C25   C     C_R   0.017300 0.543512 0.077536 -0.017990
C26   C     C_R   0.983537 0.456489 0.922617 -0.019055
C27   C     C_R   0.005805 0.601583 0.007393 0.108718
C28   C     C_R   0.999592 0.398323 0.992576 0.107559
C29   C     C_R   0.013718 0.440501 0.069851 -0.137625
C30   C     C_R   0.987171 0.559480 0.930258 -0.135385
H3    H     H_    0.999935 0.748626 0.962941 0.186291
H4    H     H_    0.014556 0.251065 0.036600 0.184601
C31   C     C_3   0.324296 0.019735 0.471712 0.709030
C32   C     C_3   0.674736 0.977887 0.526628 0.709218
C33   C     C_3   0.412858 0.918246 0.477833 -0.045914
C34   C     C_3   0.586000 0.079260 0.520504 -0.052439
C35   C     C_3   0.485360 0.938345 0.563547 -0.847099
C36   C     C_3   0.513762 0.059354 0.434841 -0.846551
C37   C     C_3   0.396963 0.041318 0.557263 0.769546
C38   C     C_3   0.601972 0.956216 0.441009 0.771241
C39   C     C_R   0.497037 0.203483 0.982186 -0.389532
C40   C     C_R   0.513389 0.797450 0.017307 -0.387231
C41   C     C_R   0.484232 0.247424 0.907433 0.061670
C42   C     C_R   0.537585 0.753807 0.091736 0.055392
C43   C     C_R   0.472381 0.189118 0.839691 0.730614
C44   C     C_R   0.558282 0.812453 0.158951 0.737001
C45   C     C_R   0.468819 0.088685 0.846198 0.152000
C46   C     C_R   0.546228 0.912660 0.152824 0.157167
C47   C     C_R   0.483320 0.042017 0.921895 -0.068960
C48   C     C_R   0.523437 0.958962 0.077398 -0.090937
C49   C     C_R   0.497659 0.102012 0.991335 0.125528
C50   C     C_R   0.509084 0.898892 0.008042 0.124147
C51   C     C_R   0.487920 0.939142 0.930415 -0.075154
C52   C     C_R   0.514122 0.061659 0.069055 -0.084649
H5    H     H_    0.507757 0.250539 0.033471 0.201586
H6    H     H_    0.497053 0.750228 0.966388 0.203429
F1    F     F_    0.286354 0.091170 0.611812 -0.480561
F2    F     F_    0.712242 0.905567 0.386816 -0.480061
F3    F     F_    0.587582 0.772929 0.232213 -0.517012
F4    F     F_    0.464054 0.229272 0.765775 -0.515518
N1    N     N_R   0.482678 0.351041 0.901224 0.245120
O21   O     O_R   0.450981 0.393396 0.833060 -0.253972
O22   O     O_R   0.507672 0.404323 0.964487 -0.363795
N2    N     N_R   0.539578 0.650205 0.098230 0.244058
O23   O     O_R   0.555370 0.608119 0.167470 -0.253211
O24   O     O_R   0.521425 0.596642 0.034727 -0.363071
N3    N     N_R   0.450298 0.036143 0.773815 0.230703
O25   O     O_R   0.591767 0.037336 0.722898 -0.326468
O26   O     O_R   0.279296 0.010649 0.750604 -0.277909
N4    N     N_R   0.558036 0.965464 0.225331 0.233344
O27   O     O_R   0.408832 0.968704 0.272136 -0.334707
O28   O     O_R   0.726058 0.990905 0.251974 -0.267542
F5    F     F_    0.642204 0.438015 0.459543 -0.595424
F6    F     F_    0.356413 0.560341 0.541212 -0.598035
N5    N     N_R   0.765790 0.651064 0.454576 0.320599
O29   O     O_R   0.660327 0.639746 0.391025 -0.149517
O30   O     O_R   0.744255 0.727368 0.498682 -0.324044
N6    N     N_R   0.225263 0.345761 0.546820 0.316867
O31   O     O_R   0.293105 0.345085 0.619316 -0.147064
O32   O     O_R   0.258335 0.273363 0.499506 -0.326090
N7    N     N_R   0.958309 0.262564 0.764261 0.292583
O33   O     O_R   0.091612 0.204372 0.739417 -0.166482
O34   O     O_R   0.817573 0.283837 0.716604 -0.226753
N8    N     N_R   0.058237 0.737673 0.235374 0.297642
O35   O     O_R   0.203243 0.793631 0.250207 -0.236000
O36   O     O_R   0.936613 0.719366 0.292384 -0.181375
N9    N     N_R   0.033031 0.853483 0.090120 0.233194
O37   O     O_R   0.994906 0.901273 0.155075 -0.300769
O38   O     O_R   0.059004 0.901906 0.024329 -0.360125
N10   N     N_R   0.984213 0.146632 0.908529 0.238642
O39   O     O_R   0.906428 0.100369 0.849084 -0.329057
O40   O     O_R   0.041938 0.097186 0.970088 -0.358683
N11   N     N_R   0.046373 0.539123 0.225367 0.195704
O41   O     O_R   0.215161 0.522995 0.255904 -0.358398
O42   O     O_R   0.891783 0.522451 0.266908 -0.364384
N12   N     N_R   0.953494 0.461072 0.774836 0.196747
O43   O     O_R   0.105375 0.470469 0.730162 -0.372238
O44   O     O_R   0.784591 0.482629 0.746812 -0.345544
N13   N     N_R   0.310651 0.831493 0.453908 0.320052
O45   O     O_R   0.149312 0.808819 0.488443 -0.280626
O46   O     O_R   0.378771 0.776843 0.397618 -0.165461
N14   N     N_R   0.686405 0.166466 0.544200 0.319884
O47   O     O_R   0.852136 0.187395 0.512638 -0.275643
O48   O     O_R   0.605127 0.226839 0.592803 -0.160857
F7    F     F_    0.140667 0.038422 0.444199 -0.529920
F8    F     F_    0.858419 0.959315 0.554133 -0.530029

loop_
_geom_bond_atom_site_label_1
_geom_bond_atom_site_label_2
_geom_bond_distance
_ccdc_geom_bond_type
V4    O20   2.142340 S    
N1    O21   1.300890 A    
C35   C37   1.562182 S    
N3    O25   1.300070 A    
O13   V3    1.700414 S    
C39   C49   1.418787 A    
C45   N3    1.417467 S    
O4    C2    1.304056 A    
V1    O19   1.700740 S    
N14   O47   1.299875 A    
C32   F8    1.382665 S    
N6    O32   1.299546 A    
C44   F3    1.357003 S    
C21   C23   1.412709 A    
C25   C29   1.437617 A    
O9    V1    2.002232 S    
C31   C36   1.554472 S    
N5    O29   1.299714 A    
C46   C48   1.423815 A    
C32   C35   1.553888 S    
C11   H1    1.102846 S    
C48   C50   1.430596 A    
O3    C1    1.304732 A    
C37   F1    1.378837 S    
C22   N7    1.434081 S    
O12   V4    2.002449 S    
N10   O39   1.300048 A    
C32   C34   1.542572 S    
O7    V1    2.020503 S    
C19   C21   1.405701 A    
C41   C43   1.393359 A    
C11   C16   1.544854 S    
O7    C3    1.304669 A    
N8    O35   1.296685 A    
C34   C36   1.541036 S    
C9    C11   1.549069 S    
O5    C7    1.299734 A    
N2    O24   1.301225 A    
C33   C38   1.544123 S    
C17   C27   1.415149 A    
O6    C8    1.301286 A    
O8    V2    2.020504 S    
C10   C16   1.535389 S    
C23   C25   1.427857 A    
N1    O22   1.301213 A    
N4    O28   1.299244 A    
C24   C26   1.426842 A    
N7    O33   1.298878 A    
O3    V1    2.011335 S    
O14   V4    1.700414 S    
C10   C12   1.554209 S    
C41   N1    1.444103 S    
C22   C24   1.412415 A    
C3    C52   1.509174 S    
C32   C38   1.546111 S    
N5    O30   1.299506 A    
C40   C50   1.418935 A    
N7    O34   1.296566 A    
C12   C15   1.546068 S    
C42   N2    1.444263 S    
O1    V3    2.013566 S    
N6    O31   1.299543 A    
C26   C28   1.425672 A    
O11   V3    2.002450 S    
N11   O42   1.299824 A    
O17   V3    2.022005 S    
N3    O26   1.299879 A    
C20   C22   1.403147 A    
C31   C33   1.543562 S    
C9    C14   1.544957 S    
C10   C13   1.545357 S    
C46   N4    1.417646 S    
C12   C14   1.560200 S    
C13   C15   1.537773 S    
O8    C4    1.306804 A    
C18   H4    1.079409 S    
C43   C45   1.400464 A    
C50   C51   1.419974 A    
C1    O11   1.307159 A    
C18   C20   1.392262 A    
C8    C13   1.514349 S    
O15   V3    2.011900 S    
N14   O48   1.296926 A    
C25   C27   1.425268 A    
C36   C38   1.563635 S    
C11   C13   1.558892 S    
C19   N9    1.447188 S    
C43   F4    1.356224 S    
C17   C19   1.391672 A    
C10   F6    1.382998 S    
C7    C14   1.514338 S    
C31   F7    1.382665 S    
N4    O27   1.299548 A    
O10   V2    2.002232 S    
C33   C35   1.542918 S    
C4    C51   1.510187 S    
C5    C29   1.503415 S    
C47   C49   1.431112 A    
N10   O40   1.300964 A    
C44   C46   1.399291 A    
C39   H5    1.079677 S    
O15   C5    1.304536 A    
N13   O45   1.299852 A    
O16   C6    1.305423 A    
O1    C3    1.304184 A    
C45   C47   1.424816 A    
N12   O44   1.300329 A    
N9    O37   1.298789 A    
V2    O20   1.700739 S    
C27   C30   1.420164 A    
C28   C29   1.420211 A    
O16   V4    2.011900 S    
C34   C37   1.543107 S    
C48   C52   1.435883 A    
C14   C16   1.538179 S    
C16   N6    1.454255 S    
C42   C44   1.393992 A    
N11   O41   1.300102 A    
O18   V4    2.022006 S    
O5    V1    2.012659 S    
C6    C30   1.504683 S    
C21   N8    1.435320 S    
O6    V2    2.012662 S    
O10   C6    1.302102 A    
O18   C8    1.300651 A    
C20   N10   1.446149 S    
O2    V4    2.013562 S    
C9    F5    1.383242 S    
C40   H6    1.079639 S    
C12   H2    1.105812 S    
C9    C15   1.534346 S    
V3    O19   2.142340 S    
C31   C37   1.544616 S    
C34   N14   1.452831 S    
C49   C52   1.418893 A    
N2    O23   1.300889 A    
C23   N11   1.419043 S    
O9    C5    1.302533 A    
O13   V1    2.143408 S    
C15   N5    1.453957 S    
O14   V2    2.143409 S    
O2    C4    1.303155 A    
N8    O36   1.298173 A    
C1    C36   1.536273 S    
C17   H3    1.078987 S    
C2    C35   1.535349 S    
C38   F2    1.379237 S    
O4    V2    2.011339 S    
C18   C28   1.416600 A    
C24   N12   1.419564 S    
C2    O12   1.307560 A    
N13   O46   1.297766 A    
C40   C42   1.393744 A    
C33   N13   1.454709 S    
C39   C41   1.392980 A    
N12   O43   1.299306 A    
C47   C51   1.437491 A    
C26   C30   1.437295 A    
N9    O38   1.301141 A    
O17   C7    1.302351 A    
