data_mof_unit_23848.cif
_audit_creation_date              2012-12-10T16:50:12-0500
_audit_creation_method            fapswitch 2.2
_symmetry_space_group_name_H-M    P1
_symmetry_Int_Tables_number       1
_space_group_crystal_system       triclinic
_cell_length_a                    23.506904
_cell_length_b                    8.726927
_cell_length_c                    7.463063
_cell_angle_alpha                 103.043328
_cell_angle_beta                  95.516062
_cell_angle_gamma                 93.158824
_cell_volume                      1479.92520857

loop_
_atom_site_label
_atom_site_type_symbol
_atom_type_description
_atom_site_fract_x
_atom_site_fract_y
_atom_site_fract_z
_atom_type_partial_charge
C1    C     C_R   0.499896 0.200405 0.453739 0.796119
C2    C     C_R   0.500295 0.799709 0.546336 0.767918
C3    C     C_R   0.246738 0.661268 0.546630 0.453455
C4    C     C_R   0.755021 0.431565 0.323617 0.461328
C5    C     C_R   0.306167 0.653658 0.565346 0.359337
C6    C     C_R   0.695293 0.421661 0.331733 0.265170
C7    C     C_R   0.329287 0.507767 0.498815 -0.336684
C8    C     C_R   0.672506 0.493266 0.497837 -0.301359
C9    C     C_R   0.292546 0.377893 0.397875 0.189058
C10   C     C_R   0.710975 0.560003 0.659263 0.188733
C11   C     C_R   0.233019 0.388413 0.383881 0.286205
C12   C     C_R   0.770224 0.551997 0.654041 0.216598
C13   C     C_R   0.209838 0.519704 0.494302 -0.074186
C14   C     C_R   0.792124 0.493422 0.485528 0.099490
C15   C     C_2   0.506398 0.034668 0.431506 0.204433
C16   C     C_2   0.493932 0.965613 0.568840 0.206215
C17   C     C_R   0.391254 0.499074 0.500044 0.860304
C18   C     C_R   0.609353 0.499141 0.499674 0.854893
C19   C     C_R   0.884873 0.636919 0.518241 0.705750
C20   C     C_R   0.119402 0.367881 0.514202 0.686832
C21   C     C_R   0.878419 0.355844 0.446473 0.675158
C22   C     C_R   0.125555 0.638820 0.635733 0.627406
C23   C     C_R   0.938181 0.355457 0.442565 -0.165933
C24   C     C_R   0.065586 0.643813 0.612356 -0.085091
C25   C     C_R   0.971792 0.500638 0.507616 -0.091874
C26   C     C_R   0.032024 0.501747 0.531168 -0.113389
C27   C     C_R   0.945072 0.643785 0.554509 -0.105921
C28   C     C_R   0.058999 0.359168 0.485965 -0.162915
C29   C     C_R   0.965367 0.214247 0.384732 0.404811
C30   C     C_R   0.039281 0.786062 0.667419 0.417591
C31   C     C_R   0.025205 0.215578 0.409572 0.283392
C32   C     C_R   0.978881 0.786144 0.640987 0.222174
Cu1   Cu    Cu3+1 0.506340 0.517380 0.684380 1.115802
Cu2   Cu    Cu3+1 0.493660 0.482620 0.315620 1.113224
N1    N     N_R   0.853156 0.495148 0.479685 -0.433387
N2    N     N_R   0.150562 0.510555 0.542341 -0.450070
N3    N     N_2   0.484110 0.456420 0.038520 0.140968
N4    N     N_2   0.515890 0.543580 0.961480 0.149299
O1    O     O_R   0.504120 0.286130 0.619770 -0.498231
O2    O     O_R   0.495880 0.713870 0.380230 -0.496250
O3    O     O_R   0.493410 0.256770 0.308360 -0.620196
O4    O     O_R   0.506590 0.743230 0.691640 -0.630556
O5    O     O_R   0.423230 0.514630 0.655730 -0.539384
O6    O     O_R   0.576770 0.485370 0.344270 -0.526366
O7    O     O_R   0.412530 0.485280 0.344320 -0.581392
O8    O     O_R   0.587470 0.514720 0.655680 -0.564111
O9    O     O_2   0.857618 0.769229 0.521637 -0.401336
O10   O     O_2   0.146567 0.238387 0.527919 -0.411212
O11   O     O_2   0.845803 0.219265 0.423929 -0.434216
O12   O     O_2   0.157434 0.753440 0.762788 -0.368302
O13   O     O_3   0.934855 0.073690 0.296086 -0.599313
H1    H     H_    0.905394 0.097129 0.203874 0.385642
O14   O     O_3   0.073803 0.923293 0.744497 -0.590790
H2    H     H_    0.053475 0.016030 0.727581 0.368067
Br1   Br    Br    0.057580 0.019402 0.309543 -0.290380
Br2   Br    Br    0.944408 0.975937 0.755454 -0.323782
O15   O     O_3   0.227301 0.808227 0.551171 -0.550289
H3    H     H_    0.191513 0.793926 0.465101 0.353890
O16   O     O_3   0.778957 0.376103 0.161374 -0.641881
H4    H     H_    0.748477 0.345680 0.055922 0.394484
O17   O     O_3   0.339415 0.794394 0.634792 -0.612946
H5    H     H_    0.380560 0.776695 0.638624 0.307140
O18   O     O_3   0.660569 0.338304 0.177001 -0.670554
H6    H     H_    0.631312 0.272297 0.219031 0.334881
Br3   Br    Br    0.323407 0.185276 0.277632 -0.306346
Br4   Br    Br    0.685833 0.671873 0.888593 -0.348434
Br5   Br    Br    0.186996 0.250760 0.173838 -0.240323
Br6   Br    Br    0.822327 0.617953 0.879169 -0.301574
O19   O     O_3   0.528507 0.951065 0.275899 -0.703383
H7    H     H_    0.539930 0.023667 0.198645 0.337639
O20   O     O_3   0.472157 0.049623 0.725008 -0.685435
H8    H     H_    0.462052 0.978040 0.804900 0.349306
O21   O     O_3   0.443900 0.357590 0.924018 -0.536928
H9    H     H_    0.423528 0.303374 0.005138 0.366188
O22   O     O_3   0.554453 0.646789 0.077176 -0.523659
H10   H     H_    0.571983 0.708595 0.997915 0.369475

loop_
_geom_bond_atom_site_label_1
_geom_bond_atom_site_label_2
_ccdc_geom_bond_type
Cu2   N3    S    
O21   H9    S    
C21   O11   S    
O14   H2    S    
C12   Br6   S    
Cu1   O1    S    
Cu2   O2    S    
Cu1   O4    S    
C23   C29   A    
C24   C26   A    
C19   O9    S    
C15   C16   D    
C7    C17   S    
C1    C15   S    
C2    C16   S    
C3    C13   A    
C22   O12   S    
O16   H4    S    
C16   O20   S    
Cu1   O8    S    
O19   H7    S    
Cu2   O3    S    
C18   O8    A    
C11   Br5   S    
C24   C30   A    
N4    O22   S    
C10   Br4   S    
C15   O19   S    
C30   O14   S    
O13   H1    S    
Cu1   O5    S    
Cu2   O6    S    
C13   N2    S    
C4    C6    A    
C14   N1    S    
C5    C7    A    
C6    C8    A    
C20   C28   A    
C25   C26   A    
C8    C18   S    
C6    O18   S    
O22   H10   S    
C17   O5    A    
N3    N4    D    
C18   O6    A    
Cu1   Cu2   S    
C5    O17   S    
Cu2   O7    S    
C9    C11   A    
C20   O10   S    
C10   C12   A    
C3    O15   S    
C1    O3    A    
C12   C14   A    
C21   C23   A    
C22   C24   A    
C19   C27   A    
C29   O13   S    
C7    C9    A    
N3    O21   S    
C27   C32   A    
C28   C31   A    
C17   O7    A    
C3    C5    A    
C21   N1    A    
C25   C27   A    
C22   N2    A    
C26   C28   A    
Cu1   N4    S    
O20   H8    S    
C29   C31   A    
C19   N1    A    
C30   C32   A    
C11   C13   A    
O15   H3    S    
C2    O4    A    
C4    O16   S    
C23   C25   A    
C4    C14   A    
O17   H5    S    
C9    Br3   S    
C1    O1    A    
O18   H6    S    
C20   N2    A    
C2    O2    A    
C8    C10   A    
C31   Br1   S    
C32   Br2   S    
