data_mof_unit_35041.cif
_audit_creation_date              2013-03-05T15:49:44-0500
_audit_creation_method            fapswitch 2.2
_symmetry_space_group_name_H-M    P1
_symmetry_Int_Tables_number       1
_space_group_crystal_system       triclinic
_cell_length_a                    12.163305
_cell_length_b                    12.943369
_cell_length_c                    13.084654
_cell_angle_alpha                 85.927265
_cell_angle_beta                  114.806253
_cell_angle_gamma                 93.003471
_cell_volume                      1864.59813602

loop_
_atom_site_label
_atom_site_type_symbol
_atom_site_description
_atom_site_fract_x
_atom_site_fract_y
_atom_site_fract_z
_atom_type_partial_charge
O1    O     O_R   0.579910 0.341070 0.505280 -0.597182
O2    O     O_R   0.388440 0.353740 0.492580 -0.579353
C1    C     C_R   0.478078 0.299489 0.499865 0.911079
O3    O     O_R   0.643280 0.490550 0.663120 -0.608232
O4    O     O_R   0.451810 0.503220 0.650420 -0.584486
C2    C     C_R   0.568708 0.497319 0.710447 0.923938
Zn1   Zn    Zn3+2 0.627850 0.491540 0.508480 1.050249
Zn2   Zn    Zn3+2 0.372150 0.508460 0.491520 1.084417
O5    O     O_R   0.611560 0.646260 0.507420 -0.623158
O6    O     O_R   0.420090 0.658930 0.494720 -0.583499
O7    O     O_R   0.548190 0.496780 0.349580 -0.588201
O8    O     O_R   0.356720 0.509450 0.336880 -0.554356
C3    C     C_R   0.522785 0.699815 0.501064 0.943478
C4    C     C_R   0.430630 0.496637 0.290514 0.919567
C5    C     C_R   0.258125 0.565121 0.984655 0.197949
C6    C     C_R   0.381945 0.486730 0.167127 -0.277798
C7    C     C_R   0.723173 0.440376 0.905067 -0.199003
C8    C     C_R   0.752055 0.418803 0.020065 0.251390
C9    C     C_R   0.670116 0.442959 0.064773 0.213537
C10   C     C_R   0.556935 0.488222 0.993081 -0.031020
C11   C     C_R   0.543028 0.529724 0.885890 0.054185
C12   C     C_R   0.459762 0.499750 0.025606 0.057845
C13   C     C_R   0.360614 0.564598 0.958130 -0.042845
C14   C     C_R   0.368051 0.626862 0.868212 -0.039308
C15   C     C_R   0.461389 0.611435 0.835233 -0.010002
C16   C     C_R   0.455946 0.448634 0.122683 -0.046112
C17   C     C_R   0.267819 0.521522 0.090317 0.203908
C18   C     C_R   0.615800 0.493183 0.835740 -0.176154
C19   C     C_R   0.543100 0.809710 0.511324 -0.208410
C20   C     C_R   0.463422 0.187138 0.500209 -0.193992
C21   C     C_R   0.344318 0.034777 0.416315 -0.045969
C22   C     C_R   0.350784 0.140557 0.432497 -0.125475
C23   C     C_R   0.565607 0.126371 0.562742 0.304854
C24   C     C_R   0.557819 0.018909 0.552804 -0.097518
C25   C     C_R   0.448763 0.975225 0.472896 0.048243
C26   C     C_R   0.444930 0.871570 0.452336 -0.225021
C27   C     C_R   0.652105 0.850616 0.591140 0.203970
C28   C     C_R   0.657282 0.953929 0.617410 0.248548
H1    H     H_    0.364224 0.837421 0.390415 0.224585
N1    N     N_R   0.798200 0.480260 0.519790 -0.136236
N2    N     N_R   0.201820 0.519740 0.480210 -0.215689
C29   C     C_R   0.009746 0.606598 0.402257 0.154521
C30   C     C_R   0.122119 0.586593 0.400897 0.313432
C31   C     C_R   0.162128 0.457155 0.548808 0.329253
C32   C     C_R   0.039630 0.462291 0.540037 -0.064721
C33   C     C_R   0.964869 0.542792 0.470271 -0.121990
C34   C     C_R   0.846835 0.554295 0.468986 0.159828
C35   C     C_R   0.867736 0.401719 0.584072 0.051643
C36   C     C_R   0.988043 0.391418 0.598183 -0.060952
H2    H     H_    0.829675 0.348119 0.627804 0.194288
N3    N     N_R   0.161981 0.490770 0.109618 0.270171
O9    O     O_R   0.169713 0.415887 0.183809 -0.338643
O10   O     O_R   0.054204 0.517219 0.037466 -0.270980
N4    N     N_R   0.752605 0.785156 0.654863 0.245306
O11   O     O_R   0.750661 0.722509 0.736366 -0.335694
O12   O     O_R   0.847270 0.789454 0.632332 -0.303115
C37   C     C_1   0.229873 0.988144 0.340739 0.235402
N5    N     N_1   0.138921 0.951235 0.280530 -0.022152
N6    N     N_R   0.754220 0.986385 0.719827 0.261433
O13   O     O_R   0.730277 0.011126 0.802892 -0.283004
O14   O     O_R   0.866596 0.978680 0.735802 -0.237166
C38   C     C_1   0.241704 0.200402 0.375551 0.326043
N7    N     N_1   0.153981 0.247042 0.330782 -0.024382
N8    N     N_R   0.679836 0.175277 0.628428 0.219696
O15   O     O_R   0.770606 0.167683 0.601560 -0.378024
O16   O     O_R   0.692725 0.227946 0.713979 -0.381435
C39   C     C_1   0.776745 0.645043 0.415902 0.442359
N9    N     N_1   0.721472 0.718194 0.372290 -0.109600
N10   N     N_R   0.942830 0.691943 0.331486 0.217813
O17   O     O_R   0.982768 0.786052 0.357136 -0.331963
O18   O     O_R   0.857398 0.676070 0.232191 -0.269401
C40   C     C_1   0.051046 0.304413 0.670647 0.381936
N11   N     N_1   0.100216 0.234305 0.729077 -0.048507
N12   N     N_R   0.144094 0.628855 0.306593 0.256795
O19   O     O_R   0.057961 0.624177 0.205757 -0.227888
O20   O     O_R   0.232599 0.694318 0.320936 -0.394946
C41   C     C_1   0.287866 0.713202 0.815219 0.276153
N13   N     N_1   0.224631 0.782149 0.772608 -0.062631
N14   N     N_R   0.245162 0.386348 0.629484 0.220822
O21   O     O_R   0.293627 0.406693 0.735542 -0.400367
O22   O     O_R   0.252499 0.293517 0.601228 -0.380806
N15   N     N_R   0.144546 0.604017 0.903316 0.236527
O23   O     O_R   0.089942 0.562205 0.806462 -0.374627
O24   O     O_R   0.098240 0.684096 0.924040 -0.251039
C42   C     C_1   0.492527 0.342319 0.155840 0.288835
N16   N     N_1   0.520274 0.256980 0.182143 -0.117220
C43   C     C_1   0.811104 0.415995 0.863384 0.513486
N17   N     N_1   0.883209 0.396677 0.832124 -0.105036
N18   N     N_R   0.711253 0.437636 0.184932 0.216529
O25   O     O_R   0.698850 0.517121 0.233690 -0.392967
O26   O     O_R   0.762591 0.355306 0.246141 -0.332638
N19   N     N_R   0.866524 0.374241 0.092664 0.259070
O27   O     O_R   0.897952 0.287442 0.069328 -0.310574
O28   O     O_R   0.939177 0.419832 0.182904 -0.257229
C44   C     C_1   0.488474 0.693917 0.768513 0.224296
N20   N     N_1   0.508513 0.763171 0.717912 -0.158663

loop_
_geom_bond_atom_site_label_1
_geom_bond_atom_site_label_2
_geom_bond_distance
_ccdc_geom_bond_type
N1    C34   1.374837 A    
C43   N17   1.156510 T    
C44   N20   1.153024 T    
C42   N16   1.157593 T    
Zn1   O7    1.887520 S    
C19   C26   1.379012 A    
C38   N7    1.157090 T    
N12   O20   1.292086 A    
C3    C19   1.436949 S    
C8    C9    1.407526 A    
C16   C42   1.448167 S    
O4    C2    1.307752 A    
O7    C4    1.309428 A    
N1    C35   1.352029 A    
C24   C25   1.419181 A    
C29   C33   1.424070 A    
N10   O18   1.301048 A    
O5    C3    1.283848 A    
N4    O11   1.300640 A    
C2    C18   1.490444 S    
C25   C26   1.381573 A    
C36   C40   1.443448 S    
Zn1   N1    2.026774 S    
N18   O26   1.302228 A    
C41   N13   1.157694 T    
C28   N6    1.436936 S    
C30   N12   1.434862 S    
C35   H2    1.074852 S    
N6    O13   1.301338 A    
O1    Zn1   2.001740 S    
N2    C30   1.371748 A    
O3    Zn1   1.951282 S    
C34   C39   1.442599 S    
C17   N3    1.443703 S    
C23   C24   1.400756 A    
C5    N15   1.434484 S    
C26   H1    1.074003 S    
C6    C16   1.384898 A    
N4    O12   1.300618 A    
N6    O14   1.301363 A    
N12   O19   1.298815 A    
C39   N9    1.158504 T    
Zn2   N2    2.026533 S    
O3    C2    1.304311 A    
N14   O22   1.300146 A    
C24   C28   1.425857 A    
C32   C33   1.418991 A    
C29   N10   1.434123 S    
N3    O9    1.299983 A    
O1    C1    1.300295 A    
N8    O16   1.300895 A    
C1    C20   1.455697 S    
C27   C28   1.395923 A    
C9    N18   1.433576 S    
C5    C17   1.415338 A    
C21   C22   1.393377 A    
C32   C36   1.433590 A    
Zn2   O8    1.951282 S    
N19   O28   1.300808 A    
C7    C8    1.404478 A    
C14   C15   1.400739 A    
C27   N4    1.435380 S    
C35   C36   1.408349 A    
C11   C18   1.418847 A    
O8    C4    1.300504 A    
C15   C44   1.443097 S    
N15   O24   1.301657 A    
N2    C31   1.383577 A    
C21   C25   1.410144 A    
C29   C30   1.411994 A    
C31   C32   1.450325 A    
Zn1   O5    2.021183 S    
C11   C15   1.414973 A    
C33   C34   1.444099 A    
C20   C23   1.410894 A    
C7    C43   1.445779 S    
C7    C18   1.416709 A    
C31   N14   1.428029 S    
O2    Zn2   2.021183 S    
C10   C12   1.431759 A    
C40   N11   1.157705 T    
O6    C3    1.302757 A    
O4    Zn2   1.887520 S    
C8    N19   1.438795 S    
N8    O15   1.301610 A    
C21   C37   1.456575 S    
C9    C10   1.428719 A    
O2    C1    1.293992 A    
C22   C38   1.453173 S    
C20   C22   1.412909 A    
C37   N5    1.157372 T    
C6    C17   1.403703 A    
C23   N8    1.432802 S    
C5    C13   1.427870 A    
N19   O27   1.301240 A    
C4    C6    1.480832 S    
N10   O17   1.300609 A    
C13   C14   1.410279 A    
N14   O21   1.300721 A    
C14   C41   1.455189 S    
C10   C11   1.409885 A    
Zn2   O6    2.001737 S    
N15   O23   1.301357 A    
C12   C16   1.407203 A    
C19   C27   1.404287 A    
C12   C13   1.430302 A    
N3    O10   1.299860 A    
N18   O25   1.295558 A    
