data_mof_unit_62929.cif
_audit_creation_date              2012-10-26T21:09:25-0400
_audit_creation_method            fapswitch 2.2
_symmetry_space_group_name_H-M    P1
_symmetry_Int_Tables_number       1
_space_group_crystal_system       triclinic
_cell_length_a                    16.002008
_cell_length_b                    14.777949
_cell_length_c                    11.727881
_cell_angle_alpha                 90.021261
_cell_angle_beta                  89.969399
_cell_angle_gamma                 89.930289
_cell_volume                      2773.36981139

loop_
_atom_site_label
_atom_site_type_symbol
_atom_type_description
_atom_site_fract_x
_atom_site_fract_y
_atom_site_fract_z
_atom_type_partial_charge
C1    C     C_R   0.340867 0.500044 0.500008 0.543166
C2    C     C_R   0.428239 0.048463 0.465168 0.110531
C3    C     C_R   0.429182 0.951733 0.461727 0.113195
C4    C     C_R   0.570814 0.048266 0.538265 0.113186
C5    C     C_1   0.500190 0.802585 0.499266 0.204150
C6    C     C_1   0.499809 0.197414 0.500730 0.204163
C7    C     C_1   0.500002 0.499975 0.162011 -0.004281
C8    C     C_1   0.499998 0.500025 0.837989 -0.004279
C9    C     C_1   0.500000 0.499988 0.059757 -0.022592
C10   C     C_1   0.500000 0.500012 0.940242 -0.022591
C11   C     C_R   0.956225 0.582075 0.494630 0.364416
C12   C     C_R   0.659133 0.499956 0.499991 0.543168
C13   C     C_R   0.043775 0.417925 0.505370 0.364416
C14   C     C_R   0.043483 0.582140 0.494595 0.368394
C15   C     C_R   0.956517 0.417860 0.505405 0.368397
C16   C     C_R   0.912726 0.499934 0.500030 -0.073712
C17   C     C_R   0.087274 0.500066 0.499970 -0.073711
C18   C     C_1   0.823216 0.499875 0.500030 0.089202
C19   C     C_1   0.176784 0.500125 0.499970 0.089200
C20   C     C_3   0.640192 0.127162 0.691851 -0.280988
C21   C     C_3   0.359764 0.872777 0.308203 -0.280960
C22   C     C_3   0.301843 0.127823 0.518093 -0.266178
C23   C     C_1   0.251796 0.500125 0.499985 0.037506
C24   C     C_3   0.698161 0.872177 0.481917 -0.266165
C25   C     C_1   0.748203 0.499875 0.500015 0.037510
C26   C     C_R   0.500631 0.902966 0.497672 0.012727
C27   C     C_R   0.499367 0.097033 0.502317 0.012733
C28   C     C_R   0.500006 0.499989 0.283442 0.548410
C29   C     C_R   0.499994 0.500011 0.716558 0.548412
C30   C     C_R   0.571759 0.951535 0.534823 0.110532
Cu1   Cu    Cu3+1 0.500000 0.589220 0.500000 1.028623
Cu2   Cu    Cu3+1 0.500000 0.410780 0.500000 1.028639
F1    F     F_    0.085242 0.661982 0.489337 -0.562503
F2    F     F_    0.914758 0.338018 0.510663 -0.562496
F3    F     F_    0.914180 0.661856 0.489416 -0.574335
F4    F     F_    0.085820 0.338144 0.510584 -0.574333
H1    H     H_    0.699211 0.068663 0.552179 0.273276
H2    H     H_    0.273943 0.068784 0.562622 0.152899
H3    H     H_    0.250743 0.169616 0.481559 0.199365
H4    H     H_    0.336497 0.169872 0.580679 0.162710
H5    H     H_    0.674994 0.930842 0.639880 0.265382
H6    H     H_    0.726082 0.931215 0.437414 0.152910
H7    H     H_    0.663510 0.830148 0.419307 0.162699
H8    H     H_    0.749243 0.830361 0.518457 0.199367
H9    H     H_    0.639489 0.067993 0.750252 0.140524
H10   H     H_    0.583925 0.169393 0.707776 0.158915
H11   H     H_    0.696336 0.168672 0.710515 0.177190
H12   H     H_    0.300777 0.931348 0.447858 0.273273
H13   H     H_    0.360436 0.931914 0.249745 0.140528
H14   H     H_    0.303624 0.831240 0.289606 0.177209
H15   H     H_    0.416031 0.830549 0.292285 0.158907
H16   H     H_    0.324996 0.069153 0.360130 0.265393
N1    N     N_1   0.500000 0.276710 0.500000 -0.183960
N2    N     N_1   0.500000 0.723290 0.500000 -0.183966
N3    N     N_2   0.642764 0.097321 0.574385 -0.507738
N4    N     N_2   0.357218 0.902679 0.425648 -0.507751
N5    N     N_2   0.356708 0.097718 0.427560 -0.523469
N6    N     N_2   0.643288 0.902282 0.572442 -0.523473
O1    O     O_R   0.380310 0.575320 0.500020 -0.480055
O2    O     O_R   0.619690 0.424680 0.499980 -0.480047
O3    O     O_R   0.619690 0.575320 0.499980 -0.489329
O4    O     O_R   0.380310 0.424680 0.500020 -0.489328
O5    O     O_R   0.500010 0.575340 0.337190 -0.497616
O6    O     O_R   0.499990 0.424660 0.662810 -0.497610
O7    O     O_R   0.499990 0.575340 0.662810 -0.483880
O8    O     O_R   0.500010 0.424660 0.337190 -0.483881

loop_
_geom_bond_atom_site_label_1
_geom_bond_atom_site_label_2
_ccdc_geom_bond_type
C15   C16   A    
C21   N4    S    
C28   O8    A    
C1    C23   S    
C2    C27   A    
C3    C26   A    
C24   H6    S    
C9    C10   S    
Cu1   O3    S    
C15   F2    S    
C19   C23   T    
C6    C27   S    
H12   N4    S    
C13   C15   A    
C13   C17   A    
C12   C25   S    
C22   H4    S    
C1    O4    A    
C14   F1    S    
C11   F3    S    
C2    C3    A    
C2    N5    S    
Cu2   O4    S    
C24   N6    S    
C4    N3    S    
C12   O3    A    
C14   C17   A    
C18   C25   T    
C22   N5    S    
C20   N3    S    
C29   O7    A    
C22   H3    S    
C30   N6    S    
C21   H13   S    
C21   H14   S    
C17   C19   S    
H5    N6    S    
C26   C30   A    
C1    O1    A    
Cu1   N2    S    
C24   H8    S    
C11   C14   A    
C20   H10   S    
Cu1   O7    S    
C29   O6    A    
C20   H11   S    
H16   N5    S    
C8    C29   S    
C6    N1    T    
C5    C26   S    
H1    N3    S    
C28   O5    A    
Cu1   O5    S    
C5    N2    T    
C21   H15   S    
C4    C27   A    
Cu2   O6    S    
C13   F4    S    
C16   C18   S    
C3    N4    S    
C20   H9    S    
Cu1   O1    S    
C7    C9    T    
C24   H7    S    
Cu2   O2    S    
Cu2   N1    S    
C11   C16   A    
C8    C10   T    
C4    C30   A    
C7    C28   S    
Cu1   Cu2   S    
Cu2   O8    S    
C22   H2    S    
C12   O2    A    
