data_mof_unit_28130.cif
_audit_creation_date              2012-12-11T15:08:34-0500
_audit_creation_method            fapswitch 2.2
_symmetry_space_group_name_H-M    P1
_symmetry_Int_Tables_number       1
_space_group_crystal_system       triclinic
_cell_length_a                    21.410506
_cell_length_b                    21.410149
_cell_length_c                    22.260244
_cell_angle_alpha                 89.998116
_cell_angle_beta                  90.00071
_cell_angle_gamma                 89.999553
_cell_volume                      10204.1431154

loop_
_atom_site_label
_atom_site_type_symbol
_atom_type_description
_atom_site_fract_x
_atom_site_fract_y
_atom_site_fract_z
_atom_type_partial_charge
C1    C     C_R   0.938441 0.135241 0.112724 -0.100628
C2    C     C_R   0.085579 0.158830 0.078465 -0.144170
C3    C     C_R   0.102297 0.737424 0.307511 -0.267134
C4    C     C_R   0.199760 0.360303 0.846288 -0.246783
C5    C     C_R   0.639696 0.800259 0.153710 -0.246659
C6    C     C_R   0.262630 0.897688 0.692546 -0.267128
C7    C     C_R   0.897685 0.262611 0.307474 -0.267058
C8    C     C_R   0.237096 0.397672 0.192813 -0.267071
C9    C     C_R   0.602306 0.762631 0.807445 -0.267115
C10   C     C_R   0.300276 0.860300 0.346248 -0.246665
C11   C     C_R   0.860306 0.300227 0.653688 -0.246659
C12   C     C_R   0.762604 0.602301 0.192519 -0.267110
C13   C     C_R   0.135241 0.938444 0.887275 -0.100648
C14   C     C_R   0.397692 0.237379 0.807469 -0.267104
C15   C     C_R   0.699738 0.139699 0.346271 -0.246707
C16   C     C_R   0.139703 0.699760 0.653708 -0.246643
C17   C     C_R   0.892139 0.107673 0.147730 0.057932
C18   C     C_R   0.107675 0.892143 0.852269 0.057934
C19   C     C_R   0.148309 0.148485 0.089754 0.082138
C20   C     C_R   0.851538 0.851668 0.910244 0.082133
C21   C     C_R   0.107849 0.892339 0.147739 0.057925
C22   C     C_R   0.892333 0.107850 0.852263 0.057926
C23   C     C_R   0.851663 0.851532 0.089739 0.082128
C24   C     C_R   0.864639 0.061478 0.112613 -0.104719
C25   C     C_R   0.148464 0.148336 0.910253 0.082136
C26   C     C_R   0.351665 0.648466 0.589744 0.082133
C27   C     C_R   0.648462 0.351662 0.410254 0.082142
C28   C     C_R   0.607847 0.607664 0.647737 0.057927
C29   C     C_R   0.392313 0.392179 0.352261 0.057933
C30   C     C_R   0.648335 0.351532 0.589746 0.082134
C31   C     C_R   0.351538 0.648341 0.410254 0.082142
C32   C     C_R   0.392146 0.392328 0.647734 0.057936
C33   C     C_R   0.607672 0.607862 0.352268 0.057937
C34   C     C_R   0.741289 0.821713 0.888348 -0.168411
C35   C     C_R   0.085731 0.158811 0.921548 -0.128022
C36   C     C_R   0.178121 0.258716 0.111819 -0.168445
C37   C     C_R   0.903169 0.177384 0.763068 -0.154342
C38   C     C_R   0.177401 0.903177 0.236914 -0.154354
C39   C     C_R   0.258717 0.178300 0.888383 -0.168474
C40   C     C_R   0.821689 0.741273 0.111596 -0.168415
C41   C     C_R   0.096846 0.822602 0.763084 -0.154349
C42   C     C_R   0.822591 0.096841 0.236909 -0.154336
C43   C     C_R   0.403138 0.322760 0.262971 -0.154304
C44   C     C_R   0.677386 0.596832 0.736926 -0.154342
C45   C     C_R   0.241284 0.678326 0.388404 -0.168412
C46   C     C_R   0.914397 0.841170 0.078462 -0.144110
C47   C     C_R   0.678295 0.241278 0.611625 -0.168409
C48   C     C_R   0.596840 0.677414 0.263087 -0.154346
C49   C     C_R   0.322605 0.403162 0.736918 -0.154358
C50   C     C_R   0.758716 0.321687 0.388398 -0.168407
C51   C     C_R   0.321702 0.758719 0.611619 -0.168410
C52   C     C_R   0.803741 0.804003 0.897440 0.068848
C53   C     C_R   0.195933 0.196323 0.102556 0.068887
C54   C     C_R   0.874406 0.125983 0.790811 0.077189
C55   C     C_R   0.125988 0.874420 0.209192 0.077191
C56   C     C_R   0.196262 0.196005 0.897459 0.068875
C57   C     C_R   0.864763 0.061554 0.887273 -0.100630
C58   C     C_R   0.803990 0.803735 0.102525 0.068852
C59   C     C_R   0.125608 0.874003 0.790823 0.077186
C60   C     C_R   0.873997 0.125603 0.209177 0.077177
C61   C     C_R   0.374339 0.374082 0.290811 0.077176
C62   C     C_R   0.625981 0.625592 0.709188 0.077193
C63   C     C_R   0.303746 0.696016 0.397459 0.068833
C64   C     C_R   0.696002 0.303732 0.602538 0.068845
C65   C     C_R   0.625599 0.626003 0.290819 0.077191
C66   C     C_R   0.374008 0.374399 0.709183 0.077186
C67   C     C_R   0.696256 0.303990 0.397462 0.068861
C68   C     C_R   0.135353 0.938529 0.112617 -0.104735
C69   C     C_R   0.303997 0.696264 0.602538 0.068839
C70   C     C_R   0.821284 0.741544 0.888678 -0.159764
C71   C     C_R   0.258447 0.178884 0.111149 -0.159812
C72   C     C_R   0.823336 0.097112 0.762815 -0.170606
C73   C     C_R   0.097113 0.823360 0.237207 -0.170622
C74   C     C_R   0.178715 0.258463 0.888687 -0.159812
C75   C     C_R   0.741533 0.821290 0.111301 -0.159760
C76   C     C_R   0.176680 0.902870 0.762828 -0.170617
C77   C     C_R   0.902865 0.176671 0.237179 -0.170580
C78   C     C_R   0.323176 0.402909 0.262919 -0.170554
C79   C     C_R   0.414398 0.658829 0.578463 -0.144115
C80   C     C_R   0.597111 0.676665 0.737184 -0.170604
C81   C     C_R   0.321305 0.758465 0.388664 -0.159762
C82   C     C_R   0.758463 0.321275 0.611299 -0.159762
C83   C     C_R   0.676659 0.597126 0.262813 -0.170596
C84   C     C_R   0.402877 0.323330 0.737183 -0.170609
C85   C     C_R   0.678701 0.241535 0.388678 -0.159761
C86   C     C_R   0.241539 0.678717 0.611308 -0.159752
C87   C     C_R   0.585728 0.341190 0.421547 -0.128020
C88   C     C_R   0.635353 0.561472 0.612619 -0.104739
C89   C     C_R   0.061479 0.864641 0.887386 -0.104752
C90   C     C_R   0.364758 0.438467 0.387285 -0.100631
C91   C     C_R   0.585601 0.341170 0.578465 -0.144109
C92   C     C_R   0.414271 0.658812 0.421549 -0.128032
C93   C     C_R   0.364642 0.438523 0.612615 -0.104739
C94   C     C_R   0.635241 0.561560 0.387275 -0.100645
C95   C     C_R   0.438516 0.364660 0.387367 -0.104769
C96   C     C_R   0.561551 0.635235 0.612727 -0.100647
C97   C     C_R   0.658827 0.414396 0.421535 -0.144095
C98   C     C_R   0.341190 0.585732 0.578449 -0.128036
C99   C     C_R   0.561477 0.635362 0.387386 -0.104741
C100  C     C_R   0.158806 0.085750 0.078458 -0.127993
C101  C     C_R   0.438446 0.364761 0.612727 -0.100659
C102  C     C_R   0.341172 0.585608 0.421539 -0.144118
C103  C     C_R   0.658810 0.414267 0.578451 -0.128038
C104  C     C_R   0.780075 0.699773 0.861781 0.085018
C105  C     C_R   0.300190 0.220120 0.138062 0.085065
C106  C     C_R   0.793582 0.126310 0.714836 0.089866
C107  C     C_R   0.126316 0.793614 0.285190 0.089870
C108  C     C_R   0.219923 0.300234 0.861789 0.085023
C109  C     C_R   0.699760 0.780085 0.138202 0.085008
C110  C     C_R   0.206429 0.873675 0.714846 0.089869
C111  C     C_R   0.841173 0.914400 0.921532 -0.144127
C112  C     C_R   0.873668 0.206416 0.285162 0.089837
C113  C     C_R   0.293391 0.373730 0.214958 0.089801
C114  C     C_R   0.626315 0.706424 0.785155 0.089861
C115  C     C_R   0.280099 0.800242 0.361771 0.085017
C116  C     C_R   0.800235 0.280065 0.638196 0.085016
C117  C     C_R   0.706408 0.626323 0.214830 0.089870
C118  C     C_R   0.373679 0.293579 0.785164 0.089861
C119  C     C_R   0.719908 0.199763 0.361780 0.085047
C120  C     C_R   0.199770 0.719925 0.638209 0.085007
C121  C     C_R   0.199887 0.361803 0.154704 0.468731
C122  C     C_R   0.061552 0.864767 0.112731 -0.100660
C123  C     C_R   0.638163 0.799825 0.845585 0.468741
C124  C     C_R   0.264363 0.897557 0.308207 0.471853
C125  C     C_R   0.897561 0.264316 0.691735 0.471863
C126  C     C_R   0.799792 0.638148 0.154363 0.468722
C127  C     C_R   0.361840 0.200191 0.845620 0.468741
C128  C     C_R   0.735649 0.102447 0.308225 0.471879
C129  C     C_R   0.102452 0.735669 0.691757 0.471860
C130  C     C_R   0.764324 0.602444 0.808249 0.471866
C131  C     C_R   0.397579 0.235957 0.191476 0.471898
C132  C     C_R   0.700185 0.138154 0.654394 0.468737
C133  C     C_R   0.938525 0.135355 0.887381 -0.104733
C134  C     C_R   0.138151 0.700235 0.345662 0.468744
C135  C     C_R   0.235670 0.397556 0.808242 0.471884
C136  C     C_R   0.602445 0.764353 0.191762 0.471855
C137  C     C_R   0.299816 0.861839 0.654393 0.468738
C138  C     C_R   0.861838 0.299794 0.345633 0.468732
C139  C     C_R   0.698980 0.780523 0.861529 -0.009974
C140  C     C_R   0.219281 0.301056 0.138619 -0.010023
C141  C     C_R   0.874218 0.207529 0.714798 -0.014933
C142  C     C_R   0.207557 0.874228 0.285177 -0.014940
C143  C     C_R   0.301023 0.219489 0.861558 -0.009963
C144  C     C_R   0.841189 0.914268 0.078447 -0.128031
C145  C     C_R   0.780498 0.698970 0.138425 -0.009976
C146  C     C_R   0.125795 0.792457 0.714816 -0.014936
C147  C     C_R   0.792443 0.125788 0.285176 -0.014920
C148  C     C_R   0.374167 0.292651 0.214685 -0.014874
C149  C     C_R   0.707535 0.625786 0.785190 -0.014933
C150  C     C_R   0.198978 0.719521 0.361581 -0.009960
C151  C     C_R   0.719486 0.198969 0.638447 -0.009966
C152  C     C_R   0.625785 0.707558 0.214815 -0.014945
C153  C     C_R   0.292459 0.374213 0.785186 -0.014920
C154  C     C_R   0.801019 0.280498 0.361567 -0.009979
C155  C     C_R   0.158828 0.085602 0.921536 -0.144128
C156  C     C_R   0.280515 0.801024 0.638448 -0.009963
C157  C     C_R   0.720020 0.720312 0.845047 -0.003067
C158  C     C_R   0.279566 0.280102 0.154946 -0.003032
C159  C     C_R   0.816841 0.183659 0.693257 -0.002567
C160  C     C_R   0.183677 0.816864 0.306744 -0.002565
C161  C     C_R   0.279979 0.279696 0.845062 -0.003058
C162  C     C_R   0.720295 0.720024 0.154928 -0.003063
C163  C     C_R   0.183168 0.816328 0.693269 -0.002567
C164  C     C_R   0.816317 0.183157 0.306731 -0.002562
C165  C     C_R   0.316714 0.316457 0.193264 -0.002599
C166  C     C_R   0.914270 0.841191 0.921544 -0.128031
C167  C     C_R   0.683666 0.683165 0.806729 -0.002570
C168  C     C_R   0.220031 0.779718 0.345067 -0.003078
C169  C     C_R   0.779696 0.220011 0.654932 -0.003070
C170  C     C_R   0.683153 0.683677 0.193260 -0.002560
C171  C     C_R   0.316330 0.316839 0.806736 -0.002574
C172  C     C_R   0.779968 0.220297 0.345060 -0.003063
C173  C     C_R   0.220309 0.779980 0.654941 -0.003074
C174  C     C_R   0.800236 0.639701 0.846291 -0.246660
C175  C     C_R   0.360332 0.200051 0.153414 -0.246768
C176  C     C_R   0.737377 0.102300 0.692542 -0.267115
Cl1   Cl    Cl    0.127402 0.393193 0.132244 -0.589608
Cl2   Cl    Cl    0.470928 0.205467 0.212447 -0.592782
Cl3   Cl    Cl    0.627836 0.106642 0.631691 -0.589667
Cl4   Cl    Cl    0.106626 0.627907 0.368404 -0.589673
Cl5   Cl    Cl    0.205051 0.470791 0.787056 -0.592784
Cl6   Cl    Cl    0.529219 0.794987 0.212958 -0.592719
Cl7   Cl    Cl    0.372157 0.893356 0.631677 -0.589673
Cl8   Cl    Cl    0.893364 0.372127 0.368370 -0.589578
Cl9   Cl    Cl    0.606654 0.872175 0.868285 -0.589643
Cl10  Cl    Cl    0.295004 0.970773 0.286987 -0.592731
Cl11  Cl    Cl    0.970798 0.294933 0.712909 -0.592727
Cl12  Cl    Cl    0.872130 0.606619 0.131634 -0.589605
Cl13  Cl    Cl    0.393357 0.127849 0.868343 -0.589649
Cl14  Cl    Cl    0.705023 0.029219 0.287031 -0.592767
Cl15  Cl    Cl    0.029219 0.705048 0.712940 -0.592731
Cl16  Cl    Cl    0.794940 0.529205 0.787078 -0.592721
H1    H     H_    0.969855 0.172283 0.125426 0.106079
H2    H     H_    0.062797 0.203523 0.073528 0.107230
H3    H     H_    0.172281 0.969862 0.874575 0.106061
H4    H     H_    0.827558 0.030029 0.125105 0.111018
H5    H     H_    0.063102 0.203593 0.926424 0.102971
H6    H     H_    0.937164 0.796466 0.073552 0.107224
H7    H     H_    0.827722 0.030136 0.874574 0.106060
H8    H     H_    0.172432 0.969982 0.125108 0.111038
H9    H     H_    0.437164 0.703533 0.573550 0.107225
H10   H     H_    0.563095 0.296409 0.426420 0.102951
H11   H     H_    0.672433 0.530022 0.625115 0.111021
H12   H     H_    0.030031 0.827559 0.874893 0.111018
H13   H     H_    0.327730 0.469907 0.374607 0.106021
H14   H     H_    0.562835 0.296467 0.573552 0.107219
H15   H     H_    0.436902 0.703593 0.426427 0.102965
H16   H     H_    0.327561 0.469972 0.625107 0.111019
H17   H     H_    0.672284 0.530145 0.374575 0.106066
H18   H     H_    0.469957 0.327580 0.374847 0.111037
H19   H     H_    0.530132 0.672275 0.625424 0.106063
H20   H     H_    0.703531 0.437162 0.426445 0.107222
H21   H     H_    0.296409 0.563103 0.573574 0.102977
H22   H     H_    0.530028 0.672444 0.374893 0.111012
H23   H     H_    0.203598 0.063134 0.073608 0.103014
H24   H     H_    0.469864 0.327720 0.625429 0.106063
H25   H     H_    0.296466 0.562847 0.426454 0.107209
H26   H     H_    0.703592 0.436896 0.573576 0.102978
H27   H     H_    0.726894 0.869025 0.897413 0.170905
H28   H     H_    0.130758 0.273035 0.102912 0.170909
H29   H     H_    0.944787 0.197382 0.782419 0.169850
H30   H     H_    0.197403 0.944787 0.217550 0.169864
H31   H     H_    0.273116 0.130991 0.897462 0.170903
H32   H     H_    0.868997 0.726866 0.102508 0.170900
H33   H     H_    0.055231 0.802604 0.782437 0.169850
H34   H     H_    0.796470 0.937166 0.926446 0.107230
H35   H     H_    0.802593 0.055228 0.217553 0.169851
H36   H     H_    0.444813 0.302799 0.282253 0.169850
H37   H     H_    0.697385 0.555213 0.717575 0.169851
H38   H     H_    0.226877 0.631023 0.397498 0.170903
H39   H     H_    0.630983 0.226882 0.602557 0.170902
H40   H     H_    0.555231 0.697419 0.282447 0.169846
H41   H     H_    0.302608 0.444778 0.717563 0.169854
H42   H     H_    0.773122 0.368992 0.397492 0.170901
H43   H     H_    0.369010 0.773118 0.602541 0.170905
H44   H     H_    0.845695 0.623161 0.860688 0.194061
H45   H     H_    0.030134 0.827727 0.125435 0.106069
H46   H     H_    0.376942 0.154661 0.138888 0.194045
H47   H     H_    0.720355 0.057325 0.707807 0.189725
H48   H     H_    0.057313 0.720411 0.292268 0.189715
H49   H     H_    0.154299 0.376842 0.860681 0.194037
H50   H     H_    0.623160 0.845724 0.139319 0.194069
H51   H     H_    0.279653 0.942661 0.707809 0.189723
H52   H     H_    0.942662 0.279631 0.292218 0.189778
H53   H     H_    0.220017 0.442587 0.208181 0.189743
H54   H     H_    0.557330 0.779652 0.792184 0.189721
H55   H     H_    0.345749 0.876826 0.360617 0.194062
H56   H     H_    0.969975 0.172435 0.874885 0.111019
H57   H     H_    0.876846 0.345686 0.639289 0.194065
H58   H     H_    0.779622 0.557321 0.207776 0.189729
H59   H     H_    0.442668 0.220358 0.792212 0.189726
H60   H     H_    0.654274 0.123163 0.360657 0.194021
H61   H     H_    0.123163 0.654300 0.639313 0.194069
H62   H     H_    0.868443 0.726212 0.897801 0.128423
H63   H     H_    0.273852 0.131779 0.101870 0.128428
H64   H     H_    0.802762 0.055262 0.781472 0.124062
H65   H     H_    0.055255 0.802789 0.218563 0.124064
H66   H     H_    0.131553 0.273793 0.897802 0.128411
H67   H     H_    0.796409 0.936899 0.073569 0.102979
H68   H     H_    0.726205 0.868456 0.102189 0.128427
H69   H     H_    0.197256 0.944716 0.781485 0.124065
H70   H     H_    0.944715 0.197246 0.218526 0.124098
H71   H     H_    0.302538 0.444688 0.281655 0.124031
H72   H     H_    0.555256 0.697240 0.718530 0.124058
H73   H     H_    0.368475 0.773782 0.397755 0.128427
H74   H     H_    0.773795 0.368436 0.602176 0.128425
H75   H     H_    0.697226 0.555268 0.281462 0.124068
H76   H     H_    0.444725 0.302757 0.718529 0.124067
H77   H     H_    0.631535 0.226209 0.397782 0.128386
H78   H     H_    0.203531 0.062834 0.926447 0.107221
H79   H     H_    0.226209 0.631556 0.602191 0.128430
H80   H     H_    0.936899 0.796408 0.926417 0.102971
N1    N     N_R   0.940200 0.105310 0.059970 -0.044664
N2    N     N_R   0.059800 0.105310 0.059970 -0.042793
N3    N     N_R   0.105310 0.940200 0.940030 -0.044660
N4    N     N_R   0.894690 0.059800 0.059970 -0.044826
N5    N     N_R   0.059800 0.105310 0.940030 -0.043853
N6    N     N_R   0.940200 0.894690 0.059970 -0.042799
N7    N     N_R   0.894690 0.059800 0.940030 -0.044662
N8    N     N_R   0.105310 0.940200 0.059970 -0.044826
N9    N     N_R   0.440200 0.605310 0.559970 -0.042797
N10   N     N_R   0.559800 0.394690 0.440030 -0.043846
N11   N     N_R   0.605310 0.559800 0.559970 -0.044824
N12   N     N_R   0.059800 0.894690 0.940030 -0.044826
N13   N     N_R   0.394690 0.440200 0.440030 -0.044666
N14   N     N_R   0.559800 0.394690 0.559970 -0.042797
N15   N     N_R   0.440200 0.605310 0.440030 -0.043845
N16   N     N_R   0.394690 0.440200 0.559970 -0.044826
N17   N     N_R   0.605310 0.559800 0.440030 -0.044663
N18   N     N_R   0.440200 0.394690 0.440030 -0.044820
N19   N     N_R   0.559800 0.605310 0.559970 -0.044664
N20   N     N_R   0.605310 0.440200 0.440030 -0.042797
N21   N     N_R   0.394690 0.559800 0.559970 -0.043849
N22   N     N_R   0.559800 0.605310 0.440030 -0.044826
N23   N     N_R   0.105310 0.059800 0.059970 -0.043859
N24   N     N_R   0.440200 0.394690 0.559970 -0.044663
N25   N     N_R   0.394690 0.559800 0.440030 -0.042797
N26   N     N_R   0.605310 0.440200 0.559970 -0.043851
N27   N     N_R   0.894690 0.940200 0.940030 -0.042796
N28   N     N_R   0.059800 0.894690 0.059970 -0.044663
N29   N     N_R   0.940200 0.105310 0.940030 -0.044826
N30   N     N_R   0.894690 0.940200 0.059970 -0.043853
N31   N     N_R   0.105310 0.059800 0.940030 -0.042794
N32   N     N_R   0.940200 0.894690 0.940030 -0.043848
Ni1   Ni    Ni4+2 0.000000 0.104370 0.000000 0.227621
Ni2   Ni    Ni4+2 0.000000 0.895630 0.000000 0.227607
Ni3   Ni    Ni4+2 0.104370 0.000000 0.000000 0.227615
Ni4   Ni    Ni4+2 0.895630 0.000000 0.000000 0.227623
Ni5   Ni    Ni4+2 0.500000 0.604370 0.500000 0.227614
Ni6   Ni    Ni4+2 0.500000 0.395630 0.500000 0.227607
Ni7   Ni    Ni4+2 0.604370 0.500000 0.500000 0.227617
Ni8   Ni    Ni4+2 0.395630 0.500000 0.500000 0.227608

loop_
_geom_bond_atom_site_label_1
_geom_bond_atom_site_label_2
_ccdc_geom_bond_type
C5    C136  A    
C97   H20   S    
C23   C58   S    
C6    C110  A    
C104  C157  A    
C102  N25   A    
C130  C174  A    
C11   H57   S    
C40   C145  A    
C9    C114  A    
C121  C140  A    
C49   C153  A    
C10   C124  A    
C147  C164  A    
C73   H65   S    
C8    C121  A    
C46   H6    S    
C122  H45   S    
C12   C126  A    
C144  N30   A    
N30   Ni4   S    
N1    N4    A    
C51   H43   S    
C95   N18   A    
C36   C53   A    
C102  H25   S    
C117  C170  A    
C38   C55   A    
C79   H9    S    
C80   H72   S    
C48   C65   A    
C138  Cl8   S    
C138  C154  A    
C23   C46   A    
C148  C165  A    
C18   C89   A    
C100  N23   A    
C42   C147  A    
C136  C152  A    
C130  Cl16  S    
C112  C164  A    
C156  C173  A    
C67   C85   A    
C40   C58   A    
C47   C64   A    
C21   C55   S    
C34   H27   S    
C104  C174  A    
C14   H59   S    
C123  Cl9   S    
C77   C112  A    
C1    H1    S    
N2    N23   A    
C2    N2    A    
C90   H13   S    
C4    C108  A    
C16   H61   S    
C166  N32   A    
C39   C56   A    
N29   Ni1   S    
C19   C100  A    
C150  C168  A    
C127  C143  A    
N15   Ni5   S    
N16   N24   A    
C16   C129  A    
C4    C135  A    
C13   C18   A    
N10   N20   A    
C72   C106  A    
C8    H53   S    
N8    N28   A    
C78   C113  A    
C42   C60   A    
C53   C71   A    
C91   H14   S    
C43   C61   A    
C27   C97   A    
C2    C19   A    
C95   H18   S    
C26   C79   A    
C93   N16   A    
C128  C147  A    
C68   N8    A    
N17   N22   A    
C79   N9    A    
C175  H46   S    
C28   C96   A    
C44   C62   A    
C83   C117  A    
C37   H29   S    
N4    Ni4   S    
C124  Cl10  S    
C118  C171  A    
C9    C123  A    
C128  Cl14  S    
C160  C168  A    
C13   N3    A    
C133  H56   S    
C12   C117  A    
C176  H47   S    
C139  C157  A    
C155  N31   A    
C26   C69   S    
C51   C69   A    
C143  C161  A    
C158  C165  A    
C103  N26   A    
C99   N22   A    
C33   C94   A    
C70   H62   S    
C114  C167  A    
C22   C54   S    
C62   C80   A    
C86   H79   S    
C16   C120  A    
C106  C159  A    
C123  C139  A    
C7    C112  A    
C85   C119  A    
C140  C158  A    
N21   Ni8   S    
N12   Ni2   S    
C141  C159  A    
C41   C146  A    
C125  C141  A    
C50   C67   A    
C87   H10   S    
C3    H48   S    
N32   Ni2   S    
C32   C93   A    
C57   H7    S    
C81   H73   S    
C153  C171  A    
C130  C149  A    
C92   N15   A    
C126  C145  A    
C74   H66   S    
C29   C61   S    
C49   C66   A    
C22   C133  A    
C31   C63   S    
C121  Cl1   S    
C33   C99   A    
C30   C103  A    
C44   H37   S    
N25   Ni8   S    
C27   C87   A    
C71   H63   S    
C21   C68   A    
C164  C172  A    
C98   N21   A    
C45   H38   S    
C135  Cl5   S    
C163  C173  A    
C155  H78   S    
C43   H36   S    
C35   H5    S    
C24   N4    A    
C89   N12   A    
C133  N29   A    
C80   C114  A    
C137  Cl7   S    
C108  C161  A    
C1    C17   A    
C151  C169  A    
C125  Cl11  S    
C3    C134  A    
C6    C137  A    
C126  Cl12  S    
C87   N10   A    
C92   H15   S    
N22   Ni5   S    
C129  Cl15  S    
C15   C119  A    
C27   C67   S    
C103  H26   S    
C161  C171  A    
N3    Ni3   S    
C18   C59   S    
C89   H12   S    
C84   C118  A    
C105  C175  A    
C136  Cl6   S    
C96   H19   S    
C106  C176  A    
C32   C101  A    
C86   C120  A    
C10   H55   S    
C134  Cl4   S    
C115  C168  A    
C93   H16   S    
C59   C76   A    
C28   C62   S    
N17   Ni7   S    
N23   Ni3   S    
C30   C64   S    
N19   Ni5   S    
C149  C167  A    
C157  C167  A    
N5    Ni1   S    
C107  C160  A    
N14   Ni6   S    
C127  Cl13  S    
C37   C141  A    
C11   C125  A    
N9    Ni5   S    
C109  C162  A    
C113  C165  A    
C70   C104  A    
C73   C107  A    
C15   H60   S    
C24   H4    S    
C12   H58   S    
C84   H76   S    
C45   C150  A    
C132  C176  A    
C85   H77   S    
C21   C122  A    
C50   H42   S    
C144  H67   S    
C43   C148  A    
C7    H52   S    
C25   C56   S    
C5    H50   S    
N8    Ni3   S    
C94   N17   A    
C39   H31   S    
C72   H64   S    
C29   C90   A    
C131  Cl2   S    
C41   H33   S    
C56   C74   A    
C77   H70   S    
C31   C102  A    
C142  C160  A    
N11   N19   A    
C14   C127  A    
C2    H2    S    
N26   Ni7   S    
C162  C170  A    
C82   H74   S    
C11   C116  A    
C129  C146  A    
N11   Ni7   S    
C8    C113  A    
C25   C35   A    
C98   H21   S    
C63   C81   A    
N18   Ni6   S    
N24   Ni6   S    
C15   C128  A    
C48   C152  A    
C23   C144  A    
C32   C66   S    
N28   Ni2   S    
N15   N25   A    
C111  H34   S    
C166  H80   S    
C7    C138  A    
C110  C163  A    
C99   H22   S    
C20   C166  A    
C34   C52   A    
C44   C149  A    
C38   H30   S    
C82   C116  A    
N20   Ni7   S    
N7    Ni4   S    
C5    C109  A    
C131  C175  A    
C46   N6    A    
C122  N28   A    
C74   C108  A    
C76   C110  A    
C13   H3    S    
C132  C151  A    
C91   N14   A    
C159  C169  A    
N2    Ni1   S    
N5    N31   A    
C134  C150  A    
C76   H69   S    
C100  H23   S    
N7    N29   A    
C25   C155  A    
C78   H71   S    
C96   N19   A    
C36   H28   S    
C22   C57   A    
C33   C65   S    
C42   H35   S    
C40   H32   S    
N27   Ni4   S    
C65   C83   A    
C47   H39   S    
C145  C162  A    
C101  H24   S    
C20   C111  A    
C34   C139  A    
C152  C170  A    
C49   H41   S    
C105  C158  A    
C14   C118  A    
C28   C88   A    
C1    N1    A    
C119  C172  A    
N6    Ni2   S    
N9    N21   A    
C19   C53   S    
C38   C142  A    
C124  C142  A    
N10   Ni6   S    
C58   C75   A    
C51   C156  A    
C75   C109  A    
C17   C24   A    
C41   C59   A    
N1    Ni1   S    
C29   C95   A    
N31   Ni3   S    
C17   C60   S    
C3    C107  A    
N13   N18   A    
C45   C63   A    
C137  C156  A    
C55   C73   A    
C9    H54   S    
C61   C78   A    
C81   C115  A    
C90   N13   A    
C154  C172  A    
C131  C148  A    
N3    N12   A    
C36   C140  A    
C64   C82   A    
C26   C98   A    
C37   C54   A    
C57   N7    A    
N6    N30   A    
C39   C143  A    
C6    H51   S    
C88   N11   A    
C4    H49   S    
N27   N32   A    
C35   N5    A    
C47   C151  A    
C30   C91   A    
C174  H44   S    
C101  N24   A    
N13   Ni8   S    
C146  C163  A    
C111  N27   A    
C135  C153  A    
C68   H8    S    
C97   N20   A    
C60   C77   A    
C71   C105  A    
C83   H75   S    
C20   C52   S    
C50   C154  A    
C116  C169  A    
C88   H11   S    
C52   C70   A    
C10   C115  A    
C132  Cl3   S    
C66   C84   A    
C48   H40   S    
C120  C173  A    
C54   C72   A    
C75   H68   S    
C94   H17   S    
C31   C92   A    
N14   N26   A    
N16   Ni8   S    
C69   C86   A    
