data_mof_unit_65079.cif
_audit_creation_date              2012-12-10T18:44:07-0500
_audit_creation_method            fapswitch 2.2
_symmetry_space_group_name_H-M    P1
_symmetry_Int_Tables_number       1
_space_group_crystal_system       triclinic
_cell_length_a                    18.147702
_cell_length_b                    18.119726
_cell_length_c                    22.105685
_cell_angle_alpha                 114.100321
_cell_angle_beta                  114.158237
_cell_angle_gamma                 90.029378
_cell_volume                      5930.39098817

loop_
_atom_site_label
_atom_site_type_symbol
_atom_type_description
_atom_site_fract_x
_atom_site_fract_y
_atom_site_fract_z
_atom_type_partial_charge
C1    C     C_R   0.349698 0.349630 0.699398 0.809816
C2    C     C_1   0.889235 0.889595 0.778530 -0.101062
C3    C     C_3   0.080484 0.019728 0.024581 0.395807
C4    C     C_3   0.919516 0.980272 0.975419 0.395807
C5    C     C_3   0.036542 0.035759 0.073908 -0.008968
C6    C     C_3   0.963458 0.964241 0.926092 -0.008968
C7    C     C_1   0.077305 0.076718 0.154839 0.121510
C8    C     C_1   0.922695 0.923282 0.845160 0.121510
C9    C     C_3   0.075094 0.542260 0.547891 0.538761
C10   C     C_3   0.924906 0.457740 0.452109 0.538761
C11   C     C_3   0.004341 0.539488 0.568662 -0.294644
C12   C     C_R   0.650301 0.650370 0.300602 0.809814
C13   C     C_3   0.995659 0.460512 0.431338 -0.294644
C14   C     C_3   0.948614 0.551127 0.499891 -0.045990
C15   C     C_3   0.051386 0.448873 0.500109 -0.045990
C16   C     C_R   0.150359 0.150340 0.300689 0.820251
C17   C     C_R   0.849641 0.849660 0.699311 0.820252
C18   C     C_3   0.020356 0.555714 0.480265 -0.306602
C19   C     C_3   0.979644 0.444286 0.519735 -0.306602
C20   C     C_3   0.574526 0.546408 0.024275 -0.445331
C21   C     C_3   0.425474 0.453591 0.975725 -0.445332
C22   C     C_3   0.546809 0.451635 0.975239 0.638180
C23   C     C_3   0.505967 0.575122 0.548172 0.538821
C24   C     C_3   0.453191 0.548365 0.024761 0.638180
C25   C     C_1   0.389123 0.389102 0.778654 -0.097041
C26   C     C_1   0.610877 0.610898 0.221346 -0.097041
C27   C     C_3   0.489020 0.555920 0.975103 0.365167
C28   C     C_3   0.510980 0.444079 0.024897 0.365167
C29   C     C_3   0.462381 0.462361 0.926275 -0.119369
C30   C     C_3   0.537619 0.537639 0.073725 -0.119370
C31   C     C_1   0.422217 0.422206 0.845309 0.143864
C32   C     C_1   0.577783 0.577794 0.154691 0.143864
C33   C     C_3   0.077263 0.005946 0.549562 -0.266923
C34   C     C_3   0.494032 0.424878 0.451828 0.538821
C35   C     C_3   0.922737 0.994054 0.450438 -0.266922
C36   C     C_3   0.020747 0.925099 0.480815 -0.330269
C37   C     C_3   0.979253 0.074901 0.519185 -0.330269
C38   C     C_3   0.948373 0.948579 0.499255 -0.155719
C39   C     C_3   0.051627 0.051421 0.500745 -0.155720
C40   C     C_R   0.391665 0.108347 0.500077 0.834951
C41   C     C_R   0.608335 0.891653 0.499923 0.834951
C42   C     C_3   0.003897 0.028101 0.566859 0.728362
C43   C     C_3   0.996103 0.971898 0.433141 0.728362
C44   C     C_3   0.473030 0.005822 0.548185 0.538339
C45   C     C_3   0.016578 0.053289 0.975508 -0.425877
C46   C     C_3   0.526970 0.994178 0.451814 0.538339
C47   C     C_3   0.564388 0.029189 0.568557 -0.294082
C48   C     C_3   0.435612 0.970811 0.431443 -0.294082
C49   C     C_3   0.551266 0.948769 0.499884 -0.051074
C50   C     C_3   0.448734 0.051231 0.500116 -0.051075
C51   C     C_3   0.460072 0.924733 0.480667 -0.299544
C52   C     C_3   0.539928 0.075266 0.519333 -0.299544
C53   C     C_R   0.108435 0.391705 0.500075 0.827729
C54   C     C_R   0.891565 0.608295 0.499925 0.827728
C55   C     C_R   0.108474 0.108342 0.500176 0.874324
C56   C     C_3   0.983422 0.946711 0.024492 -0.425878
C57   C     C_R   0.891526 0.891657 0.499824 0.874323
C58   C     C_R   0.391641 0.391569 0.499933 0.828845
C59   C     C_R   0.608358 0.608430 0.500067 0.828847
C60   C     C_3   0.424889 0.520767 0.480658 -0.301511
C61   C     C_3   0.575111 0.479233 0.519341 -0.301511
C62   C     C_3   0.470832 0.496037 0.431430 -0.297867
C63   C     C_3   0.529168 0.503962 0.568570 -0.297867
C64   C     C_3   0.551245 0.551375 0.500093 -0.047212
C65   C     C_3   0.448755 0.448625 0.499907 -0.047212
C66   C     C_3   0.971948 0.067782 0.024803 0.391979
C67   C     C_3   0.028052 0.932217 0.975197 0.391979
C68   C     C_1   0.110765 0.110405 0.221470 -0.101062
F1    F     F_    0.594130 0.399841 0.949305 -0.615291
F2    F     F_    0.405870 0.600159 0.050695 -0.615291
F3    F     F_    0.006737 0.056051 0.636223 -0.645907
F4    F     F_    0.993263 0.943949 0.363777 -0.645907
H1    H     H_    0.448529 0.492246 0.375193 0.177394
H2    H     H_    0.383346 0.948476 0.375211 0.178819
H3    H     H_    0.428595 0.863207 0.466339 0.176051
H4    H     H_    0.571405 0.136792 0.533661 0.176051
H5    H     H_    0.363488 0.538042 0.466332 0.174636
H6    H     H_    0.636512 0.461958 0.533668 0.174636
H7    H     H_    0.030306 0.096852 0.956125 0.203603
H8    H     H_    0.969694 0.903148 0.043875 0.203603
H9    H     H_    0.008465 0.573478 0.624981 0.177720
H10   H     H_    0.991535 0.426522 0.375019 0.177720
H11   H     H_    0.037318 0.602722 0.465597 0.170523
H12   H     H_    0.551471 0.507754 0.624807 0.177394
H13   H     H_    0.962682 0.397278 0.534403 0.170523
H14   H     H_    0.500101 0.331439 0.008359 0.359633
H15   H     H_    0.499899 0.668561 0.991641 0.359633
H16   H     H_    0.469670 0.976809 0.621346 0.341720
H17   H     H_    0.530330 0.023190 0.378654 0.341720
H18   H     H_    0.477328 0.651565 0.621457 0.342004
H19   H     H_    0.522672 0.348435 0.378543 0.342005
H20   H     H_    0.902153 0.143625 0.007762 0.358142
H21   H     H_    0.097847 0.856375 0.992238 0.358141
H22   H     H_    0.824691 0.977491 0.992808 0.358051
H23   H     H_    0.634810 0.584639 0.043763 0.214606
H24   H     H_    0.175309 0.022508 0.007192 0.358051
H25   H     H_    0.151517 0.644290 0.620604 0.338565
H26   H     H_    0.848483 0.355710 0.379395 0.338565
H27   H     H_    0.365190 0.415361 0.956237 0.214607
H28   H     H_    0.036295 0.862886 0.464207 0.184124
H29   H     H_    0.963705 0.137114 0.535793 0.184124
H30   H     H_    0.140921 0.012181 0.590815 0.202390
H31   H     H_    0.859078 0.987819 0.409185 0.202390
H32   H     H_    0.616654 0.051524 0.624789 0.178819
O1    O     O_3   0.250010 0.250010 0.500010 -0.519823
O2    O     O_R   0.893710 0.832180 0.664370 -0.622742
O3    O     O_R   0.332200 0.393690 0.664400 -0.619645
O4    O     O_R   0.667800 0.606310 0.335600 -0.619645
O5    O     O_R   0.229300 0.167820 0.335610 -0.621598
O6    O     O_R   0.770700 0.832180 0.664390 -0.621598
O7    O     O_R   0.358130 0.123520 0.543120 -0.588848
O8    O     O_R   0.641870 0.876480 0.456880 -0.588848
O9    O     O_R   0.080390 0.314990 0.456920 -0.656362
O10   O     O_R   0.919610 0.685010 0.543080 -0.656361
O11   O     O_R   0.185040 0.123520 0.543150 -0.640418
O12   O     O_3   0.749990 0.749990 0.499990 -0.519823
O13   O     O_R   0.814960 0.876480 0.456850 -0.640418
O14   O     O_R   0.358080 0.419590 0.543080 -0.647718
O15   O     O_R   0.641920 0.580410 0.456920 -0.647719
O16   O     O_R   0.080420 0.141920 0.456950 -0.619171
O17   O     O_R   0.919580 0.858080 0.543050 -0.619170
O18   O     O_R   0.376490 0.315000 0.456880 -0.590796
O19   O     O_R   0.623510 0.685000 0.543120 -0.590797
O20   O     O_3   0.524450 0.385856 0.052611 -0.688041
O21   O     O_3   0.475550 0.614143 0.947389 -0.688042
O22   O     O_3   0.443172 0.013309 0.599116 -0.717032
O23   O     O_R   0.376520 0.141930 0.456900 -0.648397
O24   O     O_3   0.556828 0.986691 0.400884 -0.717032
O25   O     O_3   0.513614 0.655881 0.599084 -0.718284
O26   O     O_3   0.486386 0.344119 0.400916 -0.718284
O27   O     O_3   0.941624 0.138577 0.052151 -0.718671
O28   O     O_3   0.058376 0.861422 0.947849 -0.718671
O29   O     O_3   0.834091 0.960728 0.948309 -0.713509
O30   O     O_3   0.165909 0.039272 0.051691 -0.713509
O31   O     O_3   0.155812 0.585605 0.598512 -0.718821
O32   O     O_3   0.844187 0.414395 0.401488 -0.718821
O33   O     O_R   0.623480 0.858070 0.543100 -0.648397
O34   O     O_R   0.184990 0.419580 0.543110 -0.589167
O35   O     O_R   0.815010 0.580420 0.456890 -0.589167
O36   O     O_R   0.332220 0.270690 0.664420 -0.626882
O37   O     O_R   0.667780 0.729310 0.335580 -0.626882
O38   O     O_R   0.106290 0.167820 0.335630 -0.622743
Zn1   Zn    Zn3+2 0.307090 0.219220 0.438420 1.019250
Zn2   Zn    Zn3+2 0.692910 0.780780 0.561580 1.019250
Zn3   Zn    Zn3+2 0.280820 0.192930 0.561610 1.023671
Zn4   Zn    Zn3+2 0.719180 0.807070 0.438390 1.023671
Zn5   Zn    Zn3+2 0.131340 0.219220 0.438450 1.002965
Zn6   Zn    Zn3+2 0.868660 0.780780 0.561550 1.002965
Zn7   Zn    Zn3+2 0.280790 0.368660 0.561580 1.015641
Zn8   Zn    Zn3+2 0.719210 0.631340 0.438420 1.015641

loop_
_geom_bond_atom_site_label_1
_geom_bond_atom_site_label_2
_ccdc_geom_bond_type
C25   C31   T    
C30   C32   S    
C63   C65   S    
C26   C32   T    
C43   F4    S    
C6    C45   S    
C46   C52   S    
C27   C29   S    
C14   C18   S    
C5    C56   S    
C36   H28   S    
C67   O28   S    
C24   C27   S    
C58   O14   A    
C17   O6    A    
H22   O29   S    
O12   Zn8   S    
C24   F2    S    
C47   C49   S    
H19   O26   S    
C20   C30   S    
C11   H9    S    
C15   C19   S    
C46   C49   S    
C44   O22   S    
C59   C64   S    
C33   C39   S    
C13   C18   S    
C33   C42   S    
C15   C53   S    
C46   O24   S    
C22   C29   S    
C51   H3    S    
C38   C42   S    
C35   H31   S    
O7    Zn3   S    
C21   H27   S    
C11   C14   S    
O1    Zn5   S    
H26   O32   S    
C34   C62   S    
C33   C36   S    
O2    Zn6   S    
C12   O37   A    
C23   O25   S    
C60   C62   S    
C37   C42   S    
C61   C63   S    
H24   O30   S    
C11   C19   S    
C62   C64   S    
C37   H29   S    
C7    C68   T    
O12   Zn2   S    
H18   O25   S    
C48   C51   S    
C39   C55   S    
C49   C51   S    
C41   O8    A    
O19   Zn2   S    
C50   C52   S    
O5    Zn1   S    
C62   H1    S    
C16   C68   S    
H21   O28   S    
C35   C43   S    
C61   H6    S    
C22   F1    S    
C41   O33   A    
C44   C47   S    
O15   Zn8   S    
C23   C63   S    
C22   C28   S    
C4    C56   S    
C2    C17   S    
C1    C25   S    
O18   Zn1   S    
C34   C65   S    
C41   C49   S    
C53   O9    A    
C16   O5    A    
C40   O7    A    
C5    C7    S    
C55   O16   A    
O34   Zn7   S    
C59   O19   A    
C23   C60   S    
C3    C67   S    
C60   H5    S    
C58   O18   A    
C33   H30   S    
C48   H2    S    
H20   O27   S    
C4    C6    S    
C10   C14   S    
O12   Zn6   S    
C57   O17   A    
C6    C8    S    
C52   H4    S    
C40   O23   A    
C21   C29   S    
C13   H10   S    
C3    C45   S    
C34   C61   S    
C53   O34   A    
C12   C26   S    
O13   Zn4   S    
O14   Zn7   S    
C16   O38   A    
C38   C57   S    
C58   C65   S    
C54   O35   A    
C10   C19   S    
O1    Zn3   S    
C35   C38   S    
C18   H11   S    
O17   Zn6   S    
C45   H7    S    
O23   Zn1   S    
O6    Zn2   S    
C48   C50   S    
C9    C11   S    
C34   O26   S    
C1    O36   A    
O37   Zn4   S    
C1    O3    A    
O4    Zn8   S    
C9    O31   S    
C44   C51   S    
C23   C64   S    
C14   C54   S    
C20   H23   S    
C20   C22   S    
C60   C65   S    
H16   O22   S    
C13   C15   S    
H14   O20   S    
H25   O31   S    
C57   O13   A    
C3    C5    S    
H15   O21   S    
C12   O4    A    
C66   O27   S    
C44   C50   S    
C6    C67   S    
C59   O15   A    
C47   H32   S    
C35   C37   S    
O38   Zn5   S    
O33   Zn2   S    
C2    C8    T    
C10   O32   S    
C5    C66   S    
C19   H13   S    
C10   C13   S    
O36   Zn3   S    
O1    Zn1   S    
C39   C43   S    
C28   O20   S    
C47   C52   S    
C20   C27   S    
C56   C67   S    
O1    Zn7   S    
O11   Zn3   S    
O35   Zn8   S    
C56   H8    S    
C63   H12   S    
C3    O30   S    
O9    Zn5   S    
C36   C38   S    
C9    C15   S    
O10   Zn6   S    
C37   C39   S    
C17   O2    A    
C61   C64   S    
O12   Zn4   S    
C27   O21   S    
C55   O11   A    
C40   C50   S    
C54   O10   A    
C28   C30   S    
C42   F3    S    
O8    Zn4   S    
C24   C30   S    
C21   C28   S    
O3    Zn7   S    
C46   C48   S    
C9    C18   S    
C4    C66   S    
O16   Zn5   S    
C29   C31   S    
C21   C24   S    
C45   C66   S    
C36   C43   S    
C4    O29   S    
H17   O24   S    
