data_mof_unit_37058.cif
_audit_creation_date              2012-12-10T20:42:37-0500
_audit_creation_method            fapswitch 2.2
_symmetry_space_group_name_H-M    P1
_symmetry_Int_Tables_number       1
_space_group_crystal_system       triclinic
_cell_length_a                    8.893808
_cell_length_b                    10.673711
_cell_length_c                    9.887727
_cell_angle_alpha                 89.98026
_cell_angle_beta                  89.820296
_cell_angle_gamma                 90.188007
_cell_volume                      938.631564969

loop_
_atom_site_label
_atom_site_type_symbol
_atom_type_description
_atom_site_fract_x
_atom_site_fract_y
_atom_site_fract_z
_atom_type_partial_charge
C1    C     C_R   0.497610 0.260145 0.499962 0.866620
C2    C     C_R   0.424542 0.934983 0.611463 -0.229429
C3    C     C_R   0.479924 0.871453 0.497805 -0.099068
C4    C     C_R   0.513351 0.936233 0.379377 0.141404
C5    C     C_3   0.649995 0.928552 0.291325 -0.493753
C6    C     C_3   0.652607 0.070520 0.292774 -0.486681
C7    C     C_R   0.408823 0.419396 0.071860 0.151285
C8    C     C_R   0.599745 0.570725 0.071551 -0.137463
C9    C     C_R   0.599972 0.570487 0.927763 -0.131347
C10   C     C_R   0.406702 0.421402 0.929352 0.098945
C11   C     C_3   0.237985 0.417641 0.926190 -0.024927
C12   C     C_R   0.218799 0.499816 0.500099 0.929963
C13   C     C_3   0.240974 0.412540 0.080788 -0.196250
C14   C     C_R   0.496972 0.739829 0.499840 0.870957
C15   C     C_R   0.781216 0.500002 0.499865 0.933248
C16   C     C_1   0.065466 0.499744 0.500073 -0.205516
C17   C     C_1   0.934582 0.499820 0.499695 -0.223334
C18   C     C_R   0.515017 0.063872 0.379896 0.140149
C19   C     C_R   0.481577 0.128393 0.498262 -0.099327
C20   C     C_R   0.425147 0.064641 0.611611 -0.235670
H1    H     H_    0.388961 0.114182 0.701594 0.161196
H2    H     H_    0.194048 0.332996 0.873866 0.148328
H3    H     H_    0.192664 0.497409 0.129538 0.180115
H4    H     H_    0.388330 0.885249 0.701458 0.169308
H5    H     H_    0.747731 0.885612 0.343538 0.197939
H6    H     H_    0.624021 0.888653 0.190174 0.202330
H7    H     H_    0.751380 0.110418 0.346661 0.199221
H8    H     H_    0.629965 0.112554 0.192115 0.198648
H9    H     H_    0.678127 0.630074 0.125388 0.144786
H10   H     H_    0.678479 0.629642 0.873415 0.148095
N1    N     N_R   0.499010 0.499140 0.142800 -0.108484
N2    N     N_R   0.499010 0.499180 0.857150 -0.098583
O1    O     O_R   0.500020 0.316790 0.614690 -0.624362
O2    O     O_R   0.500000 0.316760 0.385350 -0.616770
O3    O     O_R   0.285350 0.500020 0.614650 -0.584299
O4    O     O_R   0.285340 0.499980 0.385310 -0.636694
O5    O     O_R   0.500000 0.683240 0.614650 -0.623846
O6    O     O_R   0.499980 0.683210 0.385310 -0.617975
O7    O     O_R   0.714660 0.500020 0.614690 -0.619115
O8    O     O_R   0.714650 0.499980 0.385350 -0.618145
Zn1   Zn    Zn3+2 0.500010 0.500020 0.653130 0.943704
Zn2   Zn    Zn3+2 0.499990 0.499980 0.346870 0.930549
C21   C     C_3   0.177589 0.290645 0.143866 -0.377912
C22   C     C_3   0.258891 0.169382 0.102294 -0.343302
C23   C     C_3   0.188796 0.055524 0.171852 -0.881849
H11   H     H_    0.194517 0.065847 0.283520 0.262677
H12   H     H_    0.069430 0.044596 0.141120 0.260160
H13   H     H_    0.251203 0.969761 0.142382 0.250458
H14   H     H_    0.252664 0.155325 0.991267 0.203859
H15   H     H_    0.379000 0.175074 0.131471 0.229933
H16   H     H_    0.183386 0.299757 0.255646 0.225595
H17   H     H_    0.056742 0.283144 0.116496 0.202805
N3    N     N_2   0.173276 0.533480 0.875869 -0.253054
H18   H     H_    0.218589 0.614688 0.915523 0.226906
C24   C     C_3   0.010907 0.534565 0.869559 -0.764859
H19   H     H_    0.973141 0.621110 0.817632 0.234196
H20   H     H_    0.962248 0.532519 0.973174 0.221924
H21   H     H_    0.969148 0.452599 0.811338 0.256708

loop_
_geom_bond_atom_site_label_1
_geom_bond_atom_site_label_2
_ccdc_geom_bond_type
C22   H14   S    
C8    C9    A    
C7    C10   A    
C21   C22   S    
N1    Zn2   S    
C14   O6    A    
C19   C20   A    
C11   H2    S    
O4    Zn2   S    
C6    H7    S    
C11   N3    S    
C7    C13   S    
N2    Zn1   S    
O1    Zn1   S    
C24   H19   S    
O8    Zn2   S    
C2    C3    A    
C1    O1    A    
O7    Zn1   S    
N3    H18   S    
C22   C23   S    
C12   O3    A    
C2    H4    S    
C11   C13   S    
C15   O7    A    
C24   H21   S    
C3    C14   S    
C9    H10   S    
C21   H16   S    
C6    C18   S    
C8    H9    S    
C1    O2    A    
O6    Zn2   S    
C24   H20   S    
O5    Zn1   S    
C5    C6    S    
O3    Zn1   S    
C5    H5    S    
C15   O8    A    
C1    C19   S    
C12   O4    A    
C10   C11   S    
N3    C24   S    
C2    C20   A    
C5    H6    S    
C10   N2    A    
C13   C21   S    
C7    N1    A    
C20   H1    S    
C13   H3    S    
C18   C19   A    
C23   H12   S    
C22   H15   S    
C15   C17   S    
C4    C5    S    
C23   H13   S    
C9    N2    A    
C23   H11   S    
C8    N1    A    
C4    C18   A    
C6    H8    S    
C3    C4    A    
C12   C16   S    
C21   H17   S    
C16   C17   T    
C14   O5    A    
O2    Zn2   S    
