data_mof_unit_58846.cif
_audit_creation_date              2012-12-10T19:10:31-0500
_audit_creation_method            fapswitch 2.2
_symmetry_space_group_name_H-M    P1
_symmetry_Int_Tables_number       1
_space_group_crystal_system       triclinic
_cell_length_a                    10.741407
_cell_length_b                    9.882509
_cell_length_c                    15.695911
_cell_angle_alpha                 89.193573
_cell_angle_beta                  88.270864
_cell_angle_gamma                 89.2843
_cell_volume                      1665.10814042

loop_
_atom_site_label
_atom_site_type_symbol
_atom_type_description
_atom_site_fract_x
_atom_site_fract_y
_atom_site_fract_z
_atom_type_partial_charge
C1    C     C_R   0.258575 0.501080 0.499765 0.983728
C2    C     C_3   0.616623 0.438343 0.949005 1.247580
C3    C     C_3   0.616465 0.438407 0.047367 -0.438100
C4    C     C_1   0.493858 0.498107 0.825673 0.218335
C5    C     C_1   0.496283 0.502829 0.174591 0.067105
C6    C     C_1   0.498384 0.502493 0.249892 -0.146945
C7    C     C_3   0.068127 0.645108 0.519220 0.394530
C8    C     C_3   0.068530 0.396817 0.559259 0.447379
C9    C     C_3   0.927571 0.647745 0.506048 0.418213
C10   C     C_3   0.928566 0.417820 0.570789 0.363285
C11   C     C_3   0.083826 0.470083 0.399091 -0.267677
C12   C     C_3   0.122618 0.502829 0.493737 -0.420822
C13   C     C_3   0.879885 0.500187 0.492470 -0.485843
C14   C     C_R   0.500223 0.500801 0.338684 0.824041
C15   C     C_3   0.935169 0.445501 0.402546 -0.188848
C16   C     C_3   0.380180 0.080146 0.535779 -0.375688
C17   C     C_3   0.386661 0.918635 0.544833 -0.410343
C18   C     C_3   0.508742 0.083868 0.409116 -0.351127
C19   C     C_3   0.493010 0.923515 0.409161 -0.253282
C20   C     C_3   0.604518 0.076626 0.547592 1.111315
C21   C     C_3   0.612265 0.917693 0.539074 1.035528
C22   C     C_R   0.742322 0.499675 0.497724 0.891621
C23   C     C_R   0.499681 0.499196 0.661314 0.944007
C24   C     C_3   0.480428 0.649003 0.048943 -0.517269
C25   C     C_3   0.381822 0.418567 0.054793 -0.508165
C26   C     C_3   0.381250 0.410713 0.955858 0.402353
C27   C     C_3   0.479969 0.650487 0.949958 0.415226
C28   C     C_1   0.496886 0.497717 0.750245 0.064803
C29   C     C_3   0.493867 0.502174 0.083176 0.008371
C30   C     C_3   0.490712 0.500209 0.917573 -0.281503
H1    H     H_    0.305758 0.101004 0.489135 0.143814
H2    H     H_    0.302525 0.879600 0.513830 0.216060
H3    H     H_    0.429313 0.127295 0.373229 0.162781
H4    H     H_    0.397298 0.905401 0.386398 0.118985
H5    H     H_    0.394011 0.695877 0.077074 0.163544
H6    H     H_    0.294285 0.464757 0.081570 0.181462
H7    H     H_    0.387510 0.314527 0.082744 0.265717
H8    H     H_    0.559157 0.710555 0.070947 0.264278
H9    H     H_    0.697571 0.496132 0.069424 0.223371
H10   H     H_    0.626808 0.332945 0.072325 0.211708
H11   H     H_    0.111727 0.728592 0.481140 0.155976
H12   H     H_    0.086243 0.292822 0.536101 0.067997
H13   H     H_    0.881144 0.692572 0.563697 0.203858
H14   H     H_    0.909254 0.477091 0.629729 0.191973
N1    N     N_3   0.499750 0.138610 0.498180 -0.196878
N2    N     N_3   0.499750 0.861390 0.498180 -0.200271
O1    O     O_R   0.314910 0.616040 0.499980 -0.619903
O2    O     O_R   0.314910 0.383960 0.499980 -0.677390
O3    O     O_R   0.500120 0.616090 0.377110 -0.639482
O4    O     O_R   0.500120 0.383910 0.377110 -0.658296
O5    O     O_R   0.685320 0.616040 0.499960 -0.523518
O6    O     O_R   0.685320 0.383960 0.499960 -0.532390
O7    O     O_R   0.500110 0.615990 0.622830 -0.583721
O8    O     O_R   0.500110 0.384010 0.622830 -0.530296
Zn1   Zn    Zn3+2 0.500150 0.654960 0.499960 1.055039
Zn2   Zn    Zn3+2 0.500150 0.345040 0.499960 1.042458
C31   C     C_2   0.365995 0.725590 0.918477 0.502826
H15   H     H_    0.277588 0.719693 0.953471 0.014153
O9    O     O_2   0.372116 0.794180 0.853209 -0.432602
C32   C     C_2   0.254354 0.449259 0.922531 0.481906
H16   H     H_    0.185952 0.502678 0.962153 0.046784
O10   O     O_2   0.227347 0.421454 0.849862 -0.411900
F1    F     F_    0.900241 0.732618 0.438160 -0.537401
F2    F     F_    0.871611 0.294814 0.586140 -0.556932
C33   C     C_2   0.130394 0.588432 0.341409 0.571006
H17   H     H_    0.229089 0.593670 0.324565 0.032514
O11   O     O_2   0.063594 0.680836 0.316842 -0.475127
C34   C     C_2   0.154241 0.343761 0.365300 0.466173
H18   H     H_    0.162561 0.253837 0.405107 0.054173
O12   O     O_2   0.198068 0.338989 0.292546 -0.542634
C35   C     C_2   0.868351 0.513909 0.328227 0.689227
H19   H     H_    0.786867 0.577245 0.339274 0.099207
O13   O     O_2   0.902266 0.493843 0.254366 -0.491116
C36   C     C_2   0.907815 0.294695 0.393690 0.418333
H20   H     H_    0.895898 0.229135 0.448361 0.227204
O14   O     O_2   0.912254 0.241357 0.323780 -0.451288
C37   C     C_2   0.326621 0.151080 0.614374 0.621913
H21   H     H_    0.232598 0.190098 0.613168 0.106642
O15   O     O_2   0.380529 0.156014 0.681469 -0.430119
C38   C     C_2   0.374269 0.868563 0.636538 0.655796
H22   H     H_    0.437081 0.902151 0.684352 0.188738
O16   O     O_2   0.289890 0.793491 0.659020 -0.435827
F3    F     F_    0.716446 0.130369 0.520664 -0.560133
F4    F     F_    0.718980 0.885716 0.492635 -0.519125
F5    F     F_    0.593940 0.109471 0.632660 -0.550616
F6    F     F_    0.629103 0.857368 0.618061 -0.622439
C39   C     C_2   0.622473 0.132021 0.357304 0.534174
H23   H     H_    0.613017 0.208914 0.308026 0.073718
O17   O     O_2   0.724276 0.078159 0.364868 -0.421424
C40   C     C_2   0.571801 0.857786 0.338712 0.651077
H24   H     H_    0.539274 0.863764 0.273913 -0.013411
O18   O     O_2   0.671653 0.802339 0.351138 -0.416990
F7    F     F_    0.401683 0.276549 0.933567 -0.518352
F8    F     F_    0.582998 0.722742 0.920137 -0.515123
F9    F     F_    0.717171 0.512196 0.917163 -0.565145
F10   F     F_    0.633621 0.306851 0.920629 -0.541866
F11   F     F_    0.090236 0.670664 0.604011 -0.561543
F12   F     F_    0.122929 0.407980 0.638012 -0.563138

loop_
_geom_bond_atom_site_label_1
_geom_bond_atom_site_label_2
_ccdc_geom_bond_type
C39   H23   S    
C24   C27   S    
C31   H15   S    
C19   N2    S    
C37   H21   S    
C16   H1    S    
C36   O14   D    
O1    Zn1   S    
C2    F9    S    
C8    H12   S    
C18   C19   S    
C5    C6    T    
C31   O9    D    
C14   O3    A    
C32   O10   D    
C16   C37   S    
C3    C29   S    
C8    F12   S    
C24   C29   S    
C9    C13   S    
C25   H7    S    
C34   H18   S    
C11   C15   S    
N1    Zn2   S    
C16   C17   S    
C33   O11   D    
N2    Zn1   S    
C24   H8    S    
C20   N1    S    
C26   F7    S    
C37   O15   D    
C3    H9    S    
C27   C30   S    
C1    C12   S    
C4    C28   T    
C23   O7    A    
C5    C29   S    
O7    Zn1   S    
C25   C29   S    
C7    C12   S    
O8    Zn2   S    
C9    H13   S    
C24   H5    S    
C36   H20   S    
C10   H14   S    
C17   N2    S    
C38   O16   D    
C27   C31   S    
C35   O13   D    
C1    O1    A    
C25   C26   S    
O3    Zn1   S    
C10   C13   S    
C17   C38   S    
O4    Zn2   S    
C32   H16   S    
C6    C14   S    
C40   O18   D    
C21   F4    S    
C8    C12   S    
C20   F5    S    
C23   C28   S    
C34   O12   D    
C3    H10   S    
C26   C30   S    
C13   C15   S    
C18   N1    S    
C11   C34   S    
C23   O8    A    
C22   O6    A    
C21   N2    S    
O2    Zn2   S    
C21   F6    S    
C7    F11   S    
C9    F1    S    
C11   C33   S    
C10   F2    S    
C38   H22   S    
C19   H4    S    
C16   N1    S    
C11   C12   S    
C1    O2    A    
C15   C35   S    
C18   C39   S    
C2    C30   S    
C39   O17   D    
C2    C3    S    
C35   H19   S    
C19   C40   S    
C40   H24   S    
C14   O4    A    
C2    F10   S    
C13   C22   S    
O5    Zn1   S    
C7    H11   S    
C18   H3    S    
C25   H6    S    
C7    C9    S    
C15   C36   S    
C20   C21   S    
C8    C10   S    
C33   H17   S    
C20   F3    S    
C17   H2    S    
C27   F8    S    
C26   C32   S    
C4    C30   S    
O6    Zn2   S    
C22   O5    A    
