data_mof_unit_57615.cif
_audit_creation_date              2012-12-10T18:31:55-0500
_audit_creation_method            fapswitch 2.2
_symmetry_space_group_name_H-M    P1
_symmetry_Int_Tables_number       1
_space_group_crystal_system       triclinic
_cell_length_a                    10.764194
_cell_length_b                    14.90716
_cell_length_c                    15.487276
_cell_angle_alpha                 81.354482
_cell_angle_beta                  91.792497
_cell_angle_gamma                 104.347248
_cell_volume                      2380.23258059

loop_
_atom_site_label
_atom_site_type_symbol
_atom_type_description
_atom_site_fract_x
_atom_site_fract_y
_atom_site_fract_z
_atom_type_partial_charge
C1    C     C_R   0.475755 0.440951 0.662714 0.902891
C2    C     C_3   0.121651 0.497343 0.500522 -0.011175
C3    C     C_3   0.101373 0.585348 0.437051 -0.447391
C4    C     C_3   0.076503 0.499104 0.597153 -0.127385
C5    C     C_R   0.464505 0.403474 0.757269 -0.122865
C6    C     C_R   0.554798 0.594835 0.245354 -0.128665
C7    C     C_R   0.461312 0.277420 0.878382 -0.034929
C8    C     C_R   0.440743 0.306764 0.789466 -0.104897
C9    C     C_R   0.483536 0.467616 0.816822 0.050302
C10   C     C_R   0.523371 0.441441 0.902498 0.029722
C11   C     C_R   0.505754 0.344895 0.934743 0.057941
C12   C     C_R   0.742551 0.502025 0.496310 0.885939
C13   C     C_R   0.572001 0.508692 0.958558 0.066665
C14   C     C_R   0.569637 0.479851 0.049532 0.018573
C15   C     C_R   0.558105 0.383418 0.081041 -0.026288
C16   C     C_R   0.528806 0.317882 0.023426 -0.229074
C17   C     C_R   0.628936 0.603361 0.926404 -0.226260
C18   C     C_R   0.663920 0.670126 0.982088 -0.224815
C19   C     C_R   0.635080 0.644888 0.070684 0.161974
C20   C     C_R   0.582416 0.549845 0.104096 0.085029
C21   C     C_R   0.655050 0.713359 0.125912 -0.242546
C22   C     C_R   0.618395 0.688771 0.213829 -0.012453
C23   C     C_R   0.521843 0.558929 0.337626 0.845482
C24   C     C_R   0.532654 0.528370 0.188459 -0.256166
C25   C     C_R   0.718185 0.848724 0.622120 -0.036446
C26   C     C_R   0.666283 0.754976 0.612619 0.057590
C27   C     C_R   0.519022 0.795907 0.505644 0.211608
C28   C     C_R   0.572287 0.893656 0.507702 -0.075444
C29   C     C_R   0.675775 0.919603 0.566570 0.083494
C30   C     C_R   0.524411 0.966396 0.457035 0.090108
C31   C     C_R   0.558630 0.057565 0.479631 0.080299
C32   C     C_R   0.673006 0.082772 0.525525 -0.311715
C33   C     C_R   0.732533 0.016029 0.567891 0.030026
C34   C     C_R   0.258226 0.499088 0.499604 0.882885
C35   C     C_R   0.453755 0.954501 0.380171 -0.284375
C36   C     C_R   0.394937 0.022534 0.338193 0.102786
C37   C     C_R   0.403559 0.105911 0.374159 0.099592
C38   C     C_R   0.486011 0.123368 0.447260 -0.083760
C39   C     C_R   0.335381 0.173482 0.339280 -0.089467
C40   C     C_R   0.351035 0.254637 0.376522 -0.068650
C41   C     C_R   0.489054 0.205142 0.485947 0.231935
C42   C     C_3   0.897379 0.402990 0.477481 -0.080319
C43   C     C_3   0.040919 0.406376 0.467120 -0.075749
C44   C     C_3   0.956468 0.580722 0.420610 0.065447
C45   C     C_3   0.939247 0.521658 0.589731 -0.035244
C46   C     C_3   0.880249 0.502830 0.495200 -0.003988
H1    H     H_    0.147655 0.649038 0.466497 0.183318
H2    H     H_    0.521848 0.245012 0.049088 0.164811
H3    H     H_    0.472767 0.459304 0.209838 0.175495
H4    H     H_    0.707366 0.742166 0.955102 0.149642
H5    H     H_    0.864759 0.353053 0.537692 0.124288
H6    H     H_    0.652101 0.626242 0.858709 0.165248
H7    H     H_    0.699156 0.785855 0.100501 0.147196
H8    H     H_    0.305103 0.309043 0.348085 0.153339
H9    H     H_    0.058857 0.343808 0.509906 0.165978
H10   H     H_    0.721350 0.155354 0.524852 0.138469
H11   H     H_    0.449876 0.895243 0.347531 0.151399
H12   H     H_    0.152994 0.593383 0.374111 0.165923
N1    N     N_R   0.573860 0.731700 0.552730 -0.120475
N2    N     N_R   0.426060 0.268290 0.447230 -0.096381
O1    O     O_R   0.462770 0.383110 0.605620 -0.600536
O2    O     O_R   0.510160 0.531900 0.639510 -0.595666
O3    O     O_R   0.661510 0.425600 0.483070 -0.596149
O4    O     O_R   0.708900 0.574390 0.516960 -0.609499
O5    O     O_R   0.489840 0.468100 0.360490 -0.613539
O6    O     O_R   0.537230 0.616890 0.394380 -0.613375
O7    O     O_R   0.291100 0.425610 0.483040 -0.609446
O8    O     O_R   0.338490 0.574400 0.516930 -0.606121
Zn1   Zn    Zn3+2 0.468350 0.400660 0.477370 0.978098
Zn2   Zn    Zn3+2 0.531650 0.599340 0.522630 0.985243
N3    N     N_3   0.816801 0.361135 0.407710 -0.407624
H13   H     H_    0.848999 0.390830 0.344835 0.227367
H14   H     H_    0.816036 0.290160 0.413948 0.173310
C47   C     C_1   0.169800 0.567807 0.643134 0.212678
N4    N     N_1   0.241338 0.621724 0.678590 -0.178135
C48   C     C_1   0.933936 0.675541 0.419234 0.151434
N5    N     N_1   0.916320 0.749381 0.417034 -0.171487
C49   C     C_1   0.647456 0.761445 0.268663 0.188450
N6    N     N_1   0.671260 0.819995 0.312282 -0.200388
C50   C     C_1   0.435935 0.177985 0.911193 0.164048
N7    N     N_1   0.415687 0.098775 0.937281 -0.196476
C51   C     C_1   0.378820 0.237387 0.735303 0.253831
N8    N     N_1   0.327099 0.181640 0.693080 -0.178166
N9    N     N_3   0.426362 0.546075 0.796958 -0.429130
H15   H     H_    0.382248 0.556733 0.852466 0.199390
H16   H     H_    0.493783 0.606953 0.772347 0.202750
C52   C     C_1   0.592821 0.350017 0.168890 0.150790
N10   N     N_1   0.620662 0.323014 0.239027 -0.199586
C53   C     C_1   0.853464 0.050936 0.609596 0.207374
N11   N     N_1   0.950249 0.079460 0.642611 -0.178358
N12   N     N_3   0.544535 0.220277 0.569503 -0.417552
H17   H     H_    0.535505 0.157320 0.611653 0.184651
H18   H     H_    0.639410 0.259242 0.562434 0.185212
N13   N     N_3   0.326534 0.005074 0.259107 -0.444552
H19   H     H_    0.390419 0.995483 0.213848 0.194882
H20   H     H_    0.255140 0.942810 0.272565 0.190985
N14   N     N_3   0.809971 0.871240 0.689835 -0.445549
H21   H     H_    0.768266 0.838279 0.750126 0.181800
H22   H     H_    0.889476 0.845533 0.679691 0.215324
C54   C     C_1   0.707807 0.682230 0.668730 0.224890
N15   N     N_1   0.741077 0.623982 0.714507 -0.223550
N16   N     N_3   0.400149 0.760088 0.464186 -0.420381
H23   H     H_    0.333322 0.798837 0.471046 0.174206
H24   H     H_    0.415212 0.752488 0.399732 0.185268
C55   C     C_1   0.250634 0.164685 0.265117 0.203476
N17   N     N_1   0.182676 0.158222 0.205731 -0.188991
N18   N     N_3   0.081007 0.398530 0.378921 -0.449396
H25   H     H_    0.059504 0.449090 0.330913 0.218767
H26   H     H_    0.037266 0.332141 0.363316 0.181513
N19   N     N_3   0.920080 0.555446 0.333584 -0.474656
H27   H     H_    0.973571 0.605621 0.285212 0.185295
H28   H     H_    0.823390 0.554519 0.322071 0.183726
C56   C     C_1   0.954453 0.621665 0.600349 0.261108
N20   N     N_1   0.971427 0.699597 0.609044 -0.216200
N21   N     N_3   0.851189 0.466848 0.660789 -0.452855
H29   H     H_    0.893765 0.476708 0.721486 0.208081
H30   H     H_    0.828132 0.395218 0.657862 0.177019
C57   C     C_1   0.073785 0.408192 0.652681 0.086915
N22   N     N_1   0.072076 0.337457 0.695980 -0.188993

loop_
_geom_bond_atom_site_label_1
_geom_bond_atom_site_label_2
_ccdc_geom_bond_type
C52   N10   T    
C40   N2    A    
C35   C36   A    
C1    O2    A    
C16   H2    S    
N14   H21   S    
C7    C8    A    
C45   C46   S    
C7    C11   A    
C30   C35   A    
C8    C51   S    
C23   O6    A    
C28   C29   A    
C19   C21   A    
N9    H16   S    
O3    Zn1   S    
C30   C31   A    
C12   O4    A    
C15   C16   A    
C6    C22   A    
C29   C33   A    
O2    Zn2   S    
C18   C19   A    
C42   C46   S    
C44   C48   S    
C45   C56   S    
C20   C24   A    
C57   N22   T    
C42   N3    S    
N19   H27   S    
C19   C20   A    
N21   H30   S    
N18   H25   S    
C25   N14   S    
O4    Zn2   S    
C26   N1    A    
C4    C47   S    
C42   H5    S    
C2    C34   S    
C21   C22   A    
N18   H26   S    
C4    C57   S    
N13   H19   S    
C17   H6    S    
N14   H22   S    
C44   C46   S    
C4    C45   S    
C25   C29   A    
C3    C44   S    
C47   N4    T    
C14   C20   A    
N9    H15   S    
C22   C49   S    
C38   C41   A    
C12   C46   S    
C34   O8    A    
C39   C40   A    
N3    H14   S    
C12   O3    A    
C49   N6    T    
N1    Zn2   S    
C25   C26   A    
O7    Zn1   S    
C2    C4    S    
C5    C9    A    
C37   C38   A    
C33   C53   S    
N12   H18   S    
C11   C16   A    
C45   N21   S    
C31   C32   A    
C2    C43   S    
C6    C24   A    
C17   C18   A    
C43   N18   S    
C48   N5    T    
N13   H20   S    
C43   H9    S    
C41   N12   S    
C40   H8    S    
C1    C5    S    
C42   C43   S    
N12   H17   S    
C18   H4    S    
C15   C52   S    
C56   N20   T    
C9    C10   A    
O1    Zn1   S    
C24   H3    S    
C39   C55   S    
C36   C37   A    
C41   N2    A    
C50   N7    T    
C10   C13   A    
C1    O1    A    
C34   O7    A    
C5    C8    A    
C55   N17   T    
C27   N16   S    
C31   C38   A    
C13   C17   A    
C35   H11   S    
C32   C33   A    
C23   O5    A    
C28   C30   A    
C2    C3    S    
N3    H13   S    
C37   C39   A    
C27   N1    A    
C21   H7    S    
O6    Zn2   S    
N2    Zn1   S    
N16   H24   S    
O5    Zn1   S    
C6    C23   S    
C3    H1    S    
C54   N15   T    
N16   H23   S    
N19   H28   S    
C10   C11   A    
C9    N9    S    
C3    H12   S    
C36   N13   S    
O8    Zn2   S    
C51   N8    T    
C27   C28   A    
C14   C15   A    
C53   N11   T    
C13   C14   A    
C32   H10   S    
N21   H29   S    
C26   C54   S    
C7    C50   S    
C44   N19   S    
