data_mof_unit_47673.cif
_audit_creation_date              2012-12-11T16:08:41-0500
_audit_creation_method            fapswitch 2.2
_symmetry_space_group_name_H-M    P1
_symmetry_Int_Tables_number       1
_space_group_crystal_system       triclinic
_cell_length_a                    12.96721
_cell_length_b                    13.279298
_cell_length_c                    27.699007
_cell_angle_alpha                 94.861218
_cell_angle_beta                  89.954879
_cell_angle_gamma                 119.362926
_cell_volume                      4137.37389635

loop_
_atom_site_label
_atom_site_type_symbol
_atom_type_description
_atom_site_fract_x
_atom_site_fract_y
_atom_site_fract_z
_atom_type_partial_charge
C1    C     C_R   0.625745 0.898954 0.426002 0.543322
C2    C     C_R   0.582950 0.242303 0.218174 -0.116036
C3    C     C_R   0.571767 0.226216 0.267554 -0.102869
C4    C     C_R   0.662417 0.303529 0.301384 0.028359
C5    C     C_R   0.685316 0.335246 0.202368 0.027552
C6    C     C_1   0.692823 0.360191 0.152514 -0.068025
C7    C     C_1   0.648753 0.286745 0.352137 -0.066461
C8    C     C_1   0.701596 0.390449 0.112184 -0.022253
C9    C     C_R   0.255738 0.785672 0.341846 -0.127997
C10   C     C_R   0.248425 0.785840 0.292070 0.003995
C11   C     C_R   0.220911 0.777212 0.191782 0.008933
C12   C     C_R   0.600873 0.221318 0.440294 0.543267
C13   C     C_R   0.259623 0.707227 0.211510 -0.128702
C14   C     C_R   0.272541 0.710964 0.261530 -0.130284
C15   C     C_R   0.190115 0.761019 0.142594 -0.135170
C16   C     C_R   0.136933 0.820332 0.124176 -0.007328
C17   C     C_R   0.208503 0.941942 0.353839 -0.136850
C18   C     C_R   0.196246 0.940065 0.303521 0.008466
C19   C     C_R   0.217083 0.862116 0.272639 0.057025
C20   C     C_R   0.163909 0.014587 0.283441 -0.133539
C21   C     C_R   0.146854 0.008018 0.233244 -0.134317
C22   C     C_R   0.163471 0.927876 0.202636 0.005940
C23   C     C_R   0.274752 0.878360 0.424160 0.544069
C24   C     C_R   0.202761 0.857445 0.222288 0.057778
C25   C     C_R   0.132188 0.909897 0.153271 -0.135803
C26   C     C_R   0.238111 0.864629 0.373073 -0.002090
C27   C     C_R   0.695268 0.974786 0.348122 -0.126582
C28   C     C_R   0.691610 0.961165 0.297911 0.004937
C29   C     C_R   0.691624 0.933230 0.196194 0.031498
C30   C     C_R   0.742881 0.044883 0.221444 -0.132228
C31   C     C_R   0.743329 0.058444 0.271744 -0.138167
C32   C     C_R   0.699794 0.916941 0.145422 0.006726
C33   C     C_R   0.668214 0.803909 0.124665 0.001313
C34   C     C_R   0.627343 0.898278 0.564818 0.550234
C35   C     C_R   0.579851 0.765764 0.350806 -0.142436
C36   C     C_R   0.579077 0.750483 0.300269 0.013455
C37   C     C_R   0.634897 0.848797 0.273677 0.065284
C38   C     C_R   0.523375 0.638903 0.275858 -0.139053
C39   C     C_R   0.527145 0.624560 0.225646 -0.134280
C40   C     C_R   0.585234 0.721743 0.199346 0.000759
C41   C     C_R   0.636201 0.834700 0.222966 0.049484
C42   C     C_R   0.601894 0.707318 0.150472 -0.149535
C43   C     C_R   0.639035 0.877740 0.374683 0.003642
C44   C     C_R   0.743038 0.301404 0.650442 -0.132460
C45   C     C_R   0.603633 0.228168 0.578098 0.546895
C46   C     C_R   0.758085 0.326578 0.700791 -0.007021
C47   C     C_R   0.773809 0.355423 0.802958 -0.004613
C48   C     C_R   0.862311 0.344684 0.776816 -0.014093
C49   C     C_R   0.853003 0.329107 0.726049 -0.134254
C50   C     C_R   0.779767 0.372639 0.853908 -0.128216
C51   C     C_R   0.690694 0.383949 0.878383 0.000572
C52   C     C_R   0.566727 0.321786 0.651182 -0.126710
C53   C     C_R   0.577705 0.342217 0.701295 0.009810
C54   C     C_R   0.672139 0.341826 0.726459 0.055220
C55   C     C_R   0.490618 0.354484 0.726661 -0.131382
C56   C     C_R   0.271224 0.879174 0.563276 0.548759
C57   C     C_R   0.494298 0.361890 0.776934 -0.127982
C58   C     C_R   0.586873 0.360320 0.802231 0.017678
C59   C     C_R   0.677960 0.352758 0.777245 0.047099
C60   C     C_R   0.591507 0.370753 0.852328 -0.098216
C61   C     C_R   0.643205 0.291886 0.626118 -0.005819
C62   C     C_1   0.220750 0.862416 0.609882 -0.004975
C63   C     C_R   0.255811 0.934712 0.735663 -0.102488
C64   C     C_R   0.242322 0.925944 0.785581 0.018647
C65   C     C_R   0.055500 0.746600 0.768260 -0.112583
C66   C     C_R   0.069609 0.755749 0.718542 -0.104201
C67   C     C_1   0.631254 0.264140 0.393617 -0.018939
C68   C     C_R   0.170151 0.849354 0.702184 0.024074
C69   C     C_R   0.142013 0.830532 0.801963 0.034931
C70   C     C_1   0.124470 0.816185 0.852846 -0.028195
C71   C     C_1   0.191859 0.854306 0.651318 -0.048038
C72   C     C_1   0.100839 0.797931 0.894369 0.006979
C73   C     C_1   0.648903 0.857806 0.608202 -0.003961
C74   C     C_R   0.789400 0.875514 0.720566 -0.123704
C75   C     C_R   0.804221 0.861970 0.769261 0.002712
C76   C     C_R   0.603835 0.698681 0.765891 -0.119653
C77   C     C_R   0.589167 0.712036 0.717090 0.006592
C78   C     C_R   0.765615 0.395216 0.285500 -0.113657
C79   C     C_R   0.681796 0.802544 0.694513 0.008304
C80   C     C_R   0.709853 0.774683 0.792447 0.008205
C81   C     C_1   0.719313 0.764721 0.843672 -0.044388
C82   C     C_1   0.664692 0.829579 0.646638 -0.041366
C83   C     C_1   0.730510 0.759147 0.886475 -0.001314
C84   C     C_R   0.066695 0.774091 0.078502 0.550469
C85   C     C_R   0.716532 0.440575 0.067067 0.548995
C86   C     C_R   0.717635 0.783270 0.079824 0.546631
C87   C     C_R   0.056727 0.766403 0.941280 0.538288
C88   C     C_R   0.710658 0.435125 0.928687 0.537333
C89   C     C_R   0.776921 0.411112 0.236104 -0.107022
C90   C     C_R   0.750017 0.753862 0.937047 0.563096
Cr1   Cr    Cr6+3 0.416430 0.829200 0.492370 1.033384
Cr2   Cr    Cr6+3 0.674630 0.087020 0.504170 1.022960
Cr3   Cr    Cr6+3 0.408920 0.083740 0.503490 1.028216
Cr4   Cr    Cr6+3 0.914010 0.832750 0.013970 1.025651
Cr5   Cr    Cr6+3 0.922310 0.578600 0.003000 1.027979
Cr6   Cr    Cr6+3 0.656280 0.574630 0.003870 1.026933
H1    H     H_    0.836502 0.454992 0.311261 0.114100
H2    H     H_    0.117229 0.063021 0.218482 0.111219
H3    H     H_    0.148733 0.075605 0.306575 0.112745
H4    H     H_    0.197269 0.004375 0.377843 0.123222
H5    H     H_    0.737120 0.061990 0.366440 0.136820
H6    H     H_    0.787274 0.122960 0.203139 0.121118
H7    H     H_    0.785738 0.145367 0.290256 0.119130
H8    H     H_    0.572169 0.620111 0.133687 0.139756
H9    H     H_    0.487378 0.537403 0.207494 0.114035
H10   H     H_    0.479461 0.562866 0.295664 0.110972
H11   H     H_    0.856010 0.483985 0.224323 0.119527
H12   H     H_    0.533934 0.691410 0.371481 0.112579
H13   H     H_    0.855819 0.382947 0.874529 0.147834
H14   H     H_    0.803643 0.280489 0.630899 0.132911
H15   H     H_    0.919272 0.317636 0.706200 0.123426
H16   H     H_    0.521579 0.378389 0.870852 0.148700
H17   H     H_    0.425096 0.369482 0.796059 0.127862
H18   H     H_    0.417759 0.354709 0.707610 0.133588
H19   H     H_    0.491089 0.317407 0.632367 0.142394
H20   H     H_    0.334142 0.006824 0.722831 0.120994
H21   H     H_    0.511093 0.183754 0.192538 0.113387
H22   H     H_    0.977569 0.673118 0.780465 0.119427
H23   H     H_    0.003388 0.688904 0.692953 0.121541
H24   H     H_    0.860792 0.945226 0.703282 0.123069
H25   H     H_    0.531640 0.630564 0.783531 0.122180
H26   H     H_    0.491860 0.154376 0.279424 0.124464
H27   H     H_    0.196823 0.694200 0.119719 0.131189
H28   H     H_    0.281650 0.727317 0.356090 0.138817
H29   H     H_    0.274944 0.646211 0.188420 0.114330
H30   H     H_    0.298863 0.653590 0.276364 0.115676
H31   H     H_    0.093546 0.957862 0.138728 0.133179
O1    O     O_R   0.296680 0.802170 0.437540 -0.524278
O2    O     O_R   0.662610 0.183990 0.557860 -0.501493
O3    O     O_R   0.500730 0.201280 0.562180 -0.516325
O4    O     O_R   0.312500 0.978850 0.548170 -0.493962
O5    O     O_3   0.499990 0.999990 0.500010 -0.248292
O6    O     O_R   0.820790 0.857990 0.068830 -0.519506
O7    O     O_R   0.016700 0.827330 0.062850 -0.501565
O8    O     O_R   0.041970 0.673520 0.060040 -0.513303
O9    O     O_R   0.817980 0.483660 0.048840 -0.489007
O10   O     O_R   0.637200 0.461990 0.052510 -0.508553
O11   O     O_R   0.664790 0.681920 0.057970 -0.499241
O12   O     O_R   0.525380 0.838530 0.443500 -0.503266
O13   O     O_R   0.815840 0.852920 0.961840 -0.497265
O14   O     O_R   0.012100 0.822630 0.963670 -0.506841
O15   O     O_R   0.037010 0.668460 0.953040 -0.505247
O16   O     O_R   0.813390 0.478970 0.949660 -0.503265
O17   O     O_R   0.632250 0.456930 0.945520 -0.524020
O18   O     O_R   0.660200 0.677230 0.958780 -0.493628
O19   O     O_3   0.830870 0.661990 0.006950 -0.269491
O20   O     O_R   0.702130 0.995190 0.446810 -0.519808
O21   O     O_R   0.661770 0.181390 0.458760 -0.501587
O22   O     O_R   0.499820 0.198480 0.455280 -0.506441
O23   O     O_R   0.311660 0.976250 0.449080 -0.499864
O24   O     O_R   0.297580 0.804960 0.544440 -0.498770
O25   O     O_R   0.526220 0.841130 0.542590 -0.486993
O26   O     O_R   0.703030 0.997990 0.553710 -0.509257
C91   C     C_3   0.737773 0.016676 0.113624 -0.270469
C92   C     C_3   0.645531 0.056651 0.111999 -0.441557
H32   H     H_    0.559411 0.983838 0.096678 0.160184
H33   H     H_    0.632016 0.087898 0.148535 0.159814
H34   H     H_    0.675430 0.128803 0.088494 0.146923
H35   H     H_    0.825863 0.090170 0.126435 0.138120
H36   H     H_    0.746642 0.991092 0.075428 0.177425
C93   C     C_1   0.962345 0.347056 0.800954 0.191798
N1    N     N_1   0.042480 0.348927 0.820250 -0.279532
C94   C     C_1   0.332816 0.014278 0.819169 0.208683
N2    N     N_1   0.405354 0.084965 0.846115 -0.291922
C95   C     C_1   0.915871 0.940321 0.795038 0.204689
N3    N     N_1   0.005330 0.003078 0.815678 -0.275189
C96   C     C_1   0.477464 0.634124 0.691327 0.195279
N4    N     N_1   0.387940 0.571620 0.670685 -0.300363

loop_
_geom_bond_atom_site_label_1
_geom_bond_atom_site_label_2
_ccdc_geom_bond_type
Cr4   O19   S    
C66   C68   A    
C84   O8    A    
Cr5   O16   S    
C95   N3    T    
Cr2   O21   S    
Cr4   O13   S    
Cr3   O22   S    
C35   C36   A    
Cr4   O6    S    
C93   N1    T    
C53   C54   A    
C45   O2    A    
Cr6   O18   S    
C46   C49   A    
C84   O7    A    
C15   H27   S    
C5    C6    S    
C33   C42   A    
C27   C28   A    
C36   C37   A    
Cr2   O5    S    
C18   C19   A    
C90   O18   A    
C52   C61   A    
C64   C94   S    
Cr6   O11   S    
C38   C39   A    
C52   H19   S    
C92   H33   S    
C58   C60   A    
C15   C16   A    
C11   C24   A    
C16   C84   S    
C9    H28   S    
C8    C85   S    
C23   C26   S    
C35   H12   S    
C11   C15   A    
C1    C43   S    
C94   N2    T    
C22   C25   A    
C65   H22   S    
Cr2   O26   S    
Cr3   O5    S    
C35   C43   A    
C75   C80   A    
C88   O16   A    
C18   C20   A    
C1    O12   A    
C3    H26   S    
C49   H15   S    
C13   H29   S    
C40   C42   A    
C45   O3    A    
C21   C22   A    
C92   H34   S    
C89   H11   S    
Cr3   O23   S    
Cr5   O19   S    
C4    C7    S    
C81   C83   T    
C2    H21   S    
C44   C46   A    
C9    C26   A    
C50   C51   A    
C47   C50   A    
C54   C59   A    
C53   C55   A    
C78   C89   A    
C12   C67   S    
Cr1   O1    S    
C76   C77   A    
C10   C14   A    
Cr6   O10   S    
C34   O25   A    
C57   H17   S    
Cr1   O5    S    
C34   C73   S    
C58   C59   A    
C47   C59   A    
C27   H5    S    
C50   H13   S    
C31   H7    S    
C38   H10   S    
C33   C86   S    
Cr2   O2    S    
C91   H36   S    
C29   C30   A    
C60   H16   S    
Cr6   O17   S    
C86   O6    A    
C90   O13   A    
C47   C48   A    
C10   C19   A    
C46   C54   A    
C78   H1    S    
Cr5   O8    S    
C17   C18   A    
C77   C79   A    
C75   C95   S    
C64   C69   A    
C87   O14   A    
C56   O24   A    
C91   C92   S    
C30   H6    S    
Cr1   O12   S    
C63   H20   S    
C48   C49   A    
C23   O23   A    
C74   C79   A    
C55   C57   A    
C22   C24   A    
C1    O20   A    
C2    C5    A    
C77   C96   S    
C76   H25   S    
C32   C91   S    
Cr3   O3    S    
C85   O10   A    
C73   C82   T    
C96   N4    T    
C72   C87   S    
Cr6   O19   S    
C52   C53   A    
C9    C10   A    
C34   O26   A    
C16   C25   A    
C39   H9    S    
C83   C90   S    
C63   C68   A    
C40   C41   A    
C29   C41   A    
C20   C21   A    
Cr4   O14   S    
C12   O22   A    
C28   C31   A    
C76   C80   A    
C80   C81   S    
C42   H8    S    
C51   C88   S    
C79   C82   S    
C6    C8    T    
C48   C93   S    
C55   H18   S    
C44   C61   A    
C4    C78   A    
C74   H24   S    
C14   H30   S    
C66   H23   S    
C32   C33   A    
C12   O21   A    
C36   C38   A    
C2    C3    A    
C25   H31   S    
C29   C32   A    
Cr3   O4    S    
Cr1   O24   S    
C21   H2    S    
C11   C13   A    
C57   C58   A    
C30   C31   A    
C20   H3    S    
C28   C37   A    
C68   C71   S    
C65   C69   A    
C45   C61   S    
Cr5   O9    S    
Cr4   O7    S    
C17   C26   A    
C62   C71   T    
C19   C24   A    
C56   C62   S    
C87   O15   A    
C37   C41   A    
C69   C70   S    
C17   H4    S    
C56   O4    A    
C86   O11   A    
C85   O9    A    
C7    C67   T    
C63   C64   A    
C39   C40   A    
C27   C43   A    
C91   H35   S    
C74   C75   A    
Cr5   O15   S    
C65   C66   A    
C92   H32   S    
C70   C72   T    
C51   C60   A    
Cr1   O25   S    
C13   C14   A    
C88   O17   A    
C5    C89   A    
C3    C4    A    
C23   O1    A    
Cr2   O20   S    
C44   H14   S    
