data_mof_unit_40223.cif
_audit_creation_date              2012-10-26T19:45:33-0400
_audit_creation_method            fapswitch 2.2
_symmetry_space_group_name_H-M    P1
_symmetry_Int_Tables_number       1
_space_group_crystal_system       triclinic
_cell_length_a                    10.784348
_cell_length_b                    9.647986
_cell_length_c                    10.871568
_cell_angle_alpha                 89.719375
_cell_angle_beta                  90.262973
_cell_angle_gamma                 90.699648
_cell_volume                      1131.04712178

loop_
_atom_site_label
_atom_site_type_symbol
_atom_type_description
_atom_site_fract_x
_atom_site_fract_y
_atom_site_fract_z
_atom_type_partial_charge
C1    C     C_R   0.262514 0.499657 0.496491 0.507596
C2    C     C_R   0.405388 0.923645 0.447559 0.325465
C3    C     C_R   0.595639 0.927149 0.551354 0.479716
C4    C     C_R   0.597743 0.074644 0.547358 0.468201
C5    C     C_R   0.492084 0.499361 0.260063 0.563345
C6    C     C_R   0.737341 0.500778 0.499780 0.563081
C7    C     C_R   0.497012 0.499486 0.739841 0.645628
C8    C     C_3   0.377992 0.591167 0.070023 0.607036
C9    C     C_3   0.459788 0.344572 0.068717 0.537540
C10   C     C_3   0.372021 0.575837 0.924923 0.526939
C11   C     C_3   0.488780 0.343364 0.928281 0.572371
C12   C     C_3   0.608303 0.572024 0.931790 0.652575
C13   C     C_3   0.611377 0.551673 0.072515 -0.228443
C14   C     C_3   0.484240 0.496385 0.121065 -0.084627
C15   C     C_3   0.490804 0.497580 0.878110 0.015846
C16   C     C_3   0.160328 0.628228 0.093575 -0.033079
C17   C     C_3   0.297910 0.251915 0.194965 0.014261
C18   C     C_3   0.188657 0.565932 0.804638 -0.044867
C19   C     C_3   0.419988 0.120113 0.868716 0.074362
C20   C     C_3   0.202232 0.084101 0.542909 -0.104631
C21   C     C_3   0.279126 0.909884 0.277086 -0.068931
C22   C     C_R   0.063034 0.397627 0.560445 -0.153955
C23   C     C_R   0.064608 0.608042 0.437985 -0.126370
C24   C     C_R   0.934858 0.397009 0.560788 -0.093875
C25   C     C_R   0.936052 0.609169 0.439610 -0.121075
C26   C     C_R   0.871166 0.502274 0.499601 0.046390
C27   C     C_R   0.128247 0.500323 0.496259 0.012917
C28   C     C_R   0.397431 0.070783 0.464936 0.279970
Cu1   Cu    Cu3+1 0.500020 0.640660 0.500000 1.156716
Cu2   Cu    Cu3+1 0.500020 0.359340 0.500000 1.121051
F1    F     F_    0.407778 0.727519 0.099401 -0.604375
F2    F     F_    0.538057 0.248473 0.124020 -0.601928
F3    F     F_    0.690203 0.860765 0.607930 -0.533473
F4    F     F_    0.694748 0.142206 0.600180 -0.567189
F5    F     F_    0.371643 0.709797 0.874979 -0.596955
F6    F     F_    0.605896 0.287185 0.909172 -0.541738
F7    F     F_    0.606955 0.712720 0.904888 -0.496250
F8    F     F_    0.715732 0.519354 0.881167 -0.547972
H1    H     H_    0.637308 0.651625 0.117053 0.192505
H2    H     H_    0.278915 0.337221 0.259570 0.186182
H3    H     H_    0.366856 0.180016 0.233452 0.183672
H4    H     H_    0.209195 0.194375 0.183429 0.123223
H5    H     H_    0.240088 0.587559 0.719271 0.155197
H6    H     H_    0.152373 0.664653 0.840921 0.149367
H7    H     H_    0.107346 0.498776 0.784411 0.148488
H8    H     H_    0.439252 0.083099 0.963802 0.214520
H9    H     H_    0.497712 0.093706 0.806700 0.202114
H10   H     H_    0.336349 0.063494 0.835457 0.113134
H11   H     H_    0.229301 0.126705 0.634082 0.137454
H12   H     H_    0.685036 0.476741 0.097816 0.180742
H13   H     H_    0.196114 0.969381 0.549813 0.150297
H14   H     H_    0.107131 0.117398 0.519134 0.150917
H15   H     H_    0.234020 0.830830 0.221157 0.172070
H16   H     H_    0.361042 0.947961 0.224360 0.175723
H17   H     H_    0.207482 0.989440 0.289545 0.121531
H18   H     H_    0.111356 0.323362 0.616501 0.135652
H19   H     H_    0.114005 0.690724 0.391266 0.166777
H20   H     H_    0.885779 0.317061 0.611882 0.218646
H21   H     H_    0.887485 0.691936 0.392864 0.144292
H22   H     H_    0.097810 0.560815 0.038322 0.179661
H23   H     H_    0.182561 0.725439 0.042474 0.158252
H24   H     H_    0.105809 0.654632 0.175967 0.093314
N1    N     N_R   0.500030 0.852070 0.500030 -0.275402
N2    N     N_R   0.500030 0.147930 0.500030 -0.275919
O1    O     O_R   0.319660 0.618740 0.499990 -0.477692
O2    O     O_3   0.332306 0.303974 0.079199 -0.525340
O3    O     O_3   0.264569 0.497036 0.890826 -0.550338
O4    O     O_3   0.396415 0.263934 0.864005 -0.526250
O5    O     O_3   0.284190 0.133739 0.450828 -0.583638
O6    O     O_3   0.311602 0.848975 0.390270 -0.539245
O7    O     O_R   0.319660 0.381260 0.499990 -0.482829
O8    O     O_R   0.499990 0.618790 0.317690 -0.455741
O9    O     O_R   0.499990 0.381210 0.317690 -0.481198
O10   O     O_R   0.680370 0.618830 0.500010 -0.457743
O11   O     O_R   0.680370 0.381170 0.500010 -0.447868
O12   O     O_R   0.500030 0.618780 0.682310 -0.409617
O13   O     O_R   0.500030 0.381220 0.682310 -0.440999
O14   O     O_3   0.265483 0.552355 0.130710 -0.545185

loop_
_geom_bond_atom_site_label_1
_geom_bond_atom_site_label_2
_ccdc_geom_bond_type
Cu1   N1    S    
Cu2   N2    S    
C28   O5    S    
Cu2   O7    S    
C19   H8    S    
C6    O11   A    
Cu1   O12   S    
C10   O3    S    
C2    N1    A    
C17   O2    S    
Cu1   Cu2   S    
C11   F6    S    
C24   C26   A    
C20   H13   S    
C10   C15   S    
C21   H16   S    
C19   H9    S    
C3    F3    S    
C16   H22   S    
C12   F7    S    
C9    O2    S    
C9    F2    S    
C17   H4    S    
Cu2   O13   S    
C11   C15   S    
C1    O1    A    
C10   F5    S    
C23   C27   A    
C7    O13   A    
Cu1   O8    S    
C7    C15   S    
C13   C14   S    
C8    O14   S    
C16   H24   S    
C6    O10   A    
C4    F4    S    
C21   H17   S    
Cu2   O9    S    
C19   H10   S    
C22   H18   S    
Cu1   O10   S    
C25   C26   A    
C17   H2    S    
C9    C14   S    
C20   H11   S    
C18   H6    S    
C12   C15   S    
C19   O4    S    
C1    O7    A    
C9    C11   S    
C5    C14   S    
Cu1   O1    S    
C28   N2    A    
C8    C10   S    
C22   C27   A    
C22   C24   A    
C20   O5    S    
C16   H23   S    
C3    C4    A    
C18   H7    S    
C11   O4    S    
C23   H19   S    
C8    C14   S    
C8    F1    S    
C5    O9    A    
C7    O12   A    
C3    N1    A    
C5    O8    A    
C4    N2    A    
C21   O6    S    
C18   O3    S    
C20   H14   S    
C18   H5    S    
C21   H15   S    
Cu2   O11   S    
C6    C26   S    
C16   O14   S    
C23   C25   A    
C12   F8    S    
C17   H3    S    
C13   H1    S    
C13   H12   S    
C12   C13   S    
C24   H20   S    
C1    C27   S    
C2    C28   A    
C25   H21   S    
C2    O6    S    
