data_mof_unit_22137.cif
_audit_creation_date              2012-12-11T17:29:46-0500
_audit_creation_method            fapswitch 2.2
_symmetry_space_group_name_H-M    P1
_symmetry_Int_Tables_number       1
_space_group_crystal_system       triclinic
_cell_length_a                    18.787685
_cell_length_b                    18.81176
_cell_length_c                    20.441228
_cell_angle_alpha                 107.09629
_cell_angle_beta                  106.582136
_cell_angle_gamma                 110.937918
_cell_volume                      5799.74129175

loop_
_atom_site_label
_atom_site_type_symbol
_atom_type_description
_atom_site_fract_x
_atom_site_fract_y
_atom_site_fract_z
_atom_type_partial_charge
C1    C     C_R   0.085487 0.087904 0.353532 -0.109856
C2    C     C_R   0.244175 0.069187 0.547449 -0.117904
C3    C     C_R   0.153328 0.223836 0.709418 -0.117014
C4    C     C_R   0.758144 0.927262 0.499876 -0.147217
C5    C     C_R   0.997927 0.762930 0.430065 -0.147638
C6    C     C_R   0.229771 0.273910 0.711638 -0.037382
C7    C     C_R   0.945826 0.708668 0.449673 0.079042
C8    C     C_R   0.252085 0.996886 0.539384 0.057571
C9    C     C_R   0.016207 0.975711 0.725486 -0.128315
C10   C     C_R   0.947388 0.578642 0.375100 -0.263614
C11   C     C_R   0.914356 0.616481 0.419561 0.106772
C12   C     C_R   0.752461 0.997573 0.539898 0.101255
C13   C     C_R   0.856914 0.567094 0.440117 -0.211062
C14   C     C_R   0.842159 0.484683 0.425972 0.072406
C15   C     C_R   0.884475 0.451362 0.390031 0.029556
C16   C     C_R   0.838457 0.817729 0.281312 -0.125432
C17   C     C_R   0.933806 0.496861 0.361085 0.161607
C18   C     C_R   0.791376 0.437814 0.452640 -0.360279
C19   C     C_R   0.788811 0.361900 0.450509 0.564297
C20   C     C_R   0.842850 0.336354 0.426390 -0.058303
C21   C     C_R   0.885220 0.377359 0.390560 -0.019143
C22   C     C_R   0.935903 0.349906 0.362606 0.181961
C23   C     C_R   0.756325 0.794925 0.274173 0.036968
C24   C     C_R   0.976722 0.390018 0.326005 -0.215899
C25   C     C_R   0.975684 0.463396 0.325257 -0.210943
C26   C     C_R   0.862483 0.277388 0.444360 -0.232487
C27   C     C_R   0.923457 0.260040 0.427038 0.111068
C28   C     C_R   0.948523 0.196038 0.520364 -0.136393
C29   C     C_R   0.952825 0.289556 0.379352 -0.251685
C30   C     C_R   0.331382 0.917801 0.562341 -0.231771
C31   C     C_R   0.329142 0.994807 0.580295 0.112768
C32   C     C_R   0.404711 0.071418 0.628286 -0.233040
C33   C     C_R   0.481939 0.072865 0.640918 0.104806
C34   C     C_R   0.963936 0.220437 0.465678 0.069164
C35   C     C_R   0.483666 0.996232 0.611116 0.050519
C36   C     C_R   0.408997 0.918221 0.577628 0.096172
C37   C     C_R   0.556277 0.150242 0.675955 -0.261631
C38   C     C_R   0.629411 0.152955 0.670410 0.297549
C39   C     C_R   0.626004 0.076472 0.626561 0.054395
C40   C     C_R   0.760704 0.811230 0.346414 -0.124861
C41   C     C_R   0.557202 0.997879 0.606617 -0.109165
C42   C     C_R   0.557853 0.920807 0.573861 0.110694
C43   C     C_R   0.486569 0.842552 0.551511 0.307961
C44   C     C_R   0.411976 0.842186 0.552217 -0.249714
C45   C     C_R   0.229027 0.230048 0.643681 0.294886
C46   C     C_R   0.682015 0.075074 0.593363 0.231531
C47   C     C_R   0.686752 0.999145 0.565206 0.055479
C48   C     C_R   0.627585 0.924104 0.560274 -0.302494
C49   C     C_R   0.291978 0.362239 0.767549 0.163882
C50   C     C_R   0.267844 0.416061 0.808283 -0.191097
C51   C     C_R   0.329047 0.497732 0.864575 -0.165014
C52   C     C_R   0.026766 0.202284 0.455838 -0.118927
C53   C     C_R   0.415122 0.526424 0.880111 0.225611
C54   C     C_R   0.437923 0.474282 0.836531 -0.192881
C55   C     C_R   0.377425 0.392349 0.781988 -0.164961
C56   C     C_R   0.920340 0.755959 0.494091 -0.136486
C57   C     C_R   0.614831 0.732597 0.071630 -0.165606
C58   C     C_R   0.687109 0.770477 0.139777 -0.187942
C59   C     C_R   0.534050 0.687508 0.067352 0.223107
C60   C     C_R   0.679987 0.764468 0.204690 0.146662
C61   C     C_R   0.598972 0.727218 0.201996 -0.177607
C62   C     C_R   0.526697 0.689746 0.133883 -0.180118
C63   C     C_R   0.094457 0.023244 0.228633 -0.004308
C64   C     C_R   0.829668 0.067221 0.565931 -0.170832
C65   C     C_R   0.040857 0.959286 0.154362 -0.276377
C66   C     C_R   0.066741 0.955768 0.097281 -0.160850
C67   C     C_R   0.175238 0.928426 0.482558 -0.118755
C68   C     C_R   0.147539 0.016344 0.112876 0.202661
C69   C     C_R   0.201879 0.080386 0.186974 -0.365518
C70   C     C_R   0.176009 0.085016 0.245824 0.561201
C71   C     C_R   0.166170 0.028939 0.922094 -0.185596
C72   C     C_R   0.133091 0.035227 0.855060 -0.190042
C73   C     C_R   0.125261 0.953057 0.927093 0.226979
C74   C     C_R   0.058339 0.966589 0.792928 0.163033
C75   C     C_R   0.023829 0.888455 0.795589 -0.166407
C76   C     C_R   0.015771 0.947513 0.289397 -0.159664
C77   C     C_R   0.058045 0.881687 0.861931 -0.193525
C78   C     C_R   0.028152 0.050518 0.718763 0.558650
C79   C     C_R   0.063012 0.021082 0.286416 0.103211
C80   C     C_3   0.016342 0.135828 0.816324 0.144642
C81   C     C_3   0.939552 0.141388 0.770665 -0.331984
C82   C     C_3   0.890076 0.155736 0.816135 -0.982477
C83   C     C_3   0.670055 0.241972 0.420498 0.170567
C84   C     C_3   0.599004 0.256522 0.377730 -0.322396
C85   C     C_3   0.521928 0.172530 0.316382 -0.988732
C86   C     C_3   0.709414 0.237337 0.713928 -1.000475
C87   C     C_3   0.714799 0.143305 0.567729 -1.009230
C88   C     C_3   0.486048 0.758857 0.521073 -1.036236
C89   C     C_R   0.962799 0.910061 0.652813 -0.221088
C90   C     C_3   0.269281 0.226953 0.331324 0.147895
C91   C     C_3   0.365497 0.264145 0.362830 -0.240013
C92   C     C_3   0.408735 0.356605 0.377097 -1.033993
C93   C     C_3   0.274958 0.270795 0.604386 -1.052356
H1    H     H_    0.131352 0.153530 0.374950 0.117365
H2    H     H_    0.756030 0.461502 0.477769 0.161374
H3    H     H_    0.715149 0.861478 0.481716 0.088446
H4    H     H_    0.835732 0.251039 0.477430 0.150687
H5    H     H_    0.995944 0.272970 0.361550 0.111612
H6    H     H_    0.014478 0.368368 0.302993 0.127815
H7    H     H_    0.012453 0.497057 0.301475 0.129671
H8    H     H_    0.273316 0.857786 0.529882 0.118156
H9    H     H_    0.404456 0.131254 0.647999 0.113617
H10   H     H_    0.556267 0.208996 0.703924 0.144363
H11   H     H_    0.858720 0.814034 0.236643 0.092649
H12   H     H_    0.869753 0.731593 0.509818 0.085863
H13   H     H_    0.632034 0.866831 0.539547 0.151356
H14   H     H_    0.354875 0.782346 0.529056 0.139833
H15   H     H_    0.748346 0.801677 0.140553 0.114267
H16   H     H_    0.622388 0.733910 0.021348 0.124438
H17   H     H_    0.504001 0.495119 0.848862 0.123126
H18   H     H_    0.398413 0.351432 0.753667 0.126829
H19   H     H_    0.590824 0.722397 0.251058 0.113203
H20   H     H_    0.309576 0.537122 0.897297 0.126093
H21   H     H_    0.465068 0.655684 0.131538 0.121378
H22   H     H_    0.903619 0.200615 0.542137 0.103620
H23   H     H_    0.158246 0.862201 0.461777 0.095832
H24   H     H_    0.202213 0.394786 0.797654 0.115408
H25   H     H_    0.164346 0.094809 0.853278 0.167445
H26   H     H_    0.219773 0.084778 0.971229 0.130317
H27   H     H_    0.264118 0.126423 0.198566 0.139259
H28   H     H_    0.967298 0.833714 0.748307 0.116765
H29   H     H_    0.021832 0.907391 0.039951 0.132933
H30   H     H_    0.026089 0.822955 0.865030 0.121782
H31   H     H_    0.977633 0.912366 0.139916 0.143806
H32   H     H_    0.709489 0.802914 0.362465 0.094723
H33   H     H_    0.054325 0.212301 0.417706 0.086461
H34   H     H_    0.941539 0.843301 0.635746 0.135033
H35   H     H_    0.855007 0.129174 0.611392 0.113917
H36   H     H_    0.999879 0.883998 0.252644 0.101314
H37   H     H_    0.056376 0.194535 0.870943 0.141567
H38   H     H_    0.995494 0.082170 0.831588 0.104934
H39   H     H_    0.961362 0.194368 0.754963 0.200707
H40   H     H_    0.896310 0.081263 0.717680 0.196634
H41   H     H_    0.868054 0.103530 0.832653 0.267361
H42   H     H_    0.833794 0.156913 0.780708 0.270114
H43   H     H_    0.930377 0.217249 0.868146 0.264789
H44   H     H_    0.645128 0.200649 0.446512 0.140017
H45   H     H_    0.290975 0.133323 0.587437 0.115603
H46   H     H_    0.687834 0.206376 0.379813 0.092558
H47   H     H_    0.580042 0.289805 0.418504 0.212880
H48   H     H_    0.621881 0.296760 0.350099 0.196171
H49   H     H_    0.540237 0.136846 0.276594 0.267935
H50   H     H_    0.473666 0.184958 0.283211 0.264584
H51   H     H_    0.493682 0.133303 0.342753 0.270503
H52   H     H_    0.766606 0.229493 0.722503 0.253702
H53   H     H_    0.707463 0.277462 0.683754 0.262706
H54   H     H_    0.715543 0.270815 0.771610 0.248021
H55   H     H_    0.717190 0.116701 0.512679 0.245161
H56   H     H_    0.126180 0.245691 0.745683 0.155018
H57   H     H_    0.670991 0.169890 0.556863 0.261194
H58   H     H_    0.778393 0.195975 0.610943 0.252165
H59   H     H_    0.493911 0.747642 0.467762 0.249410
H60   H     H_    0.538399 0.759454 0.564069 0.252359
H61   H     H_    0.425690 0.704875 0.508070 0.254126
H62   H     H_    0.254788 0.263954 0.374028 0.116701
H63   H     H_    0.244062 0.235264 0.279199 0.080534
H64   H     H_    0.390367 0.260080 0.417143 0.210412
H65   H     H_    0.381132 0.226679 0.321747 0.195129
H66   H     H_    0.386118 0.361909 0.323152 0.268682
H67   H     H_    0.018553 0.745534 0.386530 0.089681
H68   H     H_    0.478339 0.381371 0.399923 0.271211
H69   H     H_    0.395228 0.395781 0.419214 0.270472
H70   H     H_    0.278647 0.333798 0.615893 0.262532
H71   H     H_    0.339880 0.278597 0.624079 0.238223
H72   H     H_    0.240577 0.230830 0.541844 0.258067
H73   H     H_    0.989621 0.614406 0.356515 0.116542
H74   H     H_    0.828215 0.594031 0.471829 0.115280
N1    N     N_R   0.052570 0.055840 0.395080 -0.046934
N2    N     N_2   0.462392 0.626728 0.997212 -0.104794
N3    N     N_2   0.167853 0.021552 0.052301 -0.093227
N4    N     N_R   0.834730 0.954500 0.499860 -0.036662
N5    N     N_2   0.133744 0.950531 0.997236 -0.100886
N6    N     N_R   0.890190 0.849120 0.355200 -0.038509
N7    N     N_R   0.997110 0.161210 0.539740 -0.042068
N8    N     N_R   0.841940 0.845190 0.395070 -0.037965
N9    N     N_R   0.045360 0.165140 0.499870 -0.039929
N10   N     N_R   0.877490 0.041590 0.539730 -0.041597
N11   N     N_R   0.009810 0.968740 0.355210 -0.039758
N12   N     N_R   0.954640 0.834860 0.500130 -0.035062
N13   N     N_R   0.158060 0.154810 0.604930 -0.060636
N14   N     N_R   0.122510 0.958410 0.460270 -0.039769
N15   N     N_R   0.990190 0.031260 0.644790 -0.091834
N16   N     N_R   0.947430 0.944160 0.604920 -0.064825
N17   N     N_R   0.165270 0.045500 0.500140 -0.037455
N18   N     N_R   0.109810 0.150880 0.644800 -0.058135
N19   N     N_R   0.002890 0.838790 0.460260 -0.039685
N20   N     N_2   0.482108 0.600494 0.945323 -0.104393
Ni1   Ni    Ni4+2 0.104370 0.104380 0.500010 0.216498
Ni2   Ni    Ni4+2 0.895630 0.895620 0.499990 0.204042
Ni3   Ni    Ni4+2 0.006290 0.904630 0.408560 0.214235
Ni4   Ni    Ni4+2 0.993710 0.095370 0.591440 0.208677
O1    O     O_3   0.066924 0.131070 0.777168 -0.701828
O2    O     O_3   0.740284 0.319250 0.480116 -0.661792
O3    O     O_3   0.232460 0.141955 0.321102 -0.671947

loop_
_geom_bond_atom_site_label_1
_geom_bond_atom_site_label_2
_ccdc_geom_bond_type
C16   N6    A    
C92   H68   S    
C66   C68   A    
C63   C65   A    
C82   H41   S    
N10   Ni4   S    
C6    C45   A    
C27   C29   A    
C50   H24   S    
C88   H59   S    
C41   C42   A    
C14   C18   A    
C35   C36   A    
C76   C79   A    
C67   H23   S    
C3    C6    A    
C45   C93   S    
C86   H54   S    
C85   H50   S    
C83   H46   S    
C81   C82   S    
C90   C91   S    
N13   N18   A    
C39   C41   A    
N12   N19   A    
C63   C79   S    
C53   C54   A    
C7    C11   S    
C54   H17   S    
C26   C27   A    
C51   H20   S    
C22   C29   A    
C20   C26   A    
C29   H5    S    
C38   C86   S    
C92   H66   S    
N1    Ni1   S    
C43   C88   S    
C5    N19   A    
C22   C24   A    
C4    N4    A    
C62   H21   S    
C76   N11   A    
C30   C31   A    
N11   Ni3   S    
N1    N11   A    
C57   C59   A    
N15   Ni4   S    
C93   H70   S    
C10   C17   A    
C58   C60   A    
C23   C40   A    
C24   H6    S    
C3    N18   A    
N6    Ni3   S    
N4    Ni2   S    
C18   C19   A    
C76   H36   S    
C65   H31   S    
C82   H42   S    
N15   N16   A    
C91   H65   S    
N13   Ni1   S    
C45   N13   A    
C4    H3    S    
C68   N3    S    
C16   H11   S    
C48   H13   S    
C19   C20   A    
C68   C69   A    
C64   H35   S    
C87   H57   S    
C90   O3    S    
C66   H29   S    
N18   Ni4   S    
C4    C12   A    
C67   N14   A    
C52   N9    A    
C70   O3    S    
N7    Ni4   S    
C93   H72   S    
C80   H38   S    
C87   H58   S    
C13   C14   A    
C18   H2    S    
C80   O1    S    
C61   C62   A    
C7    C56   A    
C12   C47   S    
N16   Ni2   S    
C85   H51   S    
N9    Ni1   S    
C5    C7    A    
N6    N8    A    
C27   C34   S    
C23   C60   S    
C57   H16   S    
C3    H56   S    
C80   H37   S    
C74   C75   A    
C2    H45   S    
C47   C48   A    
C78   O1    S    
C24   C25   A    
N2    N20   D    
C72   C74   A    
C87   H55   S    
C9    C89   A    
C91   C92   S    
C71   C73   A    
C52   H33   S    
C1    H1    S    
C81   H39   S    
C42   C48   A    
C93   H71   S    
C49   C55   A    
C33   C37   A    
N17   Ni1   S    
C60   C61   A    
C78   N15   A    
C88   H61   S    
C83   O2    S    
C43   C44   A    
C37   C38   A    
C77   H30   S    
C28   H22   S    
N14   Ni3   S    
C25   H7    S    
C83   C84   S    
N12   Ni2   S    
C63   C70   A    
C10   H73   S    
C5    H67   S    
C50   C51   A    
C2    N17   A    
C84   C85   S    
C73   N5    S    
C75   C77   A    
C39   C46   A    
C19   O2    S    
C16   C23   A    
C1    C79   A    
C32   H9    S    
C36   C44   A    
C42   C43   A    
C90   H63   S    
C86   H52   S    
C89   N16   A    
C83   H44   S    
C37   H10   S    
C46   C87   S    
C89   H34   S    
C44   H14   S    
C92   H69   S    
C15   C17   A    
C54   C55   A    
C59   C62   A    
N14   N17   A    
C55   H18   S    
C75   H28   S    
C8    C31   S    
C31   C32   A    
C2    C8    A    
C86   H53   S    
C80   C81   S    
C85   H49   S    
N8    Ni2   S    
C40   N8    A    
C81   H40   S    
C71   H26   S    
C69   H27   S    
C34   C52   A    
C1    N1    A    
C30   C36   A    
C17   C25   A    
C88   H60   S    
C53   N20   S    
C71   C72   A    
C59   N2    S    
C32   C33   A    
C64   N10   A    
C11   C13   A    
C28   N7    A    
C57   C58   A    
C38   C39   A    
N3    N5    D    
C84   H48   S    
C12   C64   A    
C40   H32   S    
C30   H8    S    
C33   C35   A    
C58   H15   S    
C9    C78   A    
C65   C66   A    
C6    C49   S    
C82   H43   S    
C69   C70   A    
C35   C41   A    
N7    N9    A    
C56   H12   S    
C91   H64   S    
C46   C47   A    
C13   H74   S    
C10   C11   A    
C26   H4    S    
C28   C34   A    
C15   C21   A    
C20   C21   A    
C84   H47   S    
C8    C67   A    
C49   C50   A    
C9    C74   S    
C72   H25   S    
C73   C77   A    
C14   C15   A    
N4    N10   A    
N19   Ni3   S    
C51   C53   A    
C90   H62   S    
C21   C22   A    
C61   H19   S    
C56   N12   A    
