data_mof_unit_20411.cif
_audit_creation_date              2012-12-10T17:33:04-0500
_audit_creation_method            fapswitch 2.2
_symmetry_space_group_name_H-M    P1
_symmetry_Int_Tables_number       1
_space_group_crystal_system       triclinic
_cell_length_a                    12.349363
_cell_length_b                    13.274747
_cell_length_c                    14.084384
_cell_angle_alpha                 92.735248
_cell_angle_beta                  107.982314
_cell_angle_gamma                 116.963247
_cell_volume                      1908.8264349

loop_
_atom_site_label
_atom_site_type_symbol
_atom_type_description
_atom_site_fract_x
_atom_site_fract_y
_atom_site_fract_z
_atom_type_partial_charge
C1    C     C_R   0.648778 0.713383 0.505223 0.829497
C2    C     C_R   0.915319 0.579484 0.917772 0.053510
C3    C     C_R   0.911387 0.650690 0.993453 -0.026063
C4    C     C_R   0.021357 0.556461 0.940590 0.066592
C5    C     C_R   0.111011 0.590837 0.043055 0.014748
C6    C     C_R   0.118555 0.677372 0.111146 0.231429
C7    C     C_R   0.018047 0.704291 0.087247 -0.154514
C8    C     C_R   0.042737 0.501989 0.864912 -0.171561
C9    C     C_R   0.137747 0.468648 0.892040 -0.127544
C10   C     C_R   0.206303 0.480311 0.994982 0.090420
C11   C     C_R   0.190985 0.538863 0.071934 0.113652
C12   C     C_R   0.622246 0.521354 0.688404 0.838062
C13   C     C_R   0.285431 0.429542 0.021469 -0.141259
C14   C     C_R   0.343093 0.428608 0.123302 0.299046
C15   C     C_R   0.244335 0.532948 0.174175 -0.218484
C16   C     C_R   0.211814 0.964159 0.466710 0.310852
C17   C     C_R   0.262997 0.164574 0.486211 -0.117817
C18   C     C_R   0.710633 0.918730 0.550624 -0.173179
C19   C     C_R   0.807759 0.033831 0.584060 -0.128761
C20   C     C_R   0.927628 0.068765 0.574210 0.255986
C21   C     C_R   0.944203 0.989525 0.515692 0.010445
C22   C     C_R   0.841996 0.872447 0.477571 -0.023030
C23   C     C_R   0.347580 0.285838 0.488886 0.831877
C24   C     C_R   0.060015 0.020225 0.496444 0.061210
C25   C     C_R   0.086538 0.933114 0.466523 0.028183
C26   C     C_R   0.982551 0.820507 0.423832 -0.201885
C27   C     C_R   0.857788 0.795615 0.416511 0.280256
C28   C     C_R   0.143209 0.133515 0.495215 -0.148235
C29   C     C_R   0.300407 0.080500 0.477529 -0.176367
C30   C     C_R   0.731040 0.835765 0.505395 -0.082085
C31   C     C_R   0.257252 0.691605 0.658317 0.198232
C32   C     C_R   0.654210 0.336571 0.369390 0.085346
C33   C     C_R   0.731663 0.299630 0.341861 0.233723
C34   C     C_R   0.381098 0.482649 0.311703 0.850250
C35   C     C_R   0.867523 0.361946 0.390701 -0.227637
C36   C     C_R   0.928048 0.461571 0.469331 -0.026672
C37   C     C_R   0.844028 0.495615 0.495097 0.278948
C38   C     C_R   0.068028 0.527389 0.524228 -0.028330
C39   C     C_R   0.120677 0.625132 0.604227 0.087907
C40   C     C_R   0.036345 0.654972 0.628854 -0.234115
C41   C     C_R   0.902254 0.591833 0.576165 -0.195635
C42   C     C_R   0.158953 0.500637 0.503514 0.058406
C43   C     C_R   0.339989 0.661101 0.632338 0.116999
C44   C     C_R   0.707814 0.554008 0.798422 -0.170157
C45   C     C_R   0.321491 0.479614 0.201605 -0.132162
C46   C     C_R   0.803014 0.669292 0.972801 0.267180
C47   C     C_R   0.699568 0.618609 0.876343 0.237200
C48   C     C_R   0.811638 0.530659 0.822480 -0.267829
Cu1   Cu    Cu3+1 0.416420 0.526630 0.522910 1.006685
Cu2   Cu    Cu3+1 0.583580 0.473370 0.477090 0.986421
H1    H     H_    0.026656 0.769672 0.142347 0.215858
H2    H     H_    0.110694 0.196588 0.494033 0.192409
H3    H     H_    0.793822 0.094149 0.626641 0.181224
H4    H     H_    0.444773 0.713146 0.671580 0.174081
H5    H     H_    0.221302 0.565394 0.232675 0.202186
H6    H     H_    0.127449 0.428065 0.444260 0.128553
H7    H     H_    0.922692 0.329362 0.366691 0.165918
H8    H     H_    0.989982 0.486809 0.784029 0.151266
N1    N     N_R   0.290690 0.566960 0.557640 -0.205388
N2    N     N_R   0.709100 0.433710 0.442970 -0.221514
O1    O     O_R   0.545970 0.684450 0.528810 -0.579681
O2    O     O_R   0.687130 0.639470 0.490120 -0.583772
O3    O     O_R   0.519670 0.535100 0.660030 -0.532458
O4    O     O_R   0.660830 0.490120 0.621340 -0.613985
O5    O     O_R   0.312870 0.360530 0.509880 -0.575727
O6    O     O_R   0.454030 0.315550 0.471190 -0.595121
O7    O     O_R   0.339170 0.509880 0.378660 -0.586372
O8    O     O_R   0.480330 0.464900 0.339970 -0.518908
H9    H     H_    0.298698 0.386419 0.962164 0.197010
H10   H     H_    0.396031 0.104350 0.475937 0.189394
H11   H     H_    0.993881 0.756653 0.383425 0.209260
Br1   Br    Br    0.267732 0.852130 0.458094 -0.486917
H12   H     H_    0.624122 0.893455 0.568930 0.196668
Br2   Br    Br    0.066583 0.216175 0.662561 -0.558705
Br3   Br    Br    0.715593 0.676629 0.300602 -0.369639
H13   H     H_    0.072965 0.728017 0.690058 0.207665
Br4   Br    Br    0.337823 0.825825 0.766958 -0.403686
H14   H     H_    0.548989 0.286282 0.332881 0.183290
Br5   Br    Br    0.651195 0.162071 0.238423 -0.353478
H15   H     H_    0.847916 0.621420 0.603204 0.204018
Br6   Br    Br    0.440056 0.347036 0.144660 -0.408035
H16   H     H_    0.151591 0.426952 0.832289 0.195693
Br7   Br    Br    0.795375 0.765304 0.075510 -0.348623
Br8   Br    Br    0.547833 0.636418 0.856329 -0.394994
H17   H     H_    0.809130 0.472328 0.764959 0.177273
Br9   Br    Br    0.279160 0.784876 0.221180 -0.384503

loop_
_geom_bond_atom_site_label_1
_geom_bond_atom_site_label_2
_ccdc_geom_bond_type
Cu1   O3    S    
C17   C29   A    
C35   C36   A    
C16   Br1   S    
C4    C8    A    
C1    O2    A    
C41   H15   S    
C26   C27   A    
C17   C23   S    
C31   C43   A    
C23   O6    A    
C36   C37   A    
C38   C42   A    
C3    C7    A    
C38   C39   A    
C12   O4    A    
Cu2   O4    S    
C18   C19   A    
C8    H8    S    
C11   C15   A    
C19   C20   A    
C8    C9    A    
C18   C30   A    
C22   C30   A    
C9    C10   A    
C44   C47   A    
C43   N1    A    
C9    H16   S    
C42   H6    S    
C19   H3    S    
C13   C14   A    
C26   H11   S    
C27   Br3   S    
C31   Br4   S    
C14   C45   A    
Cu1   O1    S    
C24   C25   A    
C34   O8    A    
C39   C40   A    
C12   O3    A    
C33   Br5   S    
C2    C48   A    
C25   C26   A    
C40   H13   S    
C1    O1    A    
C15   H5    S    
C42   N1    A    
C2    C4    A    
C43   H4    S    
C20   Br2   S    
C34   C45   S    
C47   Br8   S    
Cu2   O6    S    
Cu1   O5    S    
C40   C41   A    
C18   H12   S    
C22   C27   A    
Cu2   O2    S    
C15   C45   A    
C29   H10   S    
C16   C25   A    
C46   C47   A    
Cu1   O7    S    
C17   C28   A    
C24   C28   A    
C4    C5    A    
C10   C13   A    
Cu1   N1    S    
C34   O7    A    
C5    C11   A    
C6    C7    A    
C3    C46   A    
C6    Br9   S    
C35   H7    S    
Cu2   N2    S    
C32   C33   A    
C23   O5    A    
C36   C38   A    
C2    C3    A    
C16   C29   A    
C7    H1    S    
C12   C44   S    
C28   H2    S    
C5    C6    A    
C13   H9    S    
C1    C30   S    
C33   C35   A    
C31   C39   A    
C37   C41   A    
C37   N2    A    
C10   C11   A    
C32   H14   S    
C46   Br7   S    
C20   C21   A    
Cu1   Cu2   S    
C21   C24   A    
C32   N2    A    
C48   H17   S    
C14   Br6   S    
C21   C22   A    
Cu2   O8    S    
C44   C48   A    
