data_mof_unit_9872.cif
_audit_creation_date              2012-12-10T19:24:29-0500
_audit_creation_method            fapswitch 2.2
_symmetry_space_group_name_H-M    P1
_symmetry_Int_Tables_number       1
_space_group_crystal_system       triclinic
_cell_length_a                    17.727383
_cell_length_b                    16.532567
_cell_length_c                    10.914865
_cell_angle_alpha                 90.000271
_cell_angle_beta                  97.262456
_cell_angle_gamma                 90.000013
_cell_volume                      3173.25596608

loop_
_atom_site_label
_atom_site_type_symbol
_atom_type_description
_atom_site_fract_x
_atom_site_fract_y
_atom_site_fract_z
_atom_type_partial_charge
C1    C     C_R   0.356365 0.499981 0.513470 0.827314
C2    C     C_R   0.643635 0.499981 0.486528 0.827357
C3    C     C_R   0.884595 0.498294 0.481188 0.059151
C4    C     C_R   0.115403 0.498294 0.518766 0.059147
C5    C     C_1   0.965906 0.497615 0.494607 -0.031659
C6    C     C_1   0.034091 0.497615 0.505340 -0.031659
C7    C     C_R   0.550934 0.831233 0.581157 -0.285930
C8    C     C_R   0.448332 0.168695 0.420053 -0.273949
C9    C     C_R   0.449070 0.831232 0.418835 -0.285928
C10   C     C_R   0.551670 0.168695 0.579942 -0.273953
C11   C     C_R   0.551529 0.745724 0.582383 0.486465
C12   C     C_R   0.447749 0.254163 0.418926 0.488995
C13   C     C_R   0.448472 0.745723 0.417614 0.486476
C14   C     C_R   0.552252 0.254164 0.581073 0.488997
C15   C     C_R   0.500003 0.874443 0.499995 -0.039811
C16   C     C_R   0.500002 0.125477 0.499996 -0.047539
C17   C     C_1   0.500003 0.963048 0.499995 0.029231
C18   C     C_1   0.500003 0.036873 0.499995 0.029108
C19   C     C_R   0.508567 0.499907 0.263728 0.837757
C20   C     C_R   0.491432 0.499907 0.736270 0.837697
C21   C     C_R   0.537770 0.648047 0.119113 -0.101714
C22   C     C_R   0.464066 0.350400 0.879804 -0.105591
C23   C     C_R   0.462220 0.648045 0.880885 -0.101719
C24   C     C_R   0.535920 0.350398 0.120189 -0.105605
C25   C     C_R   0.521438 0.720975 0.057737 -0.016519
C26   C     C_R   0.479822 0.277501 0.941342 -0.051018
C27   C     C_R   0.478547 0.720974 0.942264 -0.016504
C28   C     C_R   0.520158 0.277500 0.058650 -0.051005
C29   C     C_R   0.486198 0.573405 0.936530 0.083499
C30   C     C_R   0.513276 0.425293 0.063751 0.091765
C31   C     C_R   0.513795 0.573405 0.063468 0.083563
C32   C     C_R   0.486714 0.425293 0.936244 0.091797
C33   C     C_R   0.482360 0.499494 0.870029 -0.244537
C34   C     C_R   0.517634 0.499494 0.129968 -0.244506
C35   C     C_R   0.846064 0.571645 0.470352 -0.138439
C36   C     C_R   0.155328 0.425941 0.534629 -0.134714
C37   C     C_R   0.153934 0.571645 0.529612 -0.138456
C38   C     C_R   0.844669 0.425941 0.465336 -0.134710
C39   C     C_R   0.766195 0.573694 0.453764 0.093402
C40   C     C_R   0.235251 0.425713 0.551926 0.107643
C41   C     C_R   0.233803 0.573694 0.546220 0.093369
C42   C     C_R   0.764746 0.425713 0.448057 0.107600
C43   C     C_R   0.725595 0.499813 0.464093 -0.153422
C44   C     C_R   0.274404 0.499813 0.535897 -0.153458
Cu1   Cu    Cu3+1 0.500000 0.580420 0.500000 1.052219
Cu2   Cu    Cu3+1 0.500000 0.419580 0.500000 1.056326
H1    H     H_    0.536545 0.220838 0.104162 0.145801
H2    H     H_    0.461250 0.777616 0.897457 0.131975
H3    H     H_    0.463432 0.220840 0.895829 0.145798
H4    H     H_    0.538733 0.777617 0.102545 0.131971
H5    H     H_    0.570156 0.651227 0.209285 0.123586
H6    H     H_    0.432778 0.346684 0.788932 0.130764
H7    H     H_    0.429836 0.651224 0.790712 0.123603
H8    H     H_    0.567210 0.346679 0.211059 0.130764
H9    H     H_    0.879195 0.626638 0.471626 0.134944
H10   H     H_    0.123250 0.370464 0.537353 0.134346
H11   H     H_    0.120803 0.626638 0.528333 0.134948
H12   H     H_    0.876746 0.370463 0.462609 0.134347
H13   H     H_    0.591028 0.864879 0.645137 0.210143
H14   H     H_    0.407484 0.135101 0.357281 0.212326
H15   H     H_    0.408976 0.864877 0.354855 0.210142
H16   H     H_    0.592519 0.135102 0.642714 0.212323
N1    N     N_R   0.500000 0.701220 0.500000 -0.307179
N2    N     N_R   0.500000 0.298780 0.500000 -0.315840
O1    O     O_R   0.391260 0.567930 0.500000 -0.549979
O2    O     O_R   0.608740 0.432070 0.500000 -0.556045
O3    O     O_R   0.608740 0.567930 0.500000 -0.549959
O4    O     O_R   0.391260 0.432070 0.500000 -0.556033
O5    O     O_R   0.500000 0.567910 0.319660 -0.537856
O6    O     O_R   0.500000 0.432090 0.680340 -0.548006
O7    O     O_R   0.500000 0.567910 0.680340 -0.537889
O8    O     O_R   0.500000 0.432090 0.319660 -0.548028
C45   C     C_3   0.724266 0.650524 0.407697 -0.359191
C46   C     C_3   0.772764 0.718869 0.362728 -0.375310
C47   C     C_3   0.722520 0.787736 0.305995 -0.792585
H17   H     H_    0.684573 0.765930 0.223845 0.248040
H18   H     H_    0.687324 0.812392 0.374651 0.261526
H19   H     H_    0.758773 0.837044 0.276591 0.252354
H20   H     H_    0.811487 0.743697 0.441829 0.238965
H21   H     H_    0.806995 0.695350 0.291871 0.228433
H22   H     H_    0.681983 0.632842 0.328644 0.170149
H23   H     H_    0.693559 0.675456 0.480352 0.275727
C48   C     C_3   0.278570 0.351753 0.606924 -0.360449
C49   C     C_3   0.230735 0.284153 0.655642 -0.371060
C50   C     C_3   0.281609 0.218749 0.721307 -0.811941
H24   H     H_    0.319746 0.192947 0.657966 0.261012
H25   H     H_    0.316539 0.244340 0.803856 0.244006
H26   H     H_    0.245817 0.169408 0.751861 0.253536
H27   H     H_    0.194320 0.309527 0.722044 0.225941
H28   H     H_    0.194138 0.255516 0.577330 0.240755
H29   H     H_    0.311837 0.324446 0.539202 0.270601
H30   H     H_    0.318672 0.373755 0.686027 0.165308
C51   C     C_3   0.275730 0.650521 0.592314 -0.359197
C52   C     C_3   0.227226 0.718865 0.637269 -0.375283
C53   C     C_3   0.277465 0.787728 0.694028 -0.792588
H31   H     H_    0.315402 0.765918 0.776187 0.248050
H32   H     H_    0.312673 0.812387 0.625390 0.261523
H33   H     H_    0.241208 0.837036 0.723423 0.252353
H34   H     H_    0.188514 0.743696 0.558158 0.238967
H35   H     H_    0.192983 0.695344 0.708109 0.228432
H36   H     H_    0.318001 0.632831 0.671379 0.170156
H37   H     H_    0.306452 0.675456 0.519679 0.275706
C54   C     C_3   0.721425 0.351748 0.393082 -0.360452
C55   C     C_3   0.769253 0.284149 0.344347 -0.371072
C56   C     C_3   0.718374 0.218741 0.278703 -0.811933
H38   H     H_    0.680248 0.192940 0.342061 0.261015
H39   H     H_    0.683433 0.244329 0.196162 0.244001
H40   H     H_    0.754162 0.169400 0.248139 0.253534
H41   H     H_    0.805658 0.309523 0.277929 0.225944
H42   H     H_    0.805861 0.255515 0.422649 0.240748
H43   H     H_    0.688172 0.324443 0.460824 0.270611
H44   H     H_    0.681309 0.373745 0.313992 0.165312
S1    S     S_3+6 0.623842 0.708326 0.699142 -0.006039
O9    O     O_2   0.698442 0.743442 0.673328 -0.330324
O10   O     O_2   0.608006 0.743696 0.819820 -0.330529
O11   O     O_3   0.636256 0.608538 0.720122 -0.482874
H45   H     H_    0.674999 0.603228 0.793459 0.368401
S2    S     S_3+6 0.373666 0.291528 0.305513 -0.006243
O12   O     O_2   0.298818 0.262405 0.339845 -0.333608
O13   O     O_2   0.368327 0.380819 0.283863 -0.248757
O14   O     O_3   0.384640 0.246857 0.170716 -0.570463
H46   H     H_    0.340155 0.264308 0.112559 0.375866
S3    S     S_3+6 0.376154 0.708324 0.300865 -0.006040
O15   O     O_2   0.301556 0.743436 0.326701 -0.330447
O16   O     O_2   0.391976 0.743697 0.180182 -0.330411
O17   O     O_3   0.363743 0.608537 0.279878 -0.482882
H47   H     H_    0.324852 0.603229 0.206741 0.368408
S4    S     S_3+6 0.626331 0.291529 0.694493 -0.006243
O18   O     O_2   0.701180 0.262398 0.660178 -0.333614
O19   O     O_2   0.631674 0.380821 0.716136 -0.248751
O20   O     O_3   0.615344 0.246866 0.829291 -0.570459
H48   H     H_    0.659833 0.264308 0.887449 0.375865

loop_
_geom_bond_atom_site_label_1
_geom_bond_atom_site_label_2
_ccdc_geom_bond_type
C27   H2    S    
C30   C32   A    
C4    C36   A    
C28   H1    S    
O17   H47   S    
Cu1   O7    S    
C45   C46   S    
C53   H31   S    
C42   C54   S    
C53   H33   S    
S3    O15   D    
Cu1   Cu2   S    
C7    C11   A    
C48   H30   S    
C56   H39   S    
C51   C52   S    
C22   C32   A    
C9    H15   S    
C23   C29   A    
Cu2   O2    S    
C11   N1    A    
C5    C6    T    
C12   N2    A    
S3    O16   D    
C24   H8    S    
C29   C33   A    
C1    O4    A    
C14   S4    S    
O11   H45   S    
C54   H43   S    
C7    H13   S    
C9    C13   A    
S2    O12   D    
C38   H12   S    
C41   C51   S    
C3    C38   A    
Cu1   O3    S    
C1    O1    A    
C20   O7    A    
C52   H35   S    
Cu2   O8    S    
S1    O11   S    
C7    C15   A    
C8    C16   A    
C46   H21   S    
S4    O18   D    
C40   C48   S    
C20   O6    A    
C19   O8    A    
C10   H16   S    
C49   H28   S    
C45   H22   S    
C55   C56   S    
C23   H7    S    
S2    O13   D    
C50   H25   S    
C56   H40   S    
C46   C47   S    
C30   C34   A    
Cu1   O5    S    
C36   C40   A    
C49   C50   S    
C4    C6    S    
C2    O3    A    
C10   C14   A    
C26   H3    S    
C51   H36   S    
S3    O17   S    
C39   C43   A    
C3    C5    S    
C50   H24   S    
C35   H9    S    
Cu1   N1    S    
Cu2   N2    S    
C54   H44   S    
S2    O14   S    
C35   C39   A    
C47   H17   S    
Cu2   O4    S    
C36   H10   S    
C21   C31   A    
C1    C44   S    
C48   C49   S    
C13   N1    A    
C3    C35   A    
C2    C43   S    
C8    C12   A    
C14   N2    A    
C17   C18   T    
C31   C34   A    
C47   H18   S    
O14   H46   S    
C12   S2    S    
C20   C33   S    
C23   C27   A    
C46   H20   S    
Cu1   O1    S    
C41   C44   A    
C19   O5    A    
C49   H27   S    
O20   H48   S    
S4    O20   S    
C45   H23   S    
C21   H5    S    
C22   H6    S    
S1    O9    D    
C50   H26   S    
C15   C17   S    
C21   C25   A    
C25   H4    S    
C24   C28   A    
C2    O2    A    
C19   C34   S    
S4    O19   D    
C51   H37   S    
C53   H32   S    
C38   C42   A    
C25   C27   A    
C48   H29   S    
C56   H38   S    
C26   C28   A    
C32   C33   A    
C9    C15   A    
C29   C31   A    
C10   C16   A    
C8    H14   S    
C55   H42   S    
C55   H41   S    
C52   H34   S    
C13   S3    S    
C39   C45   S    
C37   C41   A    
C52   C53   S    
C11   S1    S    
C47   H19   S    
C24   C30   A    
Cu2   O6    S    
C22   C26   A    
C40   C44   A    
C4    C37   A    
C16   C18   S    
C42   C43   A    
C54   C55   S    
C37   H11   S    
S1    O10   D    
