data_mof_unit_38789.cif
_audit_creation_date              2012-12-10T17:51:27-0500
_audit_creation_method            fapswitch 2.2
_symmetry_space_group_name_H-M    P1
_symmetry_Int_Tables_number       1
_space_group_crystal_system       triclinic
_cell_length_a                    14.823699
_cell_length_b                    14.874417
_cell_length_c                    17.304861
_cell_angle_alpha                 108.141368
_cell_angle_beta                  73.422483
_cell_angle_gamma                 116.067105
_cell_volume                      3207.45604531

loop_
_atom_site_label
_atom_site_type_symbol
_atom_type_description
_atom_site_fract_x
_atom_site_fract_y
_atom_site_fract_z
_atom_type_partial_charge
C1    C     C_R   0.118786 0.688438 0.515836 0.803123
C2    C     C_R   0.881418 0.311816 0.488070 0.823723
C3    C     C_R   0.186304 0.797725 0.534819 -0.173295
C4    C     C_R   0.815530 0.202774 0.486249 -0.160078
C5    C     C_R   0.217861 0.975272 0.603645 -0.286086
C6    C     C_R   0.784196 0.021583 0.442762 -0.284432
C7    C     C_R   0.148934 0.875402 0.578157 0.497545
C8    C     C_R   0.852313 0.123758 0.447434 0.506165
C9    C     C_R   0.291626 0.822841 0.514295 -0.316784
C10   C     C_R   0.713880 0.178036 0.525593 -0.365691
C11   C     C_R   0.361512 0.921519 0.542233 0.082959
C12   C     C_R   0.643301 0.075986 0.517864 0.097019
C13   C     C_R   0.323132 0.998720 0.585862 0.092987
C14   C     C_R   0.680523 0.997393 0.475968 0.091588
C15   C     C_R   0.468471 0.945883 0.526042 0.077378
C16   C     C_R   0.536401 0.050033 0.545931 0.087227
C17   C     C_R   0.494726 0.124524 0.590983 -0.230818
C18   C     C_R   0.509699 0.869488 0.490895 -0.216983
C19   C     C_R   0.390107 0.098770 0.611190 -0.204365
C20   C     C_R   0.613823 0.895125 0.466284 -0.203065
C21   C     C_R   0.303719 0.346142 0.345474 -0.332358
C22   C     C_R   0.690961 0.645903 0.655463 -0.328854
C23   C     C_R   0.988486 0.502287 0.651998 0.749053
C24   C     C_R   0.010036 0.495682 0.347411 0.788950
C25   C     C_R   0.213331 0.362726 0.377917 -0.009970
C26   C     C_R   0.781248 0.629748 0.626062 -0.001200
C27   C     C_R   0.289404 0.493995 0.488556 0.600100
C28   C     C_R   0.717611 0.513301 0.505151 0.611173
C29   C     C_R   0.374962 0.464999 0.465996 -0.094051
C30   C     C_R   0.628810 0.537318 0.527395 -0.125834
C31   C     C_R   0.386289 0.400301 0.387871 0.112706
C32   C     C_R   0.613287 0.596723 0.608005 0.106044
C33   C     C_R   0.454598 0.505955 0.513872 0.103202
C34   C     C_R   0.551031 0.498392 0.477230 0.075682
C35   C     C_R   0.564965 0.451851 0.392481 -0.221145
C36   C     C_R   0.437703 0.545614 0.599169 -0.199797
C37   C     C_R   0.482086 0.396584 0.350829 -0.202491
C38   C     C_R   0.517076 0.598351 0.643604 -0.183294
C39   C     C_R   0.976484 0.496115 0.736420 0.004882
C40   C     C_R   0.013473 0.490577 0.260985 -0.029107
C41   C     C_R   0.057317 0.554161 0.779839 -0.225189
C42   C     C_R   0.943299 0.514795 0.240167 -0.191707
C43   C     C_R   0.046945 0.544723 0.859409 -0.137201
C44   C     C_R   0.945365 0.509455 0.158323 -0.154830
C45   C     C_R   0.955523 0.476238 0.896054 0.185375
C46   C     C_R   0.016949 0.478524 0.095812 0.192953
C47   C     C_R   0.872993 0.421539 0.853765 -0.167998
C48   C     C_R   0.087773 0.455350 0.116497 -0.171106
C49   C     C_R   0.883479 0.431372 0.773936 -0.191568
C50   C     C_R   0.085892 0.460886 0.198644 -0.190969
C51   C     C_2   0.943881 0.464237 0.979597 -0.231392
C52   C     C_2   0.023772 0.476719 0.009259 -0.230025
Cu1   Cu    Cu3+1 0.916740 0.524770 0.521640 0.983130
Cu2   Cu    Cu3+1 0.083260 0.475230 0.478360 0.969401
H1    H     H_    0.127460 0.608409 0.753311 0.111067
H2    H     H_    0.887198 0.538820 0.287077 0.166818
H3    H     H_    0.540555 0.203710 0.612725 0.133305
H4    H     H_    0.463533 0.788613 0.482074 0.182379
H5    H     H_    0.494093 0.354193 0.287936 0.143824
H6    H     H_    0.500974 0.633389 0.708301 0.135251
H7    H     H_    0.840859 0.666455 0.663062 0.175805
H8    H     H_    0.149763 0.321239 0.344972 0.175782
H9    H     H_    0.309731 0.292919 0.286856 0.154552
H10   H     H_    0.680531 0.693882 0.716186 0.156200
H11   H     H_    0.638706 0.453710 0.357971 0.193091
H12   H     H_    0.362312 0.529639 0.633946 0.125549
H13   H     H_    0.140974 0.441953 0.213199 0.155455
H14   H     H_    0.820053 0.387066 0.740814 0.133942
H15   H     H_    0.096937 0.485981 0.968810 0.144010
H16   H     H_    0.867959 0.443300 0.016630 0.146323
H17   H     H_    0.801355 0.370087 0.881939 0.126827
H18   H     H_    0.144424 0.432855 0.069029 0.125313
H19   H     H_    0.892449 0.532073 0.144736 0.126724
H20   H     H_    0.109966 0.592210 0.892430 0.126197
H21   H     H_    0.361488 0.158295 0.645540 0.140763
H22   H     H_    0.642063 0.834289 0.437334 0.149013
H23   H     H_    0.691519 0.240611 0.560331 0.163750
H24   H     H_    0.317522 0.763624 0.475445 0.206853
H25   H     H_    0.188661 0.034252 0.638421 0.148495
H26   H     H_    0.811921 0.961017 0.410126 0.146321
N1    N     N_R   0.208390 0.438070 0.445820 -0.212320
N2    N     N_R   0.791610 0.561930 0.554180 -0.214864
O1    O     O_R   0.020090 0.662480 0.528530 -0.541031
O2    O     O_R   0.979910 0.337520 0.471470 -0.544096
O3    O     O_R   0.160710 0.620650 0.491980 -0.544932
O4    O     O_R   0.839290 0.379350 0.508020 -0.562523
O5    O     O_R   0.921540 0.523360 0.633990 -0.588499
O6    O     O_R   0.078460 0.476640 0.366010 -0.592747
O7    O     O_R   0.062170 0.481520 0.597440 -0.600082
O8    O     O_R   0.937830 0.518480 0.402560 -0.546408
O9    O     O_3   0.726954 0.434360 0.439339 -0.581525
C53   C     C_3   0.655442 0.338931 0.458105 -0.284490
H27   H     H_    0.583248 0.314044 0.436200 0.162281
H28   H     H_    0.637356 0.339211 0.525194 0.136645
H29   H     H_    0.687184 0.279597 0.424366 0.198739
O10   O     O_3   0.308336 0.596675 0.525068 -0.584161
C54   C     C_3   0.265098 0.613047 0.609584 -0.264244
H30   H     H_    0.224123 0.542298 0.634623 0.137005
H31   H     H_    0.212937 0.652586 0.621101 0.188047
H32   H     H_    0.326399 0.667631 0.645497 0.153499
O11   O     O_3   0.952441 0.145628 0.407724 -0.571799
C55   C     C_3   0.005313 0.129128 0.454669 -0.317301
H33   H     H_    0.000764 0.175893 0.518909 0.161764
H34   H     H_    0.087005 0.153417 0.425676 0.186626
H35   H     H_    0.976824 0.046568 0.455367 0.143786
O12   O     O_3   0.045366 0.852758 0.601842 -0.568681
C56   C     C_3   0.013728 0.883501 0.548282 -0.313854
H36   H     H_    0.929753 0.860320 0.564519 0.189350
H37   H     H_    0.031519 0.845050 0.482741 0.157322
H38   H     H_    0.048444 0.968236 0.555377 0.144203

loop_
_geom_bond_atom_site_label_1
_geom_bond_atom_site_label_2
_ccdc_geom_bond_type
C15   C18   A    
Cu2   O6    S    
O11   C55   S    
C49   H14   S    
C29   C33   A    
C27   C29   A    
C56   H37   S    
C2    O2    A    
C4    C8    A    
Cu2   O2    S    
C54   H30   S    
C39   C41   A    
Cu1   Cu2   S    
C21   C31   A    
C22   C32   A    
C35   C37   A    
C26   H7    S    
C3    C7    A    
C36   H12   S    
O12   C56   S    
C35   H11   S    
C15   C16   A    
C46   C52   S    
C33   C36   A    
C20   H22   S    
C55   H35   S    
C34   C35   A    
C41   H1    S    
C52   H15   S    
C42   H2    S    
C11   C15   A    
C18   H4    S    
C12   C16   A    
C16   C17   A    
C56   H36   S    
C23   O7    A    
Cu1   O4    S    
C51   H16   S    
C32   C38   A    
C5    H25   S    
C8    O11   S    
C5    C13   A    
C9    H24   S    
C43   H20   S    
C48   C50   A    
C26   N2    A    
C23   O5    A    
C25   N1    A    
C41   C43   A    
C27   O10   S    
C55   H33   S    
C42   C44   A    
C48   H18   S    
C54   H31   S    
C10   H23   S    
C44   C46   A    
C45   C47   A    
C1    O3    A    
C46   C48   A    
C30   C34   A    
C28   N2    A    
C51   C52   D    
C14   C20   A    
C27   N1    A    
Cu2   O7    S    
C47   C49   A    
O9    C53   S    
C5    C7    A    
C13   C19   A    
C17   C19   A    
C6    C8    A    
C53   H29   S    
C31   C37   A    
Cu1   N2    S    
C1    C3    S    
C2    C4    S    
C3    C9    A    
C6    C14   A    
C9    C11   A    
C6    H26   S    
O10   C54   S    
C53   H28   S    
C33   C34   A    
C7    O12   S    
Cu1   O5    S    
C55   H34   S    
C43   C45   A    
C47   H17   S    
C37   H5    S    
C10   C12   A    
C38   H6    S    
C39   C49   A    
C12   C14   A    
C56   H38   S    
C4    C10   A    
C36   C38   A    
C54   H32   S    
C50   H13   S    
C21   C25   A    
C24   O6    A    
C24   O8    A    
Cu2   O3    S    
C1    O1    A    
Cu1   O1    S    
C19   H21   S    
C28   C30   A    
C29   C31   A    
C30   C32   A    
C11   C13   A    
C23   C39   S    
C40   C42   A    
C53   H27   S    
C24   C40   S    
C2    O4    A    
C28   O9    S    
C18   C20   A    
C25   H8    S    
C44   H19   S    
C21   H9    S    
C22   H10   S    
C40   C50   A    
C22   C26   A    
Cu1   O8    S    
C45   C51   S    
Cu2   N1    S    
C17   H3    S    
