data_mof_unit_24561.cif
_audit_creation_date              2012-12-10T21:31:18-0500
_audit_creation_method            fapswitch 2.2
_symmetry_space_group_name_H-M    P1
_symmetry_Int_Tables_number       1
_space_group_crystal_system       triclinic
_cell_length_a                    14.906659
_cell_length_b                    16.132847
_cell_length_c                    16.845421
_cell_angle_alpha                 87.430212
_cell_angle_beta                  90.357819
_cell_angle_gamma                 91.258318
_cell_volume                      4045.99616198

loop_
_atom_site_label
_atom_site_type_symbol
_atom_type_description
_atom_site_fract_x
_atom_site_fract_y
_atom_site_fract_z
_atom_type_partial_charge
C1    C     C_R   0.504979 0.489040 0.652633 0.906314
C2    C     C_R   0.499479 0.448607 0.135292 -0.292395
C3    C     C_3   0.564003 0.698587 0.759052 0.073555
C4    C     C_3   0.462326 0.710280 0.751573 -0.337833
C5    C     C_3   0.437627 0.800745 0.759828 -0.994375
C6    C     C_R   0.504560 0.319398 0.904967 0.161852
C7    C     C_R   0.571682 0.288228 0.956464 -0.179365
C8    C     C_R   0.560087 0.210674 0.995952 -0.156815
C9    C     C_R   0.481370 0.163913 0.984915 -0.099904
C10   C     C_R   0.414352 0.194428 0.933904 -0.158577
C11   C     C_R   0.426127 0.271630 0.893854 -0.173650
C12   C     C_R   0.478482 0.680788 0.093486 0.146512
C13   C     C_R   0.543560 0.471985 0.901258 0.196507
C14   C     C_R   0.414048 0.689647 0.032389 -0.145004
C15   C     C_R   0.402791 0.766331 0.992022 -0.151256
C16   C     C_R   0.454956 0.835120 0.012658 -0.110280
C17   C     C_R   0.518203 0.827384 0.073940 -0.142000
C18   C     C_R   0.529826 0.750746 0.114410 -0.178493
C19   C     C_3   0.700047 0.275589 0.473126 0.099532
C20   C     C_3   0.742937 0.192017 0.458566 -0.357816
C21   C     C_3   0.827074 0.203353 0.407573 -1.000504
C22   C     C_3   0.382644 0.730279 0.363650 0.150957
C23   C     C_3   0.316147 0.788736 0.321584 -0.377879
C24   C     C_R   0.499811 0.526205 0.094311 0.194940
C25   C     C_3   0.334984 0.798046 0.232652 -0.960838
C26   C     C_R   0.517344 0.400843 0.861575 0.005366
C27   C     C_R   0.490511 0.598969 0.135963 0.000918
C28   C     C_R   0.502959 0.407785 0.779849 -0.377200
C29   C     C_R   0.491110 0.593031 0.218988 -0.366911
C30   C     C_R   0.439462 0.762993 0.484669 0.467397
C31   C     C_R   0.559244 0.235706 0.517003 0.476370
C32   C     C_R   0.437174 0.848365 0.497878 0.247551
C33   C     C_R   0.499073 0.510810 0.346766 0.873006
C34   C     C_R   0.547435 0.149792 0.531808 0.233703
C35   C     C_R   0.515975 0.889828 0.524221 0.043330
C36   C     C_R   0.470477 0.108845 0.501567 0.034551
C37   C     C_R   0.673618 0.498784 0.502986 0.882244
C38   C     C_R   0.326318 0.500765 0.497380 0.878566
C39   C     C_R   0.590563 0.841649 0.546906 0.328603
C40   C     C_R   0.400618 0.157534 0.469084 0.365546
C41   C     C_R   0.584145 0.754066 0.542536 -0.268554
C42   C     C_R   0.411601 0.245727 0.465532 -0.291512
C43   C     C_R   0.185402 0.484591 0.420994 -0.078157
C44   C     C_R   0.956756 0.412663 0.633737 0.432877
C45   C     C_R   0.814369 0.460785 0.571964 -0.077375
C46   C     C_R   0.229187 0.498782 0.493988 -0.146403
C47   C     C_R   0.770428 0.494490 0.504108 -0.178346
C48   C     C_R   0.182225 0.491309 0.565956 -0.059577
C49   C     C_R   0.816950 0.513139 0.433309 -0.078422
C50   C     C_R   0.093631 0.459364 0.565852 -0.004748
C51   C     C_R   0.904364 0.483812 0.425234 -0.006274
C52   C     C_R   0.045878 0.460735 0.493295 -0.053126
C53   C     C_R   0.951790 0.459444 0.494788 -0.054311
C54   C     C_R   0.091257 0.470450 0.420116 -0.020862
C55   C     C_R   0.040014 0.464944 0.349038 0.432893
C56   C     C_R   0.906746 0.443772 0.567513 -0.022307
C57   C     C_R   0.049873 0.428169 0.635869 -0.138681
C58   C     C_R   0.947791 0.481403 0.350718 -0.139239
C59   C     C_R   0.235389 0.493753 0.345258 0.145629
C60   C     C_R   0.226984 0.566843 0.297522 -0.118300
C61   C     C_R   0.251003 0.568247 0.217372 -0.124639
C62   C     C_R   0.282754 0.496724 0.184398 -0.106998
C63   C     C_R   0.293081 0.424402 0.232067 -0.091730
C64   C     C_R   0.271766 0.423441 0.312754 -0.067589
C65   C     C_R   0.771800 0.464205 0.651104 0.157889
C66   C     C_R   0.520401 0.483337 0.737921 -0.145619
C67   C     C_R   0.796548 0.529818 0.699459 -0.093392
C68   C     C_R   0.782405 0.522655 0.781402 -0.097716
C69   C     C_R   0.743839 0.449960 0.815506 -0.089497
C70   C     C_R   0.714654 0.386455 0.767219 -0.119203
C71   C     C_R   0.726632 0.394268 0.685019 -0.087309
C72   C     C_3   0.588474 0.091931 0.653083 0.159879
C73   C     C_3   0.624117 0.161325 0.704697 -0.384060
C74   C     C_3   0.608399 0.139642 0.792650 -0.972569
C75   C     C_3   0.308449 0.898066 0.550127 0.134646
C76   C     C_3   0.237903 0.827729 0.558615 -0.325251
C77   C     C_R   0.498116 0.515669 0.259950 -0.146526
C78   C     C_3   0.170948 0.843720 0.624052 -1.014824
C79   C     C_3   0.747675 0.849622 0.556791 0.107272
C80   C     C_3   0.792653 0.805627 0.628583 -0.355235
C81   C     C_3   0.880489 0.766391 0.605676 -0.991996
C82   C     C_3   0.245046 0.159003 0.437004 0.121849
C83   C     C_3   0.209262 0.174556 0.520323 -0.394257
C84   C     C_3   0.120257 0.219558 0.515635 -0.983604
C85   C     C_R   0.216317 0.534607 0.636540 0.131692
C86   C     C_R   0.171742 0.605419 0.659829 -0.141724
C87   C     C_R   0.192977 0.640797 0.731918 -0.149425
C88   C     C_R   0.555435 0.552983 0.777107 0.495280
C89   C     C_R   0.258025 0.605264 0.781747 -0.129744
C90   C     C_R   0.303900 0.535914 0.758415 -0.143680
C91   C     C_R   0.284595 0.501478 0.685262 -0.119295
C92   C     C_R   0.788266 0.585048 0.382087 0.144334
C93   C     C_R   0.834319 0.661514 0.388219 -0.157506
C94   C     C_R   0.814076 0.728772 0.336658 -0.160363
C95   C     C_R   0.749650 0.719442 0.277111 -0.132010
C96   C     C_R   0.704231 0.643438 0.270449 -0.123963
C97   C     C_R   0.720879 0.577208 0.324484 -0.075167
C98   C     C_R   0.100012 0.404452 0.709413 0.167404
C99   C     C_R   0.501367 0.442355 0.217061 0.455148
C100  C     C_R   0.164220 0.342121 0.708217 -0.211321
C101  C     C_R   0.205366 0.313786 0.778602 -0.162928
C102  C     C_R   0.184706 0.348975 0.850427 -0.117728
C103  C     C_R   0.121898 0.411958 0.851947 -0.148561
C104  C     C_R   0.078909 0.439149 0.781832 -0.062886
C105  C     C_R   0.898891 0.492846 0.274072 0.174509
C106  C     C_R   0.829671 0.437112 0.253412 -0.222113
C107  C     C_R   0.785635 0.447435 0.180134 -0.162567
C108  C     C_R   0.810049 0.513196 0.127344 -0.109562
C109  C     C_R   0.879241 0.568410 0.147277 -0.153995
C110  C     C_R   0.566225 0.546146 0.859273 -0.311677
C111  C     C_R   0.923954 0.558094 0.220125 -0.070124
C112  C     C_3   0.929331 0.286169 0.701687 0.085214
C113  C     C_3   0.893931 0.240932 0.629055 -0.414397
C114  C     C_3   0.907349 0.147497 0.640180 -0.947837
C115  C     C_3   0.054957 0.367189 0.252465 0.099548
C116  C     C_3   0.065952 0.296289 0.315952 -0.414430
C117  C     C_3   0.047363 0.211907 0.281180 -0.960042
C118  C     C_3   0.572980 0.325493 0.265708 0.128540
C119  C     C_3   0.593585 0.268492 0.198082 -0.392679
C120  C     C_3   0.674691 0.215219 0.217939 -0.985287
H1    H     H_    0.637594 0.715255 0.564787 0.202268
H2    H     H_    0.316379 0.368656 0.206162 0.153559
H3    H     H_    0.446132 0.894486 0.981378 0.117771
H4    H     H_    0.558234 0.880849 0.090181 0.125574
H5    H     H_    0.579115 0.746223 0.161630 0.117131
H6    H     H_    0.754860 0.320038 0.487723 0.179023
H7    H     H_    0.668302 0.301175 0.417811 0.116428
H8    H     H_    0.761750 0.161162 0.516098 0.278937
H9    H     H_    0.694105 0.151298 0.427855 0.222723
H10   H     H_    0.810988 0.235734 0.349996 0.266750
H11   H     H_    0.854784 0.141777 0.395922 0.276990
H12   H     H_    0.879069 0.240253 0.438683 0.266428
H13   H     H_    0.277043 0.366290 0.348236 0.102344
H14   H     H_    0.370136 0.667309 0.341809 0.167076
H15   H     H_    0.452699 0.749079 0.345974 0.104270
H16   H     H_    0.246625 0.764324 0.331146 0.211617
H17   H     H_    0.321248 0.851196 0.346072 0.282520
H18   H     H_    0.400805 0.830185 0.222395 0.276927
H19   H     H_    0.281963 0.835505 0.202745 0.268920
H20   H     H_    0.336185 0.736530 0.206010 0.266722
H21   H     H_    0.832345 0.583892 0.674420 0.118179
H22   H     H_    0.803942 0.572298 0.818723 0.112826
H23   H     H_    0.735476 0.443289 0.879255 0.114261
H24   H     H_    0.684170 0.330530 0.793658 0.131582
H25   H     H_    0.707942 0.342981 0.649320 0.169340
H26   H     H_    0.619168 0.032703 0.674129 0.190029
H27   H     H_    0.514516 0.083057 0.661255 0.101821
H28   H     H_    0.697207 0.171126 0.694461 0.241225
H29   H     H_    0.359531 0.285575 0.443287 0.186023
H30   H     H_    0.589542 0.220026 0.688400 0.230913
H31   H     H_    0.535405 0.132498 0.804662 0.276903
H32   H     H_    0.636413 0.189930 0.828743 0.273592
H33   H     H_    0.642242 0.081080 0.810798 0.262083
H34   H     H_    0.273422 0.958138 0.544108 0.181231
H35   H     H_    0.350101 0.900713 0.605359 0.106243
H36   H     H_    0.201009 0.822192 0.501473 0.238969
H37   H     H_    0.271459 0.768112 0.573270 0.244121
H38   H     H_    0.205961 0.846474 0.682307 0.263904
H39   H     H_    0.119696 0.792749 0.627584 0.268668
H40   H     H_    0.495290 0.391946 0.103309 0.176545
H41   H     H_    0.136210 0.903044 0.610978 0.267196
H42   H     H_    0.791603 0.902940 0.536757 0.162702
H43   H     H_    0.743153 0.808567 0.505287 0.129444
H44   H     H_    0.806525 0.851351 0.674797 0.226016
H45   H     H_    0.747245 0.756367 0.654668 0.220443
H46   H     H_    0.867053 0.716380 0.563772 0.264854
H47   H     H_    0.913326 0.738759 0.659677 0.260674
H48   H     H_    0.926842 0.813851 0.577697 0.268595
H49   H     H_    0.194437 0.119430 0.407104 0.169354
H50   H     H_    0.250352 0.216146 0.398247 0.114745
H51   H     H_    0.594962 0.596716 0.891585 0.155330
H52   H     H_    0.199235 0.114051 0.553634 0.220370
H53   H     H_    0.258107 0.212583 0.553880 0.213400
H54   H     H_    0.130429 0.283131 0.488708 0.269363
H55   H     H_    0.093090 0.224523 0.576290 0.266998
H56   H     H_    0.070352 0.184819 0.480044 0.274430
H57   H     H_    0.118543 0.631565 0.623158 0.130341
H58   H     H_    0.157361 0.694424 0.750135 0.131768
H59   H     H_    0.272626 0.631245 0.838663 0.119887
H60   H     H_    0.352650 0.507796 0.798257 0.142682
H61   H     H_    0.318363 0.446030 0.669127 0.127116
H62   H     H_    0.480007 0.353840 0.748717 0.185475
H63   H     H_    0.887165 0.668369 0.431950 0.127146
H64   H     H_    0.849948 0.787385 0.341588 0.128791
H65   H     H_    0.736004 0.770594 0.235333 0.120094
H66   H     H_    0.658586 0.635114 0.221661 0.140787
H67   H     H_    0.685726 0.518474 0.318359 0.093325
H68   H     H_    0.181310 0.314717 0.653060 0.146858
H69   H     H_    0.252623 0.264005 0.777154 0.123532
H70   H     H_    0.216946 0.327178 0.904952 0.125593
H71   H     H_    0.105780 0.439040 0.907586 0.124498
H72   H     H_    0.029160 0.486943 0.783831 0.128926
H73   H     H_    0.486612 0.648979 0.251383 0.171331
H74   H     H_    0.810138 0.386017 0.293964 0.125056
H75   H     H_    0.732466 0.404718 0.164105 0.140261
H76   H     H_    0.775439 0.521246 0.070929 0.128042
H77   H     H_    0.898256 0.619219 0.106261 0.123035
H78   H     H_    0.977528 0.601259 0.234902 0.125564
H79   H     H_    0.893937 0.259463 0.755078 0.171159
H80   H     H_    0.001069 0.272554 0.711279 0.149810
H81   H     H_    0.821597 0.252859 0.620366 0.239297
H82   H     H_    0.930365 0.263782 0.574855 0.219963
H83   H     H_    0.978828 0.134269 0.653463 0.262043
H84   H     H_    0.196073 0.620568 0.321036 0.119161
H85   H     H_    0.888386 0.116238 0.585036 0.273896
H86   H     H_    0.865078 0.121358 0.689685 0.264368
H87   H     H_    0.098619 0.354333 0.201457 0.168011
H88   H     H_    0.985686 0.366463 0.228584 0.152399
H89   H     H_    0.018272 0.303458 0.365472 0.219314
H90   H     H_    0.135113 0.298065 0.340091 0.221625
H91   H     H_    0.978154 0.208926 0.256456 0.270120
H92   H     H_    0.053741 0.162269 0.328537 0.261453
H93   H     H_    0.096253 0.200778 0.233529 0.263263
H94   H     H_    0.566121 0.285978 0.320990 0.168335
H95   H     H_    0.241234 0.623523 0.179914 0.124963
H96   H     H_    0.629698 0.370217 0.275514 0.097348
H97   H     H_    0.534418 0.227281 0.187341 0.244239
H98   H     H_    0.608220 0.306020 0.142767 0.209956
H99   H     H_    0.735473 0.255259 0.224820 0.259704
H100  H     H_    0.686411 0.172956 0.169031 0.263716
H101  H     H_    0.663061 0.177077 0.273608 0.272882
H102  H     H_    0.597888 0.746960 0.720267 0.178815
H103  H     H_    0.588104 0.710232 0.820040 0.121685
H104  H     H_    0.438094 0.689854 0.692928 0.255568
H105  H     H_    0.428423 0.672040 0.799288 0.206017
H106  H     H_    0.298911 0.497204 0.121835 0.123082
H107  H     H_    0.461344 0.822962 0.817948 0.269020
H108  H     H_    0.363582 0.806397 0.756334 0.262523
H109  H     H_    0.468251 0.840310 0.711100 0.264589
H110  H     H_    0.633525 0.323271 0.965036 0.124292
H111  H     H_    0.612380 0.186599 0.034732 0.136819
H112  H     H_    0.472507 0.103915 0.015575 0.120478
H113  H     H_    0.353428 0.158174 0.925142 0.124490
H114  H     H_    0.374119 0.294765 0.854650 0.123443
H115  H     H_    0.371930 0.637380 0.016364 0.123316
H116  H     H_    0.353393 0.772442 0.944865 0.129322
N1    N     N_2   0.542315 0.469129 0.984283 -0.195612
N2    N     N_2   0.507543 0.531476 0.010976 -0.183772
N3    N     N_R   0.511030 0.716920 0.509720 -0.167776
N4    N     N_R   0.488970 0.283080 0.490280 -0.168613
N5    N     N_2   0.525359 0.978675 0.526424 -0.073001
N6    N     N_2   0.459985 0.019882 0.501352 -0.063680
O1    O     O_R   0.496050 0.422540 0.612660 -0.622781
O2    O     O_3   0.359323 0.890602 0.480160 -0.610759
O3    O     O_3   0.664566 0.882039 0.579777 -0.623324
O4    O     O_3   0.325813 0.114426 0.440036 -0.611239
O5    O     O_3   0.913526 0.372791 0.697967 -0.645093
O6    O     O_3   0.080828 0.447154 0.278108 -0.643074
O7    O     O_3   0.489551 0.364161 0.253426 -0.641760
O8    O     O_3   0.590891 0.620780 0.732472 -0.640217
O9    O     O_3   0.639918 0.272114 0.538367 -0.638900
O10   O     O_3   0.367830 0.725864 0.446771 -0.618109
O11   O     O_R   0.503950 0.577460 0.387340 -0.630711
O12   O     O_R   0.503140 0.561840 0.618900 -0.574344
O13   O     O_R   0.496860 0.438160 0.381100 -0.580555
O14   O     O_R   0.628610 0.430340 0.496900 -0.602705
O15   O     O_R   0.371390 0.569660 0.503100 -0.565551
O16   O     O_R   0.635690 0.569650 0.503140 -0.609181
O17   O     O_R   0.364310 0.430350 0.496860 -0.636515
O18   O     O_3   0.614017 0.106983 0.572759 -0.611253
Zn1   Zn    Zn3+2 0.495270 0.406980 0.495830 0.956326
Zn2   Zn    Zn3+2 0.504730 0.593020 0.504170 0.983650

loop_
_geom_bond_atom_site_label_1
_geom_bond_atom_site_label_2
_ccdc_geom_bond_type
O11   Zn2   S    
C8    C9    A    
C112  O5    S    
C31   N4    A    
C82   H50   S    
C120  H101  S    
C115  H87   S    
C73   H30   S    
C27   C29   A    
C29   C77   A    
C73   C74   S    
C109  H77   S    
C95   C96   A    
C24   C27   A    
C20   H9    S    
C99   O7    S    
C33   C77   S    
C38   O17   A    
C107  H75   S    
C85   C91   A    
C7    C8    A    
C106  H74   S    
O16   Zn2   S    
C85   C86   A    
C116  C117  S    
C59   C64   A    
C101  C102  A    
C23   H16   S    
C22   H14   S    
C9    H112  S    
C79   O3    S    
C4    H104  S    
C25   H19   S    
C16   H3    S    
C76   C78   S    
C113  C114  S    
C101  H69   S    
C109  C111  A    
C18   H5    S    
C66   C88   A    
C8    H111  S    
C98   C104  A    
C106  C107  A    
C15   C16   A    
C104  H72   S    
C89   H59   S    
C108  C109  A    
N5    N6    D    
C113  H82   S    
C41   H1    S    
C42   H29   S    
C28   H62   S    
C118  C119  S    
C21   H11   S    
C116  H90   S    
C75   O2    S    
C1    O1    A    
C44   O5    S    
C93   C94   A    
C39   O3    S    
C78   H38   S    
C80   H44   S    
O13   Zn1   S    
C45   C56   A    
C68   C69   A    
C65   C67   A    
C15   H116  S    
C119  H98   S    
C50   C52   A    
C81   H46   S    
C3    O8    S    
N3    Zn2   S    
C68   H22   S    
C70   C71   A    
C113  H81   S    
C108  H76   S    
C84   H55   S    
C9    C10   A    
N4    Zn1   S    
C112  H79   S    
C61   C62   A    
C43   C59   S    
C72   C73   S    
C88   C110  A    
C110  H51   S    
C11   H114  S    
C48   C50   A    
C105  C111  A    
C82   H49   S    
C59   C60   A    
C63   C64   A    
N1    N2    D    
C96   C97   A    
C112  C113  S    
C74   H32   S    
C102  C103  A    
C94   H64   S    
C67   C68   A    
C84   H54   S    
C22   C23   S    
C14   H115  S    
C52   C54   A    
C92   C97   A    
C17   C18   A    
C100  C101  A    
C46   C48   A    
C45   C47   A    
C90   H60   S    
C76   H37   S    
C82   O4    S    
C73   H28   S    
C34   O18   S    
O15   Zn2   S    
C32   C35   A    
C96   H66   S    
C36   C40   A    
C25   H20   S    
C37   O16   A    
C47   C49   A    
C6    C11   A    
C42   N4    A    
C86   C87   A    
C16   C17   A    
C13   N1    S    
C12   C27   S    
C49   C51   A    
C65   C71   A    
C76   H36   S    
C86   H57   S    
C114  H86   S    
C74   H33   S    
C60   C61   A    
C51   C53   A    
O1    Zn1   S    
C35   C39   A    
C75   C76   S    
C21   H12   S    
C22   O10   S    
C13   C110  A    
C75   H35   S    
C117  H91   S    
C44   C56   A    
C17   H4    S    
C40   C42   A    
C83   C84   S    
C33   O13   A    
C44   C57   A    
C120  H100  S    
C37   O14   A    
C119  H97   S    
C83   H52   S    
C62   C63   A    
C1    C66   S    
C81   H47   S    
C31   C34   A    
C31   O9    S    
C94   C95   A    
C118  H94   S    
C51   C58   A    
C4    H105  S    
C43   C54   A    
C117  H93   S    
O12   Zn2   S    
C2    H40   S    
C71   H25   S    
C12   C14   A    
C2    C99   A    
C35   N5    S    
C3    H102  S    
C98   C100  A    
C55   O6    S    
C83   H53   S    
C45   C65   S    
C107  C108  A    
C5    H109  S    
C13   C26   A    
C37   C47   S    
C49   C92   S    
C3    C4    S    
C67   H21   S    
C38   O15   A    
C80   H45   S    
C63   H2    S    
C24   N2    S    
C1    O12   A    
C95   H65   S    
C88   O8    S    
C115  O6    S    
C41   N3    A    
C53   C56   A    
C97   H67   S    
C54   C55   A    
C10   H113  S    
C3    H103  S    
C100  H68   S    
C14   C15   A    
C50   C57   A    
C26   C28   A    
C23   H17   S    
C117  H92   S    
C79   H43   S    
C80   C81   S    
O17   Zn1   S    
C116  H89   S    
C40   O4    S    
C119  C120  S    
C5    H108  S    
C72   O18   S    
C6    C7    A    
C112  H80   S    
C69   H23   S    
C72   H27   S    
C61   H95   S    
C105  C106  A    
C22   H15   S    
C19   H6    S    
C70   H24   S    
C114  H85   S    
C20   H8    S    
C64   H13   S    
C58   C105  S    
C36   N6    S    
C19   C20   S    
C33   O11   A    
C25   H18   S    
C111  H78   S    
C62   H106  S    
C87   H58   S    
C30   C32   A    
C93   H63   S    
C75   H34   S    
C19   O9    S    
C90   C91   A    
C6    C26   S    
C118  O7    S    
C120  H99   S    
C29   H73   S    
C57   C98   S    
C19   H7    S    
C92   C93   A    
C102  H70   S    
C81   H48   S    
C30   O10   S    
C77   C99   A    
C34   C36   A    
C23   C25   S    
C30   N3    A    
C69   C70   A    
C74   H31   S    
C43   C46   A    
C21   H10   S    
C38   C46   S    
C60   H84   S    
C10   C11   A    
C91   H61   S    
C79   C80   S    
C115  H88   S    
C5    H107  S    
C78   H39   S    
C4    C5    S    
C103  H71   S    
C20   C21   S    
C39   C41   A    
C78   H41   S    
O14   Zn1   S    
C82   C83   S    
C28   C66   A    
C55   C58   A    
C12   C18   A    
C103  C104  A    
C72   H26   S    
C87   C89   A    
C48   C85   S    
C118  H96   S    
C2    C24   A    
C79   H42   S    
C89   C90   A    
C84   H56   S    
C114  H83   S    
C32   O2    S    
C115  C116  S    
C52   C53   A    
C7    H110  S    
