data_mof_unit_21517.cif
_audit_creation_date              2012-12-11T18:07:15-0500
_audit_creation_method            fapswitch 2.2
_symmetry_space_group_name_H-M    P1
_symmetry_Int_Tables_number       1
_space_group_crystal_system       triclinic
_cell_length_a                    8.209351
_cell_length_b                    12.68754
_cell_length_c                    26.950944
_cell_angle_alpha                 96.717907
_cell_angle_beta                  92.672245
_cell_angle_gamma                 81.417632
_cell_volume                      2755.4086013

loop_
_atom_site_label
_atom_site_type_symbol
_atom_type_description
_atom_site_fract_x
_atom_site_fract_y
_atom_site_fract_z
_atom_type_partial_charge
Ba1   Ba    Ba6+2 0.859560 0.448380 0.523550 1.640721
Ba2   Ba    Ba6+2 0.330270 0.551530 0.476440 1.656415
C1    C     C_3   0.638538 0.080336 0.662420 -0.378449
C2    C     C_R   0.959739 0.612616 0.184283 0.599778
C3    C     C_2   0.769347 0.582642 0.273257 -0.079170
C4    C     C_3   0.167198 0.214880 0.660624 0.291396
C5    C     C_3   0.740906 0.611517 0.328511 -0.044029
C6    C     C_1   0.985811 0.481331 0.343413 0.040812
C7    C     C_2   0.026597 0.470873 0.295555 -0.078513
C8    C     C_2   0.912468 0.523356 0.257396 0.217027
C9    C     C_R   0.028313 0.511937 0.102884 -0.111770
C10   C     C_R   0.038119 0.414752 0.125193 -0.049835
C11   C     C_R   0.080057 0.315060 0.094614 0.069605
C12   C     C_3   0.659275 0.181958 0.640040 0.333855
C13   C     C_R   0.987999 0.612219 0.132542 -0.026790
C14   C     C_2   0.851309 0.541588 0.361162 -0.279811
C15   C     C_2   0.352033 0.475508 0.641521 -0.281394
C16   C     C_3   0.135584 0.190015 0.712815 -0.332425
C17   C     C_R   0.170397 0.411494 0.972495 0.022125
C18   C     C_R   0.061984 0.602343 0.975357 0.022256
C19   C     C_R   0.135731 0.506067 0.948452 0.054182
C20   C     C_R   0.271248 0.323103 0.947463 -0.112409
C21   C     C_R   0.316836 0.322975 0.898143 -0.063893
C22   C     C_R   0.267086 0.412407 0.872017 -0.029255
C23   C     C_3   0.481414 0.720252 0.628378 0.297290
C24   C     C_R   0.177538 0.504719 0.897394 -0.080280
C25   C     C_R   0.131573 0.596142 0.872065 -0.033804
C26   C     C_R   0.171640 0.593206 0.821301 0.589954
C27   C     C_R   0.308351 0.412400 0.821529 0.579066
C28   C     C_3   0.214599 0.222757 0.417671 0.291448
C29   C     C_2   0.458990 0.479476 0.729721 -0.070582
C30   C     C_3   0.500678 0.485790 0.675831 -0.053387
C31   C     C_1   0.207468 0.523368 0.657142 0.041195
C32   C     C_2   0.167758 0.525995 0.704685 -0.107747
C33   C     C_2   0.299847 0.500712 0.744046 0.203680
C34   C     C_3   0.443982 0.764032 0.682286 -0.369452
C35   C     C_R   0.111435 0.410216 0.021731 0.005565
C36   C     C_R   0.061312 0.509231 0.050944 0.029759
C37   C     C_R   0.040864 0.605745 0.027918 0.007990
C38   C     C_R   0.097509 0.313888 0.042373 0.058434
C39   C     C_R   0.978081 0.708779 0.109403 0.071150
C40   C     C_3   0.230043 0.101866 0.405313 -0.353462
C41   C     C_R   0.013709 0.692237 0.948683 -0.106030
C42   C     C_R   0.046735 0.688766 0.898128 -0.061896
C43   C     C_R   0.003412 0.703513 0.058169 -0.087544
C44   C     C_R   0.756404 0.819986 0.478415 -0.270855
C45   C     C_3   0.943829 0.861036 0.343915 0.301133
C46   C     C_R   0.432914 0.189185 0.520457 -0.290930
C47   C     C_R   0.410279 0.009922 0.537090 -0.098305
C48   C     C_R   0.347234 0.117978 0.540198 -0.005512
C49   C     C_R   0.575604 0.152334 0.493752 0.063340
C50   C     C_R   0.638531 0.041108 0.488046 -0.055441
C51   C     C_R   0.555051 0.969604 0.510826 -0.060948
C52   C     C_3   0.981451 0.777059 0.580826 0.276585
C53   C     C_R   0.616842 0.859212 0.505883 0.053917
C54   C     C_R   0.844127 0.889302 0.458322 -0.034635
C55   C     C_R   0.783268 0.998880 0.461444 -0.093876
C56   C     C_3   0.974474 0.894553 0.293251 -0.307320
C57   C     C_3   0.979610 0.897342 0.591857 -0.337244
C58   C     C_3   0.695707 0.313506 0.375899 0.297332
C59   C     C_3   0.710916 0.285135 0.319731 -0.364850
C60   C     C_3   0.108882 0.208839 0.116889 -0.327967
C61   C     C_3   0.064215 0.214375 0.008508 -0.414413
C62   C     C_3   0.938879 0.819889 0.137426 -0.329168
C63   C     C_3   0.471618 0.829265 0.342483 0.532127
C64   C     C_3   0.459016 0.903991 0.301727 0.210458
C65   C     C_R   0.997283 0.420727 0.176730 0.591065
H1    H     H_    0.768474 0.164695 0.615906 0.085660
H2    H     H_    0.811904 0.339140 0.391691 0.008338
H3    H     H_    0.593131 0.380378 0.382856 0.086554
H4    H     H_    0.619683 0.015804 0.632078 0.086311
H5    H     H_    0.818558 0.222088 0.311692 0.127086
H6    H     H_    0.727681 0.357053 0.301881 0.076374
H7    H     H_    0.597300 0.255231 0.303509 0.127756
H8    H     H_    0.546784 0.205525 0.617203 -0.039462
H9    H     H_    0.530149 0.095230 0.686724 0.135898
H10   H     H_    0.367499 0.694679 0.610217 0.030674
H11   H     H_    0.580773 0.650422 0.627823 0.033708
H12   H     H_    0.310607 0.076056 0.372955 0.090030
H13   H     H_    0.349894 0.836861 0.683196 0.139728
H14   H     H_    0.395170 0.703535 0.701666 0.078715
H15   H     H_    0.557921 0.785119 0.702387 0.124732
H16   H     H_    0.750000 0.053932 0.685260 0.130044
H17   H     H_    0.165350 0.256278 0.740702 0.124891
H18   H     H_    0.909427 0.779128 0.338410 0.039732
H19   H     H_    0.840851 0.919255 0.360627 -0.026002
H20   H     H_    0.076814 0.838431 0.275012 0.170278
H21   H     H_    0.861499 0.893662 0.269029 0.139799
H22   H     H_    0.007451 0.977008 0.297896 0.084964
H23   H     H_    0.284453 0.061050 0.437576 0.084526
H24   H     H_    0.603721 0.813704 0.354455 -0.198612
H25   H     H_    0.403453 0.870989 0.375462 -0.005198
H26   H     H_    0.517990 0.975712 0.315737 -0.020684
H27   H     H_    0.097424 0.294686 0.655416 0.093836
H28   H     H_    0.327192 0.930455 0.292242 0.041087
H29   H     H_    0.144505 0.426236 0.283946 0.109281
H30   H     H_    0.558188 0.465321 0.757298 0.102133
H31   H     H_    0.391916 0.252199 0.880546 0.120990
H32   H     H_    0.320492 0.254118 0.966231 0.081753
H33   H     H_    0.684102 0.621931 0.246809 0.132667
H34   H     H_    0.106502 0.078167 0.395888 0.133675
H35   H     H_    0.945375 0.765845 0.965643 0.067195
H36   H     H_    0.300541 0.217828 0.657584 -0.021540
H37   H     H_    0.006790 0.759927 0.879600 0.120929
H38   H     H_    0.040441 0.547547 0.715447 0.125559
H39   H     H_    0.999630 0.778444 0.042663 0.065630
H40   H     H_    0.831268 0.556070 0.401050 0.077909
H41   H     H_    0.362968 0.428287 0.605194 0.069635
H42   H     H_    0.341274 0.958493 0.554080 0.104813
H43   H     H_    0.852522 0.049269 0.443867 0.101966
H44   H     H_    0.804127 0.735333 0.475905 0.056745
H45   H     H_    0.855205 0.759962 0.571992 0.002292
H46   H     H_    0.382849 0.273465 0.523435 0.069047
H47   H     H_    0.003741 0.181775 0.715890 0.146053
H48   H     H_    0.213278 0.114146 0.720884 0.119037
H49   H     H_    0.338043 0.245370 0.426716 0.003145
H50   H     H_    0.134294 0.246607 0.450306 0.071323
H51   H     H_    0.528750 0.903270 0.234344 0.299291
H52   H     H_    0.197825 0.213307 0.149125 0.146460
H53   H     H_    0.990448 0.188511 0.128540 0.149713
H54   H     H_    0.165729 0.140924 0.090718 0.084721
H55   H     H_    0.022461 0.232956 0.970340 0.127626
H56   H     H_    0.060272 0.748161 0.548265 0.076509
H57   H     H_    0.175175 0.152427 0.006377 0.110817
H58   H     H_    0.961472 0.180071 0.023040 0.119579
H59   H     H_    0.934290 0.884559 0.112724 0.075672
H60   H     H_    0.815977 0.829524 0.154318 0.152367
H61   H     H_    0.035656 0.833364 0.166689 0.149718
H62   H     H_    0.910407 0.927632 0.626155 0.122736
H63   H     H_    0.920132 0.938852 0.560397 0.085209
H64   H     H_    0.107725 0.915377 0.597747 0.134467
N1    N     N_R   0.958776 0.518340 0.205170 -0.419693
N2    N     N_R   0.258574 0.501764 0.796352 -0.425157
O1    O     O_2   0.907040 0.557650 0.617910 -0.463847
O2    O     O_2   0.182039 0.883733 0.466870 -0.479829
O3    O     O_3   0.088417 0.861816 0.373710 -0.591907
O4    O     O_3   0.139040 0.557570 0.557730 -0.494225
O5    O     O_3   0.571310 0.369620 0.475470 -0.491010
O6    O     O_2   0.348200 0.764910 0.523260 -0.467653
O7    O     O_3   0.533759 0.801219 0.604696 -0.650219
O8    O     O_2   0.440030 0.527141 0.323988 -0.490436
O9    O     O_3   0.401241 0.736423 0.324517 -0.555852
O10   O     O_2   0.990880 0.339328 0.196120 -0.614188
O11   O     O_2   0.387789 0.332442 0.799928 -0.599962
O12   O     O_3   0.664827 0.222989 0.396989 -0.643842
O13   O     O_2   0.936380 0.697168 0.211264 -0.614644
O14   O     O_2   0.131425 0.672865 0.799584 -0.597558
O15   O     O_3   0.684960 0.360550 0.588460 -0.485289
O16   O     O_2   0.842634 0.420901 0.672879 -0.500020
O17   O     O_3   0.040387 0.729522 0.623601 -0.627026
O18   O     O_3   0.681626 0.262893 0.678843 -0.586606
O19   O     O_2   0.841490 0.235060 0.476710 -0.467655
O20   O     O_3   0.099640 0.305100 0.564190 -0.491668
O21   O     O_2   0.010577 0.115735 0.532749 -0.483664
O22   O     O_3   0.539252 0.850620 0.259205 -0.718620
O23   O     O_3   0.115158 0.135018 0.625564 -0.611068
O24   O     O_2   0.282660 0.442310 0.382060 -0.453697
O25   O     O_3   0.050670 0.442340 0.442260 -0.500055
O26   O     O_3   0.504750 0.639360 0.411530 -0.470380
O27   O     O_3   0.148218 0.270549 0.375677 -0.632746
O28   O     O_3   0.618400 0.630290 0.524520 -0.477084
O29   O     O_3   0.090070 0.694820 0.435810 -0.465323
P1    P     P_3+3 0.072810 0.589830 0.610360 0.994066
P2    P     P_3+3 0.661990 0.251250 0.462170 0.969371
P3    P     P_3+3 0.143570 0.167030 0.565486 0.935527
P4    P     P_3+3 0.116900 0.410080 0.389630 0.989390
P5    P     P_3+3 0.048651 0.833954 0.433645 0.961124
P6    P     P_3+3 0.677335 0.384632 0.653710 0.972314
P7    P     P_3+3 0.533214 0.764514 0.540116 0.936543
P8    P     P_3+3 0.521689 0.624896 0.346530 1.000437

loop_
_geom_bond_atom_site_label_1
_geom_bond_atom_site_label_2
_ccdc_geom_bond_type
C63   H25   S    
C27   N2    Am   
C52   H56   S    
C57   H63   S    
O7    P7    S    
O26   P8    S    
C45   O3    S    
C65   N1    Am   
C19   C24   A    
C65   O10   D    
C56   H20   S    
C33   N2    S    
C61   H57   S    
C42   H37   S    
C2    N1    Am   
C28   H49   S    
C54   C55   A    
C28   O27   S    
O17   P1    S    
C57   H64   S    
C24   C25   A    
C38   C61   S    
C23   H10   S    
Ba2   O6    S    
C45   H18   S    
C47   H42   S    
Ba1   O25   S    
C17   C19   A    
C22   C24   A    
C32   C33   S    
C35   C38   A    
C36   C37   A    
O18   P6    S    
O1    P1    D    
Ba1   O19   S    
Ba1   Ba2   S    
C26   N2    Am   
C22   C27   A    
C11   C38   A    
C17   C35   A    
C14   H40   S    
C9    C13   A    
C25   C42   A    
C46   C49   A    
C11   C60   S    
C29   C30   S    
Ba1   P2    S    
C34   H15   S    
C6    C7    D    
C62   H61   S    
C44   C53   A    
C16   H17   S    
C21   C22   A    
O21   P3    D    
O27   P4    S    
C7    C8    S    
Ba2   P4    S    
C60   H53   S    
C37   C43   A    
O28   P7    S    
C46   C48   A    
Ba1   O28   S    
C40   H12   S    
C6    C14   D    
C44   H44   S    
Ba2   O4    S    
C16   H47   S    
O16   P6    D    
C15   C31   D    
Ba2   O28   S    
C52   C57   S    
C51   C53   A    
C4    C16   S    
C10   C65   A    
C16   H48   S    
C49   C50   A    
Ba2   O5    S    
C45   H19   S    
H51   O22   S    
C17   C20   A    
C13   C39   A    
C52   O17   S    
C34   H13   S    
C15   H41   S    
O4    P1    S    
C18   C37   A    
Ba2   O26   S    
C59   H6    S    
C27   O11   D    
C23   H11   S    
C58   C59   S    
C40   H23   S    
C12   O18   S    
C9    C36   A    
C1    H4    S    
C41   C42   A    
C35   C36   A    
C55   H43   S    
C3    H33   S    
C58   H3    S    
C34   H14   S    
Ba2   O25   S    
C62   H60   S    
C2    O13   D    
C23   O7    S    
C48   P3    S    
C31   C32   D    
C52   H45   S    
C49   P2    S    
C61   H58   S    
C4    H36   S    
C18   C19   A    
Ba1   O20   S    
C1    H9    S    
C46   H46   S    
C7    H29   S    
C60   H52   S    
O19   P2    D    
C1    C12   S    
C6    P4    S    
C64   H26   S    
C59   H5    S    
C5    C14   S    
C28   H50   S    
C47   C48   A    
C62   H59   S    
C30   P6    S    
C1    H16   S    
C43   H39   S    
O15   P6    S    
C29   C33   D    
C58   O12   S    
Ba1   O1    S    
C61   H55   S    
C40   H34   S    
C18   C41   A    
Ba1   O4    S    
C50   C51   A    
O25   P4    S    
C3    C5    S    
C63   H24   S    
C57   H62   S    
C26   O14   D    
C12   H1    S    
C20   H32   S    
O20   P3    S    
C32   H38   S    
C56   H21   S    
O24   P4    D    
C9    C10   A    
O12   P2    S    
C59   H7    S    
O9    P8    S    
C12   H8    S    
C2    C13   A    
C41   H35   S    
C3    C8    D    
C39   C43   A    
C45   C56   S    
C63   O9    S    
C4    H27   S    
C64   O22   S    
C58   H2    S    
Ba2   O24   S    
C47   C51   A    
C54   P5    S    
O8    P8    D    
C31   P1    S    
C64   H28   S    
O6    P7    D    
C29   H30   S    
C56   H22   S    
C8    N1    S    
O3    P5    S    
O23   P3    S    
C50   C55   A    
C23   C34   S    
O29   P5    S    
C21   H31   S    
C10   C11   A    
Ba1   P1    S    
C63   C64   S    
C5    P8    S    
C44   C54   A    
C25   C26   A    
C15   C30   S    
O2    P5    D    
C20   C21   A    
C28   C40   S    
Ba1   O15   S    
O5    P2    S    
C39   C62   S    
C53   P7    S    
C60   H54   S    
C4    O23   S    
Ba1   O5    S    
Ba2   O29   S    
