data_mof_unit_27458.cif
_audit_creation_date              2012-12-11T14:51:43-0500
_audit_creation_method            fapswitch 2.2
_symmetry_space_group_name_H-M    P1
_symmetry_Int_Tables_number       1
_space_group_crystal_system       triclinic
_cell_length_a                    6.948371
_cell_length_b                    16.721379
_cell_length_c                    16.938854
_cell_angle_alpha                 101.208866
_cell_angle_beta                  90.506765
_cell_angle_gamma                 90.411338
_cell_volume                      1930.3679458

loop_
_atom_site_label
_atom_site_type_symbol
_atom_type_description
_atom_site_fract_x
_atom_site_fract_y
_atom_site_fract_z
_atom_type_partial_charge
O1    O     O_R   0.506340 0.439070 0.579550 -0.529085
O2    O     O_R   0.170010 0.404890 0.412100 -0.536020
O3    O     O_R   0.005010 0.560930 0.420450 -0.525543
C1    C     C_R   0.339175 0.381421 0.383717 0.819150
O4    O     O_R   0.176280 0.429360 0.578400 -0.552358
O5    O     O_R   0.011320 0.585570 0.587940 -0.525680
C2    C     C_R   0.346273 0.413490 0.604630 0.781273
O6    O     O_R   0.500030 0.414430 0.412060 -0.521636
O7    O     O_3   0.340950 0.551220 0.502940 -0.369666
V1    V     V_3+5 0.064020 0.490500 0.499460 1.629356
O8    O     O_R   0.681910 0.595110 0.587900 -0.519396
C3    C     C_R   0.851791 0.617751 0.616723 0.866889
O9    O     O_R   0.675640 0.570640 0.421600 -0.551582
C4    C     C_R   0.844545 0.586896 0.395691 0.789915
V2    V     V_3+5 0.564670 0.509500 0.500540 1.650472
O10   O     O_3   0.837610 0.448780 0.497060 -0.377870
C5    C     C_R   0.908733 0.864614 0.168885 -0.216231
C6    C     C_R   0.857652 0.637974 0.333110 -0.301886
C7    C     C_R   0.948431 0.647550 0.196346 0.602430
C8    C     C_R   0.920429 0.600721 0.256232 0.267356
C9    C     C_R   0.823197 0.723375 0.350624 0.382945
C10   C     C_R   0.851251 0.770498 0.289841 -0.179792
C11   C     C_R   0.908931 0.731969 0.211330 -0.251619
C12   C     C_R   0.930069 0.779467 0.150194 0.324032
C13   C     C_R   0.857413 0.903050 0.246840 0.177774
C14   C     C_R   0.826314 0.856171 0.306556 0.678635
C15   C     C_3   0.757528 0.808114 0.741089 0.568892
C16   C     C_3   0.920244 0.776164 0.681934 0.465908
C17   C     C_3   0.866462 0.687360 0.687039 -0.468622
C18   C     C_3   0.705521 0.719654 0.746505 0.214598
C19   C     C_3   0.846567 0.723974 0.817480 0.122387
C20   C     C_3   0.008811 0.691850 0.758776 0.491432
C21   C     C_3   0.062113 0.780638 0.753476 0.513024
C22   C     C_3   0.899663 0.812638 0.812901 -0.474252
C23   C     C_3   0.550215 0.270587 0.286104 0.190234
C24   C     C_3   0.456138 0.185548 0.275645 0.559789
C25   C     C_3   0.410181 0.188543 0.186838 -0.365945
C26   C     C_3   0.503913 0.274089 0.197870 0.496455
C27   C     C_3   0.309776 0.314331 0.224807 0.563594
C28   C     C_3   0.216453 0.229231 0.214489 0.214557
C29   C     C_3   0.260029 0.225307 0.303465 -0.317102
C30   C     C_3   0.356042 0.311118 0.313484 -0.339469
H1    H     H_    0.158136 0.204547 0.345559 0.202716
C31   C     C_R   0.401871 0.134898 0.830659 -0.270461
C32   C     C_R   0.363649 0.362337 0.667093 -0.247682
C33   C     C_R   0.496859 0.347138 0.797816 0.321594
C34   C     C_R   0.467792 0.394507 0.737824 0.259177
C35   C     C_R   0.291167 0.281164 0.654644 0.359177
C36   C     C_R   0.326412 0.232145 0.713456 -0.114556
C37   C     C_R   0.441387 0.263736 0.782941 -0.156840
C38   C     C_R   0.488974 0.212060 0.838416 0.319905
C39   C     C_R   0.282992 0.105453 0.764060 0.461768
C40   C     C_R   0.248568 0.151871 0.704310 0.384563
O11   O     O_R   0.266070 0.085680 0.087850 -0.529501
O12   O     O_R   0.590090 0.070660 0.921580 -0.532890
O13   O     O_R   0.754780 0.914400 0.912080 -0.536468
C41   C     C_R   0.420180 0.085899 0.894706 0.884723
O14   O     O_R   0.596110 0.095130 0.087880 -0.523922
O15   O     O_R   0.760850 0.939050 0.079570 -0.547133
C42   C     C_R   0.426975 0.118535 0.116324 0.845107
O16   O     O_R   0.260010 0.061030 0.920360 -0.534268
O17   O     O_3   0.425070 0.948840 0.997010 -0.387820
V3    V     V_3+5 0.702100 0.009490 0.000550 1.678453
O18   O     O_R   0.090200 0.929250 0.078500 -0.545243
C43   C     C_R   0.921356 0.913648 0.104832 0.854719
O19   O     O_R   0.084180 0.904770 0.912200 -0.518553
C44   C     C_R   0.914286 0.882159 0.883336 0.905252
V4    V     V_3+5 0.201420 0.990350 0.999580 1.680976
O20   O     O_3   0.928580 0.051150 0.002990 -0.373656
O21   O     O_3   0.964451 0.744420 0.071071 -0.582957
H2    H     H_    0.872125 0.698412 0.056074 0.372476
O22   O     O_3   0.807217 0.696784 0.888680 -0.591090
H3    H     H_    0.779104 0.637674 0.872025 0.343009
F1    F     F_    0.135272 0.631154 0.768942 -0.606841
F2    F     F_    0.245271 0.813661 0.756046 -0.542332
F3    F     F_    0.535556 0.120037 0.302478 -0.625076
O23   O     O_3   0.727491 0.292841 0.324245 -0.596837
H4    H     H_    0.805102 0.242498 0.315856 0.328303
F4    F     F_    0.628523 0.300334 0.144863 -0.590885
F5    F     F_    0.231462 0.379690 0.197388 -0.602003
O24   O     O_3   0.039874 0.207356 0.175764 -0.584312
H5    H     H_    0.957877 0.256091 0.189837 0.374863
O25   O     O_3   0.618250 0.235353 0.901005 -0.577117
H6    H     H_    0.730647 0.260319 0.879085 0.347000
O26   O     O_3   0.836995 0.986869 0.262591 -0.596033
H7    H     H_    0.806125 0.006135 0.320049 0.398661
F6    F     F_    0.202282 0.029951 0.756761 -0.619534
O27   O     O_3   0.567125 0.382738 0.873181 -0.597229
H8    H     H_    0.532845 0.441231 0.884815 0.337583
O28   O     O_3   0.133961 0.120692 0.638059 -0.554914
H9    H     H_    0.092456 0.064275 0.639695 0.388150
O29   O     O_3   0.539906 0.473131 0.746872 -0.606272
H10   H     H_    0.657579 0.478003 0.781001 0.305504
O30   O     O_3   0.191780 0.247172 0.584778 -0.572574
H11   H     H_    0.215052 0.278678 0.542076 0.280873
F7    F     F_    0.025060 0.610626 0.125129 -0.633826
F8    F     F_    0.772990 0.895174 0.381063 -0.569883
O31   O     O_3   0.954533 0.517745 0.241524 -0.579497
H12   H     H_    0.985895 0.498668 0.184086 0.408806
O32   O     O_3   0.766520 0.762901 0.426352 -0.526494
H13   H     H_    0.759006 0.724626 0.463911 0.314446
F9    F     F_    0.959131 0.803755 0.611875 -0.554310
F10   F     F_    0.627943 0.867787 0.731094 -0.530432
O33   O     O_3   0.519639 0.686840 0.743157 -0.529482
H14   H     H_    0.467263 0.705080 0.797864 0.383779

loop_
_geom_bond_atom_site_label_1
_geom_bond_atom_site_label_2
_ccdc_geom_bond_type
O19   V4    S    
C28   C29   S    
C38   O25   S    
C3    C17   S    
C6    C9    A    
C29   C30   S    
C4    C6    S    
O2    C1    A    
C7    C8    A    
C1    O6    A    
O24   H5    S    
C12   O21   S    
O11   C42   A    
O26   H7    S    
C17   C18   S    
C35   O30   S    
O25   H6    S    
C2    C32   S    
C16   C17   S    
C17   C20   S    
C20   F1    S    
C18   C19   S    
O11   V4    S    
C26   F4    S    
O14   C42   A    
V2    O10   S    
C34   O29   S    
C23   C30   S    
O29   H10   S    
C24   F3    S    
O8    V2    S    
C21   F2    S    
V3    O20   S    
V4    O20   S    
O12   V3    S    
C11   C12   A    
O21   H2    S    
O1    V2    S    
O7    V1    S    
C31   C39   A    
O19   C44   A    
O9    C4    A    
C15   C18   S    
C29   H1    S    
C24   C29   S    
O33   H14   S    
C37   C38   A    
C27   C30   S    
C33   O27   S    
C32   C34   A    
C15   C22   S    
C19   C22   S    
C5    C12   A    
C23   C26   S    
C27   C28   S    
O4    C2    A    
C9    O32   S    
C13   C14   A    
O23   H4    S    
C23   O23   S    
C23   C24   S    
C7    C11   A    
C25   C26   S    
C19   C20   S    
C31   C41   S    
O17   V3    S    
C13   O26   S    
C21   C22   S    
O13   V3    S    
O3    C4    A    
C31   C38   A    
C19   O22   S    
C16   C21   S    
O31   H12   S    
O6    V2    S    
O12   C41   A    
O2    V1    S    
O18   V4    S    
C40   O28   S    
C39   C40   A    
C32   C35   A    
O14   V3    S    
C33   C34   A    
C35   C36   A    
O1    C2    A    
C5    C43   S    
C28   O24   S    
C39   F6    S    
O22   H3    S    
C22   C44   S    
O5    V1    S    
O8    C3    A    
C41   O16   A    
C25   C28   S    
O13   C44   A    
C33   C37   A    
O15   V3    S    
O17   V4    S    
C5    C13   A    
C20   C21   S    
O9    V2    S    
O7    V2    S    
O4    V1    S    
O3    V1    S    
V1    O10   S    
C27   F5    S    
O5    C3    A    
O16   V4    S    
O28   H9    S    
C26   C27   S    
C1    C30   S    
C36   C40   A    
O18   C43   A    
C15   F10   S    
O32   H13   S    
C6    C8    A    
O30   H11   S    
C25   C42   S    
C14   F8    S    
C16   F9    S    
C8    O31   S    
O27   H8    S    
C24   C25   S    
C36   C37   A    
C10   C14   A    
C18   O33   S    
C15   C16   S    
C10   C11   A    
C9    C10   A    
O15   C43   A    
C7    F7    S    
