data_mof_unit_59541.cif
_audit_creation_date              2012-12-10T19:27:38-0500
_audit_creation_method            fapswitch 2.2
_symmetry_space_group_name_H-M    P1
_symmetry_Int_Tables_number       1
_space_group_crystal_system       triclinic
_cell_length_a                    23.407152
_cell_length_b                    10.500438
_cell_length_c                    9.790623
_cell_angle_alpha                 90.954818
_cell_angle_beta                  89.867802
_cell_angle_gamma                 89.98446
_cell_volume                      2406.05102944

loop_
_atom_site_label
_atom_site_type_symbol
_atom_type_description
_atom_site_fract_x
_atom_site_fract_y
_atom_site_fract_z
_atom_type_partial_charge
C1    C     C_R   0.501277 0.257859 0.499044 0.891706
C2    C     C_R   0.499693 0.742387 0.500895 0.901791
C3    C     C_R   0.235295 0.498454 0.384407 0.474531
C4    C     C_R   0.761916 0.425560 0.391447 0.467722
C5    C     C_R   0.294488 0.517969 0.383171 0.379636
C6    C     C_R   0.702105 0.429620 0.389274 0.392984
C7    C     C_R   0.326889 0.489279 0.500228 -0.216622
C8    C     C_R   0.672488 0.486765 0.500308 -0.199019
C9    C     C_R   0.299129 0.448113 0.618706 -0.291015
C10   C     C_R   0.702447 0.529834 0.615852 -0.299078
C11   C     C_R   0.240183 0.436730 0.622184 -0.197867
C12   C     C_R   0.761344 0.519841 0.620259 -0.181768
C13   C     C_R   0.208291 0.463122 0.506021 0.157883
C14   C     C_R   0.791119 0.468669 0.508520 0.152713
C15   C     C_3   0.542522 0.041943 0.580400 0.615001
C16   C     C_3   0.460076 0.959242 0.419234 0.637509
C17   C     C_3   0.552381 0.955324 0.454256 -0.369200
C18   C     C_3   0.450182 0.045370 0.545511 -0.349256
C19   C     C_3   0.500562 0.877547 0.502105 -0.101580
C20   C     C_3   0.501834 0.123064 0.497609 -0.104293
C21   C     C_3   0.491578 0.962800 0.629915 -0.276588
C22   C     C_3   0.511045 0.038156 0.369987 -0.288432
C23   C     C_R   0.389347 0.498818 0.499992 0.910019
C24   C     C_R   0.610429 0.497428 0.499803 0.904169
C25   C     C_3   0.491218 0.387816 0.044918 0.516927
C26   C     C_3   0.508908 0.612203 0.955225 0.491020
C27   C     C_3   0.540056 0.424527 0.948713 -0.439986
C28   C     C_3   0.460006 0.575369 0.051325 -0.431423
C29   C     C_3   0.451893 0.461902 0.952468 0.502858
C30   C     C_3   0.548239 0.537918 0.047714 0.503012
C31   C     C_R   0.880652 0.579914 0.507370 0.494045
C32   C     C_R   0.119178 0.349160 0.520155 0.502488
C33   C     C_R   0.879758 0.352508 0.519843 0.580933
C34   C     C_R   0.119489 0.576841 0.512738 0.580753
C35   C     C_R   0.939448 0.349083 0.521675 -0.038723
C36   C     C_R   0.059943 0.579963 0.513609 -0.033550
C37   C     C_R   0.969756 0.464853 0.517051 -0.020296
C38   C     C_R   0.029768 0.464052 0.518023 -0.019802
C39   C     C_R   0.940205 0.581495 0.510716 -0.018211
C40   C     C_R   0.059462 0.347420 0.522623 -0.018847
C41   C     C_R   0.969377 0.233401 0.527696 -0.156670
C42   C     C_R   0.030087 0.695712 0.508892 -0.157419
C43   C     C_R   0.028900 0.232561 0.527897 -0.157765
C44   C     C_R   0.970687 0.696454 0.507090 -0.157134
H1    H     H_    0.572927 0.362166 0.900356 0.190453
H2    H     H_    0.427266 0.637767 0.099690 0.196627
N1    N     N_R   0.851937 0.466665 0.511841 -0.331956
N2    N     N_R   0.147565 0.462661 0.513951 -0.329070
N3    N     N_3   0.499960 0.500030 0.863290 -0.151734
N4    N     N_3   0.500040 0.499970 0.136710 -0.152552
O1    O     O_R   0.500000 0.313960 0.616610 -0.594088
O2    O     O_R   0.500000 0.686040 0.383390 -0.599500
O3    O     O_R   0.500030 0.313950 0.383350 -0.590893
O4    O     O_R   0.499970 0.686050 0.616650 -0.583196
O5    O     O_R   0.416140 0.499970 0.616650 -0.582650
O6    O     O_R   0.583860 0.500030 0.383350 -0.530113
O7    O     O_R   0.416170 0.499960 0.383400 -0.572300
O8    O     O_R   0.583830 0.500040 0.616600 -0.629797
O9    O     O_2   0.851469 0.690392 0.498496 -0.562732
O10   O     O_2   0.148716 0.238817 0.522222 -0.566540
O11   O     O_2   0.849648 0.243174 0.526443 -0.538566
O12   O     O_2   0.149341 0.686810 0.510339 -0.549503
Zn1   Zn    Zn3+2 0.499980 0.500010 0.655740 1.022891
Zn2   Zn    Zn3+2 0.500020 0.499990 0.344260 1.050005
H3    H     H_    0.946960 0.143288 0.531456 0.190960
H4    H     H_    0.052467 0.785897 0.505549 0.191376
O13   O     O_3   0.479020 0.268210 0.101268 -0.601463
C45   C     C_3   0.483135 0.173301 0.998282 -0.355048
H5    H     H_    0.528528 0.156512 0.969699 0.183736
H6    H     H_    0.457596 0.196475 0.906267 0.217378
H7    H     H_    0.465758 0.083384 0.038742 0.173396
O14   O     O_3   0.520719 0.732098 0.899104 -0.599738
C46   C     C_3   0.517881 0.826289 0.003131 -0.358043
H8    H     H_    0.544564 0.802425 0.093050 0.212460
H9    H     H_    0.472872 0.842966 0.035143 0.189448
H10   H     H_    0.534761 0.916489 0.962259 0.169631
O15   O     O_3   0.401547 0.413571 0.892451 -0.611243
C47   C     C_3   0.357312 0.414043 0.990111 -0.290232
H11   H     H_    0.341377 0.512632 0.007418 0.212806
H12   H     H_    0.370640 0.370839 0.088159 0.211297
H13   H     H_    0.321294 0.356281 0.949600 0.163861
O16   O     O_3   0.599032 0.582944 0.108858 -0.557938
C48   C     C_3   0.642114 0.592083 0.008924 -0.265277
H14   H     H_    0.628486 0.651260 0.921610 0.167599
H15   H     H_    0.655724 0.495923 0.972459 0.175850
H16   H     H_    0.679809 0.639241 0.055854 0.177166
H17   H     H_    0.050822 0.141829 0.531679 0.190588
H18   H     H_    0.948806 0.787198 0.502564 0.191937
O17   O     O_3   0.203115 0.524549 0.270055 -0.587446
C49   C     C_3   0.200776 0.413437 0.187536 -0.284196
H19   H     H_    0.179236 0.334326 0.241686 0.176886
H20   H     H_    0.244123 0.383368 0.152895 0.162664
H21   H     H_    0.175295 0.434081 0.095122 0.194826
O18   O     O_3   0.791785 0.372410 0.282701 -0.577004
C50   C     C_3   0.801480 0.467855 0.185829 -0.261760
H22   H     H_    0.826879 0.548055 0.230005 0.166331
H23   H     H_    0.760625 0.503748 0.143303 0.174428
H24   H     H_    0.826496 0.426033 0.099809 0.192342
O19   O     O_3   0.320403 0.562671 0.266558 -0.625280
C51   C     C_3   0.315491 0.696444 0.267121 -0.215990
H25   H     H_    0.335255 0.739769 0.360160 0.192914
H26   H     H_    0.270152 0.727037 0.258853 0.200610
H27   H     H_    0.338407 0.733199 0.176806 0.177858
O20   O     O_3   0.673270 0.382252 0.276209 -0.565799
C52   C     C_3   0.659684 0.253458 0.298893 -0.193584
H28   H     H_    0.635208 0.216390 0.209839 0.179033
H29   H     H_    0.632211 0.242506 0.390955 0.144064
H30   H     H_    0.699008 0.194658 0.308129 0.180397
H31   H     H_    0.322950 0.424880 0.709073 0.240665
H32   H     H_    0.680339 0.572382 0.702518 0.180301
H33   H     H_    0.219121 0.408886 0.715666 0.173931
H34   H     H_    0.784166 0.553808 0.709812 0.170305
H35   H     H_    0.593554 0.913997 0.418542 0.163997
H36   H     H_    0.409001 0.086796 0.581079 0.165375
O21   O     O_3   0.584556 0.097793 0.665218 -0.619274
C53   C     C_3   0.621342 0.002064 0.712479 -0.335179
H37   H     H_    0.597513 0.922530 0.760090 0.185973
H38   H     H_    0.649662 0.044269 0.791806 0.200661
H39   H     H_    0.648942 0.965144 0.628209 0.179100
O22   O     O_3   0.418025 0.906697 0.332300 -0.632425
C54   C     C_3   0.381836 0.004820 0.287507 -0.390851
H40   H     H_    0.406058 0.087566 0.247731 0.207008
H41   H     H_    0.352685 0.036390 0.371186 0.186664
H42   H     H_    0.355107 0.967322 0.202613 0.186934
H43   H     H_    0.484067 0.929085 0.735117 0.201069
H44   H     H_    0.518668 0.072191 0.264932 0.196002

loop_
_geom_bond_atom_site_label_1
_geom_bond_atom_site_label_2
_ccdc_geom_bond_type
N3    Zn1   S    
C18   C21   S    
N4    Zn2   S    
C46   H8    S    
C36   C42   A    
C50   H22   S    
C25   O13   S    
C24   O6    A    
C33   O11   S    
C18   H36   S    
C50   H24   S    
C17   H35   S    
C29   N3    S    
O15   C47   S    
C52   H29   S    
C28   H2    S    
O7    Zn2   S    
C48   H14   S    
C28   C29   S    
C35   C37   A    
C16   O22   S    
C33   C35   A    
O3    Zn2   S    
C47   H12   S    
C22   H44   S    
O4    Zn1   S    
O21   C53   S    
C34   O12   S    
C26   O14   S    
C53   H37   S    
C23   O7    A    
C31   O9    S    
C1    O3    A    
C25   N4    S    
C54   H42   S    
C8    C24   S    
C28   N4    S    
C40   C43   A    
C5    O19   S    
C53   H38   S    
C45   H5    S    
O5    Zn1   S    
O6    Zn2   S    
C6    O20   S    
C18   C20   S    
C3    C13   A    
C27   H1    S    
C30   N4    S    
C31   N1    A    
C27   C30   S    
C9    H31   S    
C41   C43   A    
C42   C44   A    
C10   C12   A    
O20   C52   S    
C25   C29   S    
C15   C20   S    
C52   H30   S    
C11   H33   S    
O13   C45   S    
O1    Zn1   S    
C4    C6    A    
C2    O4    A    
C26   N3    S    
C5    C7    A    
C47   H11   S    
C6    C8    A    
C51   H27   S    
C30   O16   S    
C37   C38   A    
C1    O1    A    
C49   H20   S    
O19   C51   S    
C51   H26   S    
C45   H7    S    
C9    C11   A    
C54   H40   S    
C39   C44   A    
C2    O2    A    
C4    O18   S    
C24   O8    A    
C48   H15   S    
C12   C14   A    
C26   C30   S    
O2    Zn2   S    
C33   N1    A    
C46   H10   S    
C15   O21   S    
C34   N2    A    
C46   H9    S    
C21   H43   S    
C12   H34   S    
O22   C54   S    
C49   H21   S    
O8    Zn1   S    
C15   C17   S    
C1    C20   S    
C16   C22   S    
C19   C21   S    
C2    C19   S    
C8    C10   A    
C20   C22   S    
O14   C46   S    
C3    C5    A    
C13   N2    S    
C41   H3    S    
C50   H23   S    
C23   O5    A    
C14   N1    S    
C25   C27   S    
C52   H28   S    
C26   C28   S    
C17   C22   S    
C53   H39   S    
C3    O17   S    
C43   H17   S    
C36   C38   A    
C37   C39   A    
C38   C40   A    
C11   C13   A    
C47   H13   S    
C49   H19   S    
C32   N2    A    
C16   C19   S    
C7    C23   S    
C51   H25   S    
C17   C19   S    
C31   C39   A    
C10   H32   S    
C34   C36   A    
C32   C40   A    
C4    C14   A    
O18   C50   S    
C35   C41   A    
C54   H41   S    
C7    C9    A    
C15   C21   S    
C48   H16   S    
C29   O15   S    
C16   C18   S    
O16   C48   S    
C42   H4    S    
C45   H6    S    
C32   O10   S    
O17   C49   S    
C44   H18   S    
C27   N3    S    
