data_mof_unit_34442.cif
_audit_creation_date              2012-12-11T15:41:21-0500
_audit_creation_method            fapswitch 2.2
_symmetry_space_group_name_H-M    P1
_symmetry_Int_Tables_number       1
_space_group_crystal_system       triclinic
_cell_length_a                    14.832587
_cell_length_b                    14.874878
_cell_length_c                    15.052593
_cell_angle_alpha                 109.238884
_cell_angle_beta                  110.112004
_cell_angle_gamma                 109.1018
_cell_volume                      2555.17433052

loop_
_atom_site_label
_atom_site_type_symbol
_atom_type_description
_atom_site_fract_x
_atom_site_fract_y
_atom_site_fract_z
_atom_type_partial_charge
C1    C     C_R   0.253147 0.067997 0.974724 -0.123953
C2    C     C_R   0.806252 0.005911 0.096404 -0.139001
C3    C     C_R   0.774040 0.325833 0.324044 0.044427
C4    C     C_R   0.132371 0.697047 0.696156 0.049953
C5    C     C_R   0.501115 0.945766 0.304721 0.306037
C6    C     C_R   0.500285 0.958894 0.676755 0.284638
C7    C     C_R   0.499643 0.293744 0.920277 0.086212
C8    C     C_R   0.505662 0.674841 0.960925 0.056871
C9    C     C_R   0.212249 0.087024 0.573387 -0.157211
C10   C     C_R   0.841758 0.789936 0.254634 -0.152955
C11   C     C_R   0.308988 0.185197 0.656848 -0.134762
C12   C     C_R   0.736622 0.707762 0.166178 -0.142360
C13   C     C_R   0.304207 0.269743 0.729033 0.014824
C14   C     C_R   0.719500 0.663684 0.059933 -0.003173
C15   C     C_R   0.200577 0.254645 0.715172 -0.224990
C16   C     C_R   0.809533 0.699839 0.043797 -0.208310
C17   C     C_R   0.103216 0.156493 0.631361 0.604035
C18   C     C_R   0.915643 0.780056 0.132421 0.596282
C19   C     C_R   0.109723 0.072380 0.560486 -0.294266
C20   C     C_R   0.931141 0.826050 0.238239 -0.314441
C21   C     C_R   0.413236 0.474351 0.838580 -0.233573
C22   C     C_R   0.605490 0.469327 0.938416 -0.226663
C23   C     C_R   0.748850 0.222971 0.313664 -0.103053
C24   C     C_R   0.196381 0.790708 0.699020 -0.117846
C25   C     C_R   0.511432 0.573252 0.921519 0.062828
C26   C     C_R   0.503563 0.374069 0.882669 0.050612
C27   C     C_R   0.610841 0.569940 0.967654 0.064938
C28   C     C_R   0.407745 0.373250 0.818433 0.066713
C29   C     C_R   0.872821 0.528774 0.426800 -0.161223
C30   C     C_R   0.962999 0.522300 0.619088 -0.161493
C31   C     C_R   0.964841 0.621748 0.520058 -0.160532
C32   C     C_R   0.870791 0.429417 0.525807 -0.147979
C33   C     C_R   0.016875 0.615420 0.613409 0.135205
C34   C     C_R   0.833530 0.429186 0.426533 0.135286
C35   C     C_R   0.525131 0.048180 0.573280 0.295383
C36   C     C_R   0.475641 0.850212 0.405178 0.301945
C37   C     C_R   0.523407 0.044111 0.479166 0.309955
C38   C     C_R   0.477438 0.854180 0.500216 0.313405
C39   C     C_R   0.502433 0.946468 0.399082 -0.190786
C40   C     C_R   0.500374 0.952593 0.580958 -0.186829
C41   C     C_R   0.137001 0.068542 0.162641 -0.118137
C42   C     C_R   0.035456 0.159501 0.056527 -0.160191
C43   C     C_R   0.043835 0.068465 0.163669 -0.137341
C44   C     C_R   0.127570 0.158333 0.054582 -0.160074
C45   C     C_R   0.408447 0.910270 0.210744 -0.129095
C46   C     C_R   0.593068 0.030799 0.778883 -0.068568
C47   C     C_R   0.986175 0.103690 0.100802 0.122223
C48   C     C_R   0.170135 0.100863 0.096391 0.127261
C49   C     C_R   0.591010 0.294474 0.988270 -0.118542
C50   C     C_R   0.410478 0.684156 0.941844 -0.100969
C51   C     C_R   0.592797 0.002730 0.302680 -0.090304
C52   C     C_R   0.407285 0.939364 0.685675 -0.102279
C53   C     C_R   0.408259 0.205802 0.899044 -0.142057
C54   C     C_R   0.594911 0.780042 0.029375 -0.121759
C55   C     C_R   0.747873 0.314506 0.221540 -0.126380
C56   C     C_R   0.196102 0.699021 0.789744 -0.129891
C57   C     C_R   0.251884 0.975434 0.065636 -0.085769
C58   C     C_R   0.804059 0.095449 0.003979 -0.132576
C59   C     C_R   0.227793 0.054314 0.051738 0.042310
C60   C     C_R   0.869760 0.067881 0.066996 0.061690
H1    H     H_    0.244648 0.122224 0.943542 0.098939
H2    H     H_    0.835658 0.983484 0.157461 0.097560
H3    H     H_    0.216784 0.022134 0.518615 0.132813
H4    H     H_    0.854245 0.824446 0.336191 0.131320
H5    H     H_    0.387731 0.195208 0.665484 0.170645
H6    H     H_    0.668511 0.678392 0.180142 0.140340
H7    H     H_    0.195263 0.318412 0.770522 0.138255
H8    H     H_    0.797606 0.663586 0.962477 0.150344
H9    H     H_    0.339662 0.475527 0.792660 0.129917
H10   H     H_    0.681793 0.469329 0.977015 0.130461
H11   H     H_    0.840989 0.533359 0.353139 0.114013
H12   H     H_    0.996890 0.516594 0.691752 0.117944
H13   H     H_    0.000118 0.694351 0.514502 0.110269
H14   H     H_    0.837067 0.355724 0.530194 0.130128
H15   H     H_    0.175233 0.032968 0.204336 0.107601
H16   H     H_    0.997616 0.194224 0.013264 0.116184
H17   H     H_    0.760421 0.201641 0.376912 0.107984
H18   H     H_    0.169025 0.823643 0.647673 0.086534
H19   H     H_    0.012333 0.031724 0.205245 0.114617
H20   H     H_    0.156399 0.191687 0.009655 0.117454
H21   H     H_    0.323782 0.855175 0.183742 0.106822
H22   H     H_    0.678352 0.069457 0.799019 0.101685
H23   H     H_    0.675823 0.341007 0.010278 0.090099
H24   H     H_    0.325322 0.618942 0.891652 0.094141
H25   H     H_    0.677929 0.032399 0.360115 0.090874
H26   H     H_    0.322060 0.893973 0.620492 0.097096
H27   H     H_    0.322736 0.173157 0.841323 0.114775
H28   H     H_    0.680388 0.807789 0.054899 0.126689
H29   H     H_    0.756910 0.377162 0.198802 0.097223
H30   H     H_    0.168393 0.646984 0.821460 0.092928
H31   H     H_    0.240244 0.942909 0.117492 0.104947
H32   H     H_    0.830254 0.155772 0.980120 0.089788
H33   H     H_    0.035631 0.995691 0.495570 0.114039
H34   H     H_    0.012399 0.888723 0.307840 0.119656
N1    N     N_R   0.293810 0.002730 0.945950 -0.043861
N2    N     N_R   0.706190 0.997270 0.054050 -0.042697
N3    N     N_R   0.706160 0.152130 0.208910 -0.045066
N4    N     N_R   0.293840 0.847870 0.791090 -0.041135
N5    N     N_R   0.443140 0.945920 0.152090 -0.055249
N6    N     N_R   0.556860 0.054080 0.847910 -0.053213
N7    N     N_R   0.556830 0.208940 0.002760 -0.042419
N8    N     N_R   0.443170 0.791060 0.997240 -0.042250
N9    N     N_R   0.556790 0.002750 0.208910 -0.055503
N10   N     N_R   0.443210 0.997250 0.791090 -0.054524
N11   N     N_R   0.443180 0.152110 0.945950 -0.042874
N12   N     N_R   0.556820 0.847890 0.054050 -0.046721
N13   N     N_R   0.706170 0.208950 0.152090 -0.042425
N14   N     N_R   0.293830 0.791050 0.847910 -0.040733
N15   N     N_R   0.293800 0.945910 0.002760 -0.045580
N16   N     N_R   0.706200 0.054090 0.997240 -0.042361
Ni1   Ni    Ni4+2 0.369690 0.999990 0.869700 0.220853
Ni2   Ni    Ni4+2 0.630310 0.000010 0.130300 0.218453
Ni3   Ni    Ni4+2 0.369670 0.869670 0.000000 0.227718
Ni4   Ni    Ni4+2 0.630330 0.130330 0.000000 0.220118
O1    O     O_3   0.003531 0.145156 0.621162 -0.773167
H35   H     H_    0.943170 0.071856 0.558346 0.304094
O2    O     O_3   0.002416 0.809841 0.113374 -0.775042
H36   H     H_    0.072221 0.860576 0.184578 0.294470
O3    O     O_3   0.550929 0.143244 0.659068 -0.772296
H37   H     H_    0.602731 0.207421 0.661482 0.328422
O4    O     O_3   0.446677 0.755377 0.317130 -0.752587
H38   H     H_    0.396093 0.691289 0.315729 0.327163
O5    O     O_3   0.537612 0.131608 0.460600 -0.753094
H39   H     H_    0.510721 0.174645 0.498738 0.327136
O6    O     O_3   0.460637 0.766517 0.518568 -0.743397
H40   H     H_    0.482402 0.719730 0.476954 0.329979

loop_
_geom_bond_atom_site_label_1
_geom_bond_atom_site_label_2
_ccdc_geom_bond_type
C54   H28   S    
N7    Ni4   S    
C58   N16   A    
C35   O3    S    
C51   H25   S    
C58   H32   S    
C50   H24   S    
O5    H39   S    
N12   Ni2   S    
N2    Ni2   S    
C7    C26   S    
C24   N4    A    
C35   C37   A    
C1    C59   A    
C49   N7    A    
C4    C24   A    
C2    C60   A    
C31   H13   S    
C58   C60   A    
O1    H35   S    
N6    N10   A    
N4    N14   A    
C56   N14   A    
C21   C25   A    
C47   C60   S    
C46   H22   S    
C3    C55   A    
C9    C19   A    
C57   N15   A    
C10   C20   A    
C31   C33   A    
C13   C28   S    
N8    N12   A    
C16   H8    S    
C14   C27   S    
C6    C46   A    
N16   Ni4   S    
C18   C20   A    
C19   H33   S    
N15   Ni3   S    
C56   H30   S    
N11   Ni1   S    
C38   C40   A    
C37   O5    S    
C4    C56   A    
C8    C25   S    
C41   C43   A    
C42   C44   A    
C52   H26   S    
N7    N11   A    
C45   H21   S    
C54   N12   A    
C44   H20   S    
N6    Ni4   S    
C7    C49   A    
N5    N9    A    
C45   N5    A    
C51   N9    A    
C8    C54   A    
N3    Ni2   S    
C3    C34   S    
C3    C23   A    
C12   H6    S    
C29   C34   A    
C21   H9    S    
N9    Ni2   S    
C32   C34   A    
N14   Ni3   S    
N13   Ni4   S    
C41   H15   S    
C46   N6    A    
C1    N1    A    
C15   H7    S    
C53   H27   S    
C16   C18   A    
C23   H17   S    
C44   C48   A    
C9    C11   A    
C18   O2    S    
O4    H38   S    
C10   C12   A    
C24   H18   S    
C23   N3    A    
C21   C28   A    
C12   C14   A    
C50   N8    A    
C22   C27   A    
C13   C15   A    
N1    N15   A    
O6    H40   S    
C14   C16   A    
C7    C53   A    
C8    C50   A    
C38   O6    S    
C17   O1    S    
C48   C59   S    
C15   C17   A    
C5    C39   S    
C20   H34   S    
C4    C33   S    
C52   N10   A    
C32   H14   S    
N4    Ni1   S    
C57   H31   S    
C30   C33   A    
C9    H3    S    
C26   C28   A    
C36   C39   A    
C10   H4    S    
C43   C47   A    
C1    H1    S    
N5    Ni3   S    
N10   Ni1   S    
C30   H12   S    
O3    H37   S    
C25   C27   A    
C42   H16   S    
C49   H23   S    
C36   C38   A    
C35   C40   A    
C37   C39   A    
N8    Ni3   S    
N1    Ni1   S    
O2    H36   S    
C30   C32   A    
C11   C13   A    
C5    C45   A    
C2    N2    A    
C17   C19   A    
C41   C48   A    
C36   O4    S    
C6    C40   S    
C42   C47   A    
C55   H29   S    
C57   C59   A    
N3    N13   A    
C53   N11   A    
C29   C31   A    
C22   C26   A    
C55   N13   A    
N2    N16   A    
C5    C51   A    
C6    C52   A    
C43   H19   S    
C22   H10   S    
C11   H5    S    
C2    H2    S    
C29   H11   S    
