data_mof_unit_21521.cif
_audit_creation_date              2013-03-05T15:39:51-0500
_audit_creation_method            fapswitch 2.2
_symmetry_space_group_name_H-M    P1
_symmetry_Int_Tables_number       1
_space_group_crystal_system       triclinic
_cell_length_a                    16.923828
_cell_length_b                    16.888312
_cell_length_c                    16.84806
_cell_angle_alpha                 64.440962
_cell_angle_beta                  65.307902
_cell_angle_gamma                 65.512816
_cell_volume                      3782.3528025

loop_
_atom_site_label
_atom_site_type_symbol
_atom_site_description
_atom_site_fract_x
_atom_site_fract_y
_atom_site_fract_z
_atom_type_partial_charge
O1    O     O_R   0.982940 0.138950 0.510160 -0.567164
O2    O     O_R   0.017060 0.861050 0.489840 -0.559893
O3    O     O_R   0.138950 0.510160 0.982940 -0.566197
O4    O     O_R   0.861050 0.489840 0.017060 -0.556320
O5    O     O_R   0.510160 0.982940 0.138950 -0.567313
O6    O     O_R   0.489840 0.017060 0.861050 -0.562697
O7    O     O_R   0.489840 0.861050 0.017060 -0.562027
O8    O     O_R   0.510160 0.138950 0.982940 -0.563829
O9    O     O_R   0.017060 0.489840 0.861050 -0.565685
O10   O     O_R   0.982940 0.510160 0.138950 -0.555366
O11   O     O_R   0.861050 0.017060 0.489840 -0.561971
O12   O     O_R   0.138950 0.982940 0.510160 -0.552398
C1    C     C_R   0.586313 0.021881 0.605567 -0.046028
C2    C     C_R   0.396718 0.015480 0.392885 -0.066704
C3    C     C_R   0.033505 0.579164 0.600510 -0.049056
C4    C     C_R   0.987435 0.384890 0.414644 -0.043864
C5    C     C_R   0.606436 0.611124 0.972608 -0.070921
C6    C     C_R   0.395650 0.409184 0.989314 -0.047452
O13   O     O_R   0.867700 0.025880 0.612340 -0.592678
O14   O     O_R   0.132300 0.974120 0.387660 -0.592232
O15   O     O_R   0.025880 0.612340 0.867700 -0.605771
O16   O     O_R   0.974120 0.387660 0.132300 -0.611176
O17   O     O_R   0.612340 0.867700 0.025880 -0.602471
O18   O     O_R   0.387660 0.132300 0.974120 -0.609613
O19   O     O_R   0.387660 0.974120 0.132300 -0.593267
O20   O     O_R   0.612340 0.025880 0.867700 -0.594275
O21   O     O_R   0.132300 0.387660 0.974120 -0.607575
O22   O     O_R   0.867700 0.612340 0.025880 -0.605698
O23   O     O_R   0.974120 0.132300 0.387660 -0.605092
O24   O     O_R   0.025880 0.867700 0.612340 -0.607343
C7    C     C_R   0.956876 0.178934 0.439809 0.934452
C8    C     C_R   0.029353 0.820666 0.566854 0.959092
C9    C     C_R   0.179468 0.437789 0.962244 0.933802
C10   C     C_R   0.821823 0.566495 0.026426 0.995458
C11   C     C_R   0.436648 0.965592 0.179545 0.941984
C12   C     C_R   0.560098 0.043065 0.820776 0.948329
C13   C     C_R   0.566231 0.821865 0.027594 0.975816
C14   C     C_R   0.431059 0.177111 0.977414 0.954706
C15   C     C_R   0.043088 0.560071 0.820931 0.931884
C16   C     C_R   0.974565 0.430971 0.178194 0.998186
C17   C     C_R   0.822156 0.025301 0.568717 0.936215
C18   C     C_R   0.177303 0.974539 0.432490 0.983163
Zn1   Zn    Zn3+2 0.004880 0.004880 0.583590 1.227657
Zn2   Zn    Zn3+2 0.995120 0.995120 0.416410 1.227048
Zn3   Zn    Zn3+2 0.004880 0.583590 0.004880 1.210045
Zn4   Zn    Zn3+2 0.995120 0.416410 0.995120 1.216176
Zn5   Zn    Zn3+2 0.583590 0.004880 0.004880 1.232046
Zn6   Zn    Zn3+2 0.416410 0.995120 0.995120 1.227202
C19   C     C_R   0.535745 0.004451 0.560579 -0.092534
C20   C     C_R   0.438532 0.043629 0.438886 -0.106075
C21   C     C_R   0.011871 0.525146 0.562029 -0.097100
C22   C     C_R   0.017850 0.419382 0.464570 -0.092651
C23   C     C_R   0.559321 0.569570 0.945452 -0.099620
C24   C     C_R   0.444325 0.458455 0.003437 -0.092817
C25   C     C_R   0.578572 0.987003 0.475584 0.243998
C26   C     C_R   0.392564 0.057578 0.526062 0.275319
C27   C     C_R   0.004707 0.433689 0.609420 0.263634
C28   C     C_R   0.039961 0.502591 0.421889 0.261568
C29   C     C_R   0.466022 0.608498 0.950354 0.264524
C30   C     C_R   0.536205 0.420489 0.002145 0.248977
C31   C     C_R   0.531911 0.034533 0.409256 0.255421
C32   C     C_R   0.440317 0.023405 0.590578 0.229298
C33   C     C_R   0.408110 0.552344 0.994526 0.221151
C34   C     C_R   0.593852 0.476785 0.949375 0.252909
C35   C     C_R   0.013246 0.379161 0.559574 0.270028
C36   C     C_R   0.000303 0.562081 0.473893 0.254638
C37   C     C_R   0.539354 0.068513 0.672466 0.249391
C38   C     C_R   0.448407 0.981987 0.315955 0.267464
C39   C     C_R   0.023109 0.675421 0.561251 0.250715
C40   C     C_R   0.932945 0.323624 0.463467 0.251059
C41   C     C_R   0.693574 0.566046 0.986581 0.246808
C42   C     C_R   0.324352 0.458788 0.946849 0.259875
C43   C     C_R   0.303751 0.018191 0.426512 0.244383
C44   C     C_R   0.682692 0.999032 0.578584 0.231385
C45   C     C_R   0.423649 0.312548 0.009323 0.236171
C46   C     C_R   0.565606 0.698449 0.984400 0.235727
C47   C     C_R   0.006737 0.415583 0.316967 0.233182
C48   C     C_R   0.070972 0.533372 0.675195 0.251424
C49   C     C_R   0.588654 0.071227 0.720683 -0.221736
C50   C     C_R   0.405536 0.955845 0.276953 -0.233464
C51   C     C_R   0.046838 0.721120 0.599641 -0.277647
C52   C     C_R   0.923749 0.278946 0.414834 -0.226406
C53   C     C_R   0.726374 0.599223 0.029622 -0.264096
C54   C     C_R   0.278711 0.409768 0.939368 -0.228993
C55   C     C_R   0.270527 0.974920 0.395092 -0.279495
C56   C     C_R   0.725757 0.034746 0.607314 -0.288198
C57   C     C_R   0.394218 0.273243 0.970391 -0.279368
C58   C     C_R   0.599759 0.727400 0.029355 -0.268574
C59   C     C_R   0.963836 0.392348 0.275880 -0.288640
C60   C     C_R   0.074651 0.585313 0.720589 -0.235809
C61   C     C_R   0.676040 0.075434 0.676553 0.179554
C62   C     C_R   0.324817 0.936489 0.326118 0.167713
C63   C     C_R   0.085514 0.671264 0.671209 0.164531
C64   C     C_R   0.915169 0.328128 0.328157 0.177950
C65   C     C_R   0.669219 0.668286 0.067866 0.166484
C66   C     C_R   0.328198 0.326572 0.925421 0.166773
Br1   Br    Br    0.375314 0.981495 0.718248 -0.178720
Br2   Br    Br    0.562814 0.145297 0.327298 -0.157512
Br3   Br    Br    0.876851 0.627735 0.472865 -0.172803
Br4   Br    Br    0.036565 0.248456 0.617899 -0.183631
Br5   Br    Br    0.671114 0.453405 0.835711 -0.155895
Br6   Br    Br    0.283530 0.602492 0.056292 -0.176013
Br7   Br    Br    0.310006 0.177486 0.527062 -0.132288
Br8   Br    Br    0.625164 0.858833 0.487928 -0.164642
Br9   Br    Br    0.552177 0.359447 0.122595 -0.182843
Br10  Br    Br    0.437464 0.701234 0.840835 -0.135187
Br11  Br    Br    0.167772 0.488818 0.365506 -0.175446
Br12  Br    Br    0.953262 0.392584 0.740801 -0.175391
N1    N     N_R   0.452964 0.135782 0.670887 0.246317
O25   O     O_R   0.444650 0.201212 0.594524 -0.264846
O26   O     O_R   0.389484 0.143179 0.747009 -0.241184
N2    N     N_R   0.544561 0.968748 0.279787 0.223858
O27   O     O_R   0.576203 0.036553 0.218354 -0.256457
O28   O     O_R   0.598673 0.885749 0.290362 -0.262471
N3    N     N_R   0.003914 0.723470 0.474603 0.228035
O29   O     O_R   0.070410 0.722143 0.399075 -0.283964
O30   O     O_R   0.924949 0.781633 0.470241 -0.240533
N4    N     N_R   0.870618 0.322502 0.553604 0.249485
O31   O     O_R   0.839784 0.252125 0.606558 -0.259873
O32   O     O_R   0.830750 0.397933 0.575272 -0.286200
N5    N     N_R   0.753080 0.495034 0.946360 0.233531
O33   O     O_R   0.764326 0.409548 0.997135 -0.277285
O34   O     O_R   0.808269 0.516311 0.864051 -0.324347
N6    N     N_R   0.321994 0.549015 0.882803 0.235093
O35   O     O_R   0.247751 0.616228 0.889284 -0.246365
O36   O     O_R   0.389166 0.559361 0.807870 -0.270912
N7    N     N_R   0.240767 0.068594 0.488721 0.233632
O37   O     O_R   0.223338 0.026837 0.577045 -0.290132
O38   O     O_R   0.184524 0.146633 0.457918 -0.343522
N8    N     N_R   0.737099 0.933053 0.531013 0.234520
O39   O     O_R   0.761510 0.847247 0.578546 -0.299829
O40   O     O_R   0.769934 0.958798 0.441808 -0.268950
N9    N     N_R   0.480649 0.254563 0.068029 0.238080
O41   O     O_R   0.568143 0.226599 0.032817 -0.270221
O42   O     O_R   0.443847 0.217122 0.154750 -0.316467
N10   N     N_R   0.496421 0.762159 0.941376 0.233698
O43   O     O_R   0.518957 0.821219 0.860876 -0.331586
O44   O     O_R   0.411473 0.775394 0.990378 -0.289697
N11   N     N_R   0.068486 0.469701 0.258928 0.231134
O45   O     O_R   0.038006 0.558625 0.236618 -0.286201
O46   O     O_R   0.148396 0.432274 0.211405 -0.340411
N12   N     N_R   0.128362 0.440447 0.686591 0.249728
O47   O     O_R   0.123555 0.379357 0.767338 -0.250149
O48   O     O_R   0.187853 0.416977 0.614948 -0.264767
N13   N     N_R   0.711687 0.121044 0.703289 0.254790
O49   O     O_R   0.765174 0.073421 0.755626 -0.304566
O50   O     O_R   0.670467 0.206720 0.698000 -0.252437
N14   N     N_R   0.299484 0.877049 0.306097 0.237560
O51   O     O_R   0.247249 0.910740 0.253450 -0.305437
O52   O     O_R   0.341783 0.789892 0.327144 -0.272295
N15   N     N_R   0.146456 0.701107 0.684828 0.259948
O53   O     O_R   0.177519 0.654798 0.755570 -0.279454
O54   O     O_R   0.190653 0.756208 0.615723 -0.314125
N16   N     N_R   0.852479 0.317919 0.297830 0.256667
O55   O     O_R   0.807171 0.389251 0.245691 -0.298289
O56   O     O_R   0.823317 0.245722 0.339755 -0.313516
N17   N     N_R   0.680592 0.677287 0.144267 0.255506
O57   O     O_R   0.618311 0.735138 0.186622 -0.303031
O58   O     O_R   0.738723 0.612977 0.186869 -0.296352
N18   N     N_R   0.326823 0.307593 0.850540 0.270430
O59   O     O_R   0.261586 0.356700 0.812835 -0.271255
O60   O     O_R   0.402190 0.264299 0.802445 -0.294531

loop_
_geom_bond_atom_site_label_1
_geom_bond_atom_site_label_2
_geom_bond_distance
_ccdc_geom_bond_type
C38   C50   1.437807 A    
C6    C45   1.421024 A    
C52   C64   1.368980 A    
C62   N14   1.440507 S    
C13   C58   1.445964 S    
C31   Br2   1.912655 S    
O1    C7    1.246871 A    
N4    O32   1.301671 A    
N2    O28   1.300715 A    
N13   O49   1.301988 A    
C23   C29   1.417593 A    
C24   C30   1.409515 A    
O21   C9    1.294063 A    
C17   C56   1.448215 S    
O5    Zn5   2.024390 S    
C47   C59   1.432065 A    
N17   O57   1.301635 A    
C7    C52   1.463916 S    
O6    Zn6   2.024391 S    
O10   C16   1.249652 A    
N14   O52   1.301145 A    
C28   Br11  1.921486 S    
O12   Zn1   2.041919 S    
C56   C61   1.390427 A    
C48   N12   1.440590 S    
C54   C66   1.369580 A    
C23   C34   1.408925 A    
C3    C48   1.415580 A    
C24   C33   1.406493 A    
O3    C9    1.248536 A    
N3    O29   1.301341 A    
C25   C31   1.398060 A    
C11   C50   1.454117 S    
O9    C15   1.245112 A    
O2    C8    1.239496 A    
C4    C47   1.427861 A    
C38   N2    1.434184 S    
C59   C64   1.393034 A    
C22   C35   1.425126 A    
N4    O31   1.300421 A    
O12   C18   1.236152 A    
O14   Zn2   2.067951 S    
O1    Zn1   2.016148 S    
O2    Zn2   2.016148 S    
N3    O30   1.299139 A    
C5    C46   1.408989 A    
O18   C14   1.283101 A    
N15   O53   1.298807 A    
C21   C27   1.431118 A    
C3    C21   1.540183 S    
C16   C59   1.445448 S    
C46   C58   1.437476 A    
C15   C60   1.462030 S    
C49   C61   1.366705 A    
C58   C65   1.380216 A    
C53   C65   1.379756 A    
O9    Zn4   2.010446 S    
N17   O58   1.301599 A    
C42   N6    1.433403 S    
O8    C14   1.246296 A    
C33   Br6   1.921618 S    
N2    O27   1.300727 A    
N13   O50   1.300808 A    
C55   C62   1.371231 A    
O13   Zn1   2.067951 S    
C41   C53   1.446595 A    
C6    C42   1.426799 A    
C34   Br5   1.914514 S    
C3    C39   1.429485 A    
O4    C10   1.232004 A    
O22   Zn3   2.068408 S    
C29   Br10  1.927474 S    
O17   Zn5   2.057008 S    
O18   Zn6   2.057010 S    
C2    C43   1.420023 A    
C4    C22   1.531318 S    
C37   C49   1.410063 A    
N14   O51   1.301785 A    
C26   Br7   1.928091 S    
N10   O44   1.303677 A    
O4    Zn4   2.045729 S    
O17   C13   1.292906 A    
C25   Br8   1.919393 S    
O3    Zn3   2.045729 S    
C48   C60   1.422045 A    
O15   Zn3   2.047495 S    
C21   C36   1.405281 A    
N18   O60   1.301037 A    
C36   Br3   1.920428 S    
C50   C62   1.360262 A    
N8    O40   1.302026 A    
N7    O38   1.301890 A    
C8    C51   1.463499 S    
C32   Br1   1.921650 S    
C51   C63   1.384838 A    
O15   C15   1.296246 A    
C64   N16   1.448108 S    
O16   C16   1.276890 A    
C57   C66   1.384863 A    
O10   Zn3   2.010446 S    
C45   N9    1.430423 S    
O7    C13   1.233669 A    
C4    C40   1.421415 A    
O11   Zn2   2.041919 S    
C18   C55   1.435473 S    
C44   C56   1.428402 A    
O19   Zn6   2.049502 S    
C43   C55   1.432994 A    
N16   O55   1.301827 A    
C42   C54   1.413997 A    
C22   C28   1.403939 A    
O20   Zn5   2.049502 S    
O19   C11   1.301978 A    
C1    C19   1.528673 S    
O21   Zn4   2.068409 S    
C45   C57   1.428878 A    
C66   N18   1.440339 S    
C5    C41   1.419319 A    
C44   N8    1.426645 S    
O23   Zn2   2.054547 S    
N9    O41   1.302184 A    
C26   C32   1.404891 A    
O24   Zn1   2.054549 S    
C63   N15   1.448719 S    
C10   C53   1.459679 S    
N7    O37   1.303420 A    
C5    C23   1.543802 S    
C61   N13   1.439383 S    
C60   C63   1.372730 A    
C28   C36   1.391687 A    
C1    C37   1.421580 A    
O20   C12   1.290044 A    
C39   N3    1.432016 S    
C19   C32   1.412531 A    
O16   Zn4   2.047495 S    
C65   N17   1.455022 S    
N16   O56   1.301372 A    
C41   N5    1.428816 S    
C47   N11   1.431919 S    
C35   Br4   1.929776 S    
C27   C35   1.424711 A    
N10   O43   1.302190 A    
C12   C49   1.456430 S    
O14   C18   1.280738 A    
N11   O45   1.302085 A    
N5    O33   1.301886 A    
C29   C33   1.402107 A    
C14   C57   1.447504 S    
C30   C34   1.400376 A    
N18   O59   1.297150 A    
N6    O36   1.300748 A    
N1    O26   1.300170 A    
N8    O39   1.300282 A    
O8    Zn5   2.033884 S    
O23   C7    1.292179 A    
C43   N7    1.429544 S    
N1    O25   1.300669 A    
O7    Zn6   2.033885 S    
O24   C8    1.292531 A    
N11   O46   1.301130 A    
C37   N1    1.434713 S    
C2    C20   1.543528 S    
C40   N4    1.439662 S    
O5    C11   1.232776 A    
O6    C12   1.252506 A    
O11   C17   1.253594 A    
N12   O48   1.301694 A    
N15   O54   1.302126 A    
C19   C25   1.408075 A    
C40   C52   1.415018 A    
C9    C54   1.466655 S    
C20   C26   1.417714 A    
N5    O34   1.300258 A    
C39   C51   1.442197 A    
C6    C24   1.526582 S    
O22   C10   1.299455 A    
C46   N10   1.430326 S    
C27   Br12  1.924729 S    
C1    C44   1.423430 A    
N9    O42   1.300573 A    
C20   C31   1.405710 A    
C2    C38   1.428371 A    
N12   O47   1.299148 A    
C30   Br9   1.917344 S    
O13   C17   1.272840 A    
N6    O35   1.299666 A    
