data_mof_unit_67856.cif
_audit_creation_date              2013-03-05T15:41:50-0500
_audit_creation_method            fapswitch 2.2
_symmetry_space_group_name_H-M    P1
_symmetry_Int_Tables_number       1
_space_group_crystal_system       triclinic
_cell_length_a                    7.856788
_cell_length_b                    8.720321
_cell_length_c                    10.527503
_cell_angle_alpha                 92.310473
_cell_angle_beta                  85.093839
_cell_angle_gamma                 93.762259
_cell_volume                      716.649929212

loop_
_atom_site_label
_atom_site_type_symbol
_atom_site_description
_atom_site_fract_x
_atom_site_fract_y
_atom_site_fract_z
_atom_type_partial_charge
O1    O     O_R   0.389250 0.738570 0.508410 -0.624479
O2    O     O_R   0.610750 0.261430 0.491590 -0.624480
O3    O     O_R   0.678390 0.711620 0.486450 -0.600573
O4    O     O_R   0.321610 0.288380 0.513550 -0.600578
C1    C     C_R   0.544890 0.793588 0.495970 0.909793
C2    C     C_R   0.455110 0.206412 0.504030 0.909791
O5    O     O_R   0.355460 0.513510 0.697030 -0.599979
O6    O     O_R   0.644540 0.486490 0.302970 -0.599974
O7    O     O_R   0.644600 0.486560 0.675070 -0.649926
O8    O     O_R   0.355400 0.513440 0.324930 -0.649927
C3    C     C_R   0.500375 0.495749 0.741559 0.931133
C4    C     C_R   0.499625 0.504251 0.258441 0.931133
Zn1   Zn    Zn3+2 0.306940 0.517990 0.514670 1.016169
Zn2   Zn    Zn3+2 0.693060 0.482010 0.485330 1.016171
N1    N     N_2   0.950320 0.457950 0.465730 -0.161886
N2    N     N_2   0.049680 0.542050 0.534270 -0.161887
C5    C     C_3   0.451923 0.633090 0.961045 -0.108989
C6    C     C_3   0.548077 0.366912 0.038955 -0.108988
C7    C     C_3   0.609084 0.615873 0.035826 -0.093352
C8    C     C_3   0.390916 0.384129 0.964174 -0.093358
C9    C     C_3   0.497943 0.506341 0.124137 -0.134301
C10   C     C_3   0.502057 0.493660 0.875863 -0.134302
C11   C     C_3   0.340912 0.524023 0.049756 -0.065781
C12   C     C_3   0.659089 0.475979 0.950244 -0.065778
C13   C     C_2   0.568102 0.955932 0.503566 -0.399456
C14   C     C_2   0.431897 0.044068 0.496436 -0.399458
C15   C     C_2   0.729087 0.747951 0.072394 0.928936
O9    O     O_2   0.813626 0.819762 0.989024 -0.586545
O10   O     O_R   0.743984 0.788476 0.200772 -0.780227
H1    H     H_    0.832502 0.876600 0.212647 0.394736
C16   C     C_2   0.270912 0.252051 0.927605 0.928947
O11   O     O_2   0.186356 0.180255 0.010976 -0.586549
O12   O     O_R   0.256029 0.211515 0.799228 -0.780233
H2    H     H_    0.167506 0.123394 0.787353 0.394737
C17   C     C_1   0.400042 0.777758 0.913904 0.231478
N3    N     N_1   0.359586 0.891368 0.876049 -0.157885
C18   C     C_1   0.599956 0.222243 0.086097 0.231478
N4    N     N_1   0.640409 0.108632 0.123953 -0.157886
C19   C     C_1   0.168078 0.553555 0.105299 0.264883
N5    N     N_1   0.032179 0.576699 0.149800 -0.159590
C20   C     C_1   0.831922 0.446446 0.894701 0.264883
N6    N     N_1   0.967821 0.423301 0.850199 -0.159593
C21   C     C_1   0.026635 0.351770 0.381547 0.479852
N7    N     N_1   0.088628 0.262771 0.310477 -0.151165
C22   C     C_1   0.973365 0.648230 0.618453 0.479857
N8    N     N_1   0.911372 0.737229 0.689523 -0.151164
C23   C     C_2   0.743735 0.015174 0.530122 1.073910
O13   O     O_2   0.857319 0.013500 0.443791 -0.533199
O14   O     O_R   0.779645 0.075062 0.650800 -0.731439
H3    H     H_    0.675180 0.070606 0.714406 0.307885
C24   C     C_2   0.256264 0.984825 0.469881 1.073918
O15   O     O_2   0.142684 0.986489 0.556215 -0.533203
O16   O     O_R   0.220349 0.924949 0.349201 -0.731441
H4    H     H_    0.324810 0.929415 0.285592 0.307880

loop_
_geom_bond_atom_site_label_1
_geom_bond_atom_site_label_2
_geom_bond_distance
_ccdc_geom_bond_type
N2    C22   1.384941 S    
C24   O16   1.398153 S    
O7    Zn2   2.000501 S    
C16   O12   1.395804 S    
C18   N4    1.155939 T    
C6    C12   1.536526 S    
C15   O10   1.395797 S    
C6    C9    1.533685 S    
C7    C15   1.499180 S    
C20   N6    1.155579 T    
C13   C23   1.486602 S    
C3    C10   1.415942 S    
C14   C24   1.486605 S    
C5    C10   1.533685 S    
C8    C11   1.538839 S    
O6    C4    1.288549 A    
C21   N7    1.157499 T    
O12   H2    1.013337 S    
C2    C14   1.415391 S    
N1    C21   1.384941 S    
C23   O14   1.398154 S    
C5    C11   1.536525 S    
O16   H4    1.013624 S    
O5    C3    1.288550 A    
C12   C20   1.466323 S    
O7    C3    1.285345 A    
O2    C2    1.281922 A    
O3    Zn2   2.012628 S    
O8    C4    1.285344 A    
O1    C1    1.281922 A    
C10   C12   1.535925 S    
C7    C9    1.537016 S    
C6    C18   1.468512 S    
C8    C10   1.537015 S    
C7    C12   1.538840 S    
C6    C8    1.538547 S    
C9    C11   1.535924 S    
O2    Zn2   1.990528 S    
C1    C13   1.415390 S    
O1    Zn1   1.990528 S    
N1    N2    1.283141 D    
O10   H1    1.013333 S    
C24   O15   1.218401 D    
C23   O13   1.218404 D    
O3    C1    1.302212 A    
O5    Zn1   1.991394 S    
C8    C16   1.499181 S    
O4    C2    1.302211 A    
O14   H3    1.013627 S    
Zn1   N2    2.037847 S    
C19   N5    1.155579 T    
Zn2   N1    2.037847 S    
O6    Zn2   1.991392 S    
C17   N3    1.155940 T    
C5    C17   1.468513 S    
C5    C7    1.538548 S    
C13   C14   1.366691 D    
C22   N8    1.157500 T    
C4    C9    1.415942 S    
C11   C19   1.466323 S    
C16   O11   1.222141 D    
O4    Zn1   2.012628 S    
C15   O9    1.222150 D    
O8    Zn1   2.000501 S    
