data_mof_unit_20285.cif
_audit_creation_date              2012-12-11T16:17:41-0500
_audit_creation_method            fapswitch 2.2
_symmetry_space_group_name_H-M    P1
_symmetry_Int_Tables_number       1
_space_group_crystal_system       triclinic
_cell_length_a                    6.920439
_cell_length_b                    28.807211
_cell_length_c                    32.03967
_cell_angle_alpha                 101.180286
_cell_angle_beta                  89.530391
_cell_angle_gamma                 90.761724
_cell_volume                      6265.5053203

loop_
_atom_site_label
_atom_site_type_symbol
_atom_type_description
_atom_site_fract_x
_atom_site_fract_y
_atom_site_fract_z
_atom_type_partial_charge
O1    O     O_R   0.494350 0.453160 0.452490 -0.544485
O2    O     O_R   0.820990 0.455850 0.538220 -0.524285
O3    O     O_R   0.994300 0.546840 0.547510 -0.540089
C1    C     C_R   0.650974 0.446423 0.551965 0.757432
O4    O     O_R   0.823860 0.447580 0.452250 -0.543461
O5    O     O_R   0.997190 0.538510 0.460920 -0.535261
C2    C     C_R   0.654691 0.434505 0.436435 0.695466
O6    O     O_R   0.491450 0.461490 0.539080 -0.533516
O7    O     O_3   0.661790 0.529840 0.502950 -0.374658
V1    V     V_3+5 0.935470 0.494460 0.499450 1.475968
O8    O     O_R   0.327090 0.544150 0.461780 -0.533086
C3    C     C_R   0.159640 0.553332 0.447494 0.702152
O9    O     O_R   0.324210 0.552420 0.547750 -0.546729
C4    C     C_R   0.155545 0.565500 0.563615 0.770919
V2    V     V_3+5 0.435840 0.505540 0.500550 1.462479
O10   O     O_3   0.159650 0.470160 0.497050 -0.364565
C5    C     C_R   0.998855 0.603536 0.633399 0.329394
C6    C     C_R   0.990665 0.639335 0.669822 -0.113600
H1    H     H_    0.878620 0.637222 0.693206 0.184198
C7    C     C_R   0.122210 0.677507 0.675991 -0.129112
C8    C     C_R   0.265785 0.678737 0.645019 -0.119275
H2    H     H_    0.369089 0.707809 0.648843 0.175809
C9    C     C_R   0.281368 0.642382 0.609053 0.302015
C10   C     C_R   0.145788 0.604145 0.602303 -0.213303
N1    N     N_R   0.239881 0.752053 0.721731 -0.270098
N2    N     N_R   0.228226 0.785986 0.756498 -0.269131
C11   C     C_R   0.085571 0.785088 0.785788 0.564790
N3    N     N_R   0.955256 0.748739 0.778666 -0.257116
N4    N     N_R   0.966923 0.714846 0.743954 -0.260398
C12   C     C_R   0.109474 0.715672 0.714676 0.570956
C13   C     C_R   0.925174 0.820958 0.855057 -0.166071
H3    H     H_    0.821583 0.791979 0.849711 0.198995
C14   C     C_R   0.910777 0.855683 0.892413 0.437416
C15   C     C_R   0.044725 0.894242 0.899506 -0.212775
C16   C     C_R   0.192072 0.895623 0.869204 -0.109114
H4    H     H_    0.296319 0.924535 0.873638 0.184583
C17   C     C_R   0.205930 0.860434 0.832515 -0.085965
H5    H     H_    0.321422 0.862977 0.810039 0.163000
C18   C     C_R   0.072098 0.822746 0.824839 -0.069479
C19   C     C_R   0.959060 0.673564 0.299627 0.632963
N5    N     N_R   0.117178 0.676982 0.325755 -0.547952
C20   C     C_R   0.264275 0.708536 0.322317 0.589102
C21   C     C_R   0.256283 0.737747 0.291777 -0.013314
C22   C     C_R   0.095297 0.734360 0.264629 -0.013781
C23   C     C_R   0.945160 0.702186 0.268697 -0.112404
C24   C     C_R   0.405290 0.770232 0.287834 -0.146856
C25   C     C_R   0.394109 0.799125 0.257648 -0.093090
C26   C     C_R   0.234078 0.796157 0.230412 0.022487
C27   C     C_R   0.084439 0.763311 0.233528 -0.052701
C28   C     C_R   0.924434 0.759481 0.205809 -0.130889
C29   C     C_R   0.777065 0.725403 0.209337 0.361122
C30   C     C_R   0.786424 0.698535 0.241262 -0.133859
C31   C     C_R   0.220226 0.825616 0.200317 0.596834
N6    N     N_R   0.063825 0.822379 0.173755 -0.555681
C32   C     C_R   0.916534 0.790465 0.176314 0.605241
O11   O     O_2   0.816849 0.641977 0.302962 -0.509913
O12   O     O_2   0.417324 0.712028 0.348599 -0.517540
H6    H     H_    0.531299 0.773480 0.308070 0.165577
H7    H     H_    0.511993 0.823725 0.255664 0.161013
O13   O     O_2   0.361052 0.857959 0.198263 -0.527172
O14   O     O_2   0.762765 0.788999 0.150527 -0.505663
H8    H     H_    0.670032 0.673620 0.243597 0.191101
C33   C     C_R   0.893237 0.881978 0.141173 -0.074811
H9    H     H_    0.774830 0.882025 0.163483 0.168996
C34   C     C_R   0.884013 0.911275 0.111061 -0.206848
H10   H     H_    0.757899 0.933054 0.110653 0.129781
C35   C     C_R   0.038242 0.913437 0.082615 -0.041821
C36   C     C_R   0.200197 0.884924 0.084402 -0.174278
H11   H     H_    0.320745 0.885570 0.062727 0.140879
C37   C     C_R   0.206949 0.854629 0.113693 -0.069108
H12   H     H_    0.331759 0.832378 0.113815 0.168291
C38   C     C_R   0.054359 0.853047 0.142730 0.344510
C39   C     C_R   0.988035 0.646745 0.387974 -0.067589
H13   H     H_    0.868460 0.670979 0.390114 0.166501
C40   C     C_R   0.998646 0.616169 0.416902 -0.204646
H14   H     H_    0.886927 0.617818 0.441013 0.162248
C41   C     C_R   0.152428 0.584337 0.415304 -0.158098
C42   C     C_R   0.295723 0.583178 0.382927 0.324322
C43   C     C_R   0.284565 0.614668 0.354649 -0.062129
H15   H     H_    0.393488 0.613358 0.329978 0.181262
C44   C     C_R   0.130746 0.646312 0.356549 0.268943
C45   C     C_R   0.577360 0.224933 0.838924 0.667771
N7    N     N_R   0.570810 0.176744 0.825040 -0.558747
C46   C     C_R   0.576900 0.157408 0.782490 0.623790
C47   C     C_R   0.595973 0.186399 0.752153 -0.096493
C48   C     C_R   0.594371 0.235938 0.765438 -0.061111
C49   C     C_R   0.581416 0.256282 0.809473 -0.158668
C50   C     C_R   0.617022 0.166536 0.708773 -0.102609
C51   C     C_R   0.635533 0.194860 0.678184 0.400047
C52   C     C_R   0.636035 0.244920 0.690988 -0.140596
C53   C     C_R   0.610029 0.265004 0.734451 -0.050129
C54   C     C_R   0.614737 0.314322 0.747112 -0.109058
C55   C     C_R   0.600067 0.334579 0.790408 -0.162940
C56   C     C_R   0.578628 0.306789 0.821672 0.446574
C57   C     C_R   0.669823 0.275887 0.662279 0.712382
N8    N     N_R   0.621711 0.322958 0.673144 -0.534324
C58   C     C_R   0.632523 0.342734 0.715966 0.640859
O15   O     O_2   0.587042 0.241896 0.881031 -0.447137
O16   O     O_2   0.564199 0.110021 0.769442 -0.492427
H16   H     H_    0.617106 0.128466 0.698102 0.200116
O17   O     O_2   0.769032 0.260010 0.626195 -0.447462
O18   O     O_2   0.672926 0.389184 0.728849 -0.463786
H17   H     H_    0.600698 0.372731 0.799895 0.228674
C59   C     C_R   0.520654 0.399936 0.651852 0.423843
C60   C     C_R   0.558233 0.432088 0.624822 0.367808
C61   C     C_R   0.634895 0.415421 0.583566 -0.293619
C62   C     C_R   0.651467 0.366590 0.569267 -0.265559
H18   H     H_    0.674641 0.353134 0.535598 0.186546
C63   C     C_R   0.603724 0.334800 0.595967 0.492624
C64   C     C_R   0.585047 0.352176 0.640605 -0.006844
C65   C     C_R   0.705473 0.110962 0.854784 -0.141307
H19   H     H_    0.819582 0.108233 0.831155 0.188878
C66   C     C_R   0.697493 0.079022 0.882816 0.415689
C67   C     C_R   0.551330 0.083873 0.914847 -0.186878
C68   C     C_R   0.410931 0.119008 0.915632 -0.193057
H20   H     H_    0.296118 0.123277 0.939200 0.175812
C69   C     C_R   0.416323 0.149173 0.886250 -0.047340
H21   H     H_    0.304651 0.175351 0.887274 0.162837
C70   C     C_R   0.564626 0.145719 0.855747 0.270748
C71   C     C_R   0.465544 0.383360 0.377478 -0.139330
H22   H     H_    0.334866 0.401957 0.389062 0.117600
C72   C     C_R   0.454001 0.347215 0.341295 -0.110314
H23   H     H_    0.314781 0.339025 0.326293 0.140233
C73   C     C_R   0.619360 0.321951 0.324821 0.024680
C74   C     C_R   0.796786 0.333954 0.345620 -0.103705
H24   H     H_    0.927395 0.315447 0.333863 0.143953
C75   C     C_R   0.808608 0.370347 0.381690 -0.142892
H25   H     H_    0.947805 0.378644 0.396680 0.123630
C76   C     C_R   0.643052 0.395565 0.398179 -0.048934
N9    N     N_R   0.759725 0.255149 0.273137 -0.250063
N10   N     N_R   0.748792 0.221218 0.238330 -0.180850
C77   C     C_R   0.584689 0.214423 0.214805 0.569140
N11   N     N_R   0.431382 0.242709 0.227770 -0.196019
N12   N     N_R   0.442138 0.276508 0.262665 -0.258261
C78   C     C_R   0.606758 0.283652 0.286092 0.503842
C79   C     C_R   0.425980 0.141718 0.170794 0.411648
C80   C     C_R   0.412940 0.107815 0.133185 -0.149828
H26   H     H_    0.300549 0.080855 0.130679 0.159493
C81   C     C_R   0.547402 0.106250 0.100087 -0.273348
C82   C     C_R   0.693949 0.141799 0.103840 0.310065
C83   C     C_R   0.706063 0.177439 0.141161 0.357388
C84   C     C_R   0.573445 0.177209 0.175333 -0.280575
O19   O     O_R   0.699050 0.038480 0.960880 -0.507297
O20   O     O_R   0.366680 0.052470 0.047720 -0.541680
O21   O     O_R   0.193410 0.961530 0.039110 -0.554592
C85   C     C_R   0.536133 0.066226 0.062818 0.682438
O22   O     O_R   0.369510 0.044100 0.961740 -0.528008
O23   O     O_R   0.196260 0.953110 0.952520 -0.527257
C86   C     C_R   0.539288 0.052949 0.947167 0.794792
O24   O     O_R   0.696210 0.046900 0.047470 -0.546871
O25   O     O_3   0.528780 0.970170 0.997070 -0.356625
V3    V     V_3+5 0.255080 0.005530 0.000540 1.582520
O26   O     O_R   0.866350 0.947520 0.952280 -0.485337
C87   C     C_R   0.035051 0.933581 0.937295 0.867858
O27   O     O_R   0.863520 0.955880 0.038260 -0.546165
C88   C     C_R   0.031299 0.945673 0.051653 0.700082
V4    V     V_3+5 0.754720 0.994440 0.999470 1.619705
O28   O     O_3   0.030880 0.029830 0.002930 -0.359156
O29   O     O_3   0.866556 0.567068 0.630044 -0.619584
H27   H     H_    0.777809 0.571027 0.606907 0.278333
O30   O     O_3   0.622157 0.716950 0.182206 -0.610997
H28   H     H_    0.675813 0.710343 0.152922 0.341994
O31   O     O_3   0.444925 0.551213 0.376728 -0.626022
H29   H     H_    0.404434 0.522558 0.387406 0.286792
O32   O     O_3   0.644374 0.171972 0.636240 -0.592149
H30   H     H_    0.572512 0.190874 0.618963 0.363625
S1    S     S_3+6 0.539287 0.337935 0.874637 0.123401
O33   O     O_2   0.713074 0.332932 0.901198 -0.255347
O34   O     O_2   0.507416 0.389643 0.875482 -0.285415
O35   O     O_3   0.342485 0.315592 0.895230 -0.454385
H31   H     H_    0.337347 0.332264 0.925309 0.401727
O36   O     O_3   0.401806 0.415179 0.686467 -0.551065
H32   H     H_    0.335171 0.387108 0.693794 0.315737
O37   O     O_3   0.508332 0.478794 0.639419 -0.575671
H33   H     H_    0.558503 0.498723 0.619781 0.294675
S2    S     S_3+6 0.477834 0.283045 0.570273 0.067196
O38   O     O_2   0.358012 0.262246 0.601594 -0.325477
O39   O     O_2   0.345815 0.296003 0.537395 -0.311080
O40   O     O_3   0.636011 0.242942 0.545438 -0.444587
H34   H     H_    0.556230 0.214769 0.533495 0.383059
S3    S     S_3+6 0.860030 0.031021 0.873529 0.000969
O41   O     O_2   0.953915 0.026957 0.830484 -0.317164
O42   O     O_2   0.014372 0.038796 0.906929 -0.344650
O43   O     O_3   0.737505 0.980624 0.875466 -0.513614
H35   H     H_    0.810627 0.955291 0.856844 0.352683
O44   O     O_3   0.293392 0.137794 0.202459 -0.600875
H36   H     H_    0.337852 0.156463 0.229960 0.313343
O45   O     O_3   0.825705 0.143028 0.071451 -0.582625
H37   H     H_    0.765149 0.129233 0.043874 0.295343
O46   O     O_3   0.425144 0.646593 0.580137 -0.630615
H38   H     H_    0.510702 0.619139 0.579182 0.293680
S4    S     S_3+6 0.882617 0.223720 0.143853 0.128241
O47   O     O_2   0.049545 0.213095 0.170013 -0.261763
O48   O     O_2   0.956776 0.228079 0.100536 -0.258332
O49   O     O_3   0.788767 0.276002 0.167153 -0.458059
H39   H     H_    0.675984 0.280191 0.149462 0.353953
S5    S     S_3+6 0.729283 0.847852 0.929932 0.026184
O50   O     O_2   0.567245 0.881414 0.927481 -0.339661
O51   O     O_2   0.651023 0.798004 0.920536 -0.296276
O52   O     O_3   0.822287 0.858958 0.979253 -0.511550
H40   H     H_    0.709454 0.859426 0.998553 0.358132

loop_
_geom_bond_atom_site_label_1
_geom_bond_atom_site_label_2
_ccdc_geom_bond_type
C22   C27   A    
C33   C34   A    
C81   C85   S    
C55   C56   A    
O24   V4    S    
O27   V4    S    
C62   C63   A    
C39   H13   S    
N6    C32   A    
C57   N8    A    
C1    O6    A    
N8    C58   A    
C55   H17   S    
C67   C68   A    
C63   S2    S    
C52   C57   A    
S1    O34   D    
O32   H30   S    
C7    C12   S    
C41   C42   A    
O36   H32   S    
C80   C81   A    
N2    C11   A    
V4    O28   S    
O25   V4    S    
N3    N4    A    
C16   C17   A    
C17   H5    S    
C6    H1    S    
C48   C53   A    
C69   C70   A    
O29   H27   S    
O5    C3    A    
C47   C50   A    
C34   C35   A    
C61   C62   A    
S5    O50   D    
C29   O30   S    
N7    C70   S    
C68   H20   S    
C49   C56   A    
O43   H35   S    
C65   C70   A    
C15   C16   A    
N5    C20   A    
C4    C10   S    
S5    O51   D    
O37   H33   S    
C79   C84   A    
C85   O24   A    
O21   C88   A    
O8    V2    S    
S2    O40   S    
C66   S3    S    
C65   C66   A    
N7    C46   A    
C11   C18   S    
C77   N11   A    
C19   O11   S    
O19   C86   A    
O25   V3    S    
C13   C14   A    
O19   V4    S    
C37   H12   S    
O1    V2    S    
O7    V1    S    
C58   O18   S    
C73   C78   S    
C59   O36   S    
C79   O44   S    
C50   C51   A    
S2    O39   D    
O20   V3    S    
C42   O31   S    
O26   C87   A    
O9    C4    A    
C24   H6    S    
O26   V4    S    
C45   O15   S    
C19   C23   A    
C83   S4    S    
O23   C87   A    
C20   O12   S    
C39   C44   A    
C59   C60   A    
C31   O13   S    
C71   C72   A    
C54   C58   A    
O30   H28   S    
S1    O35   S    
C72   H23   S    
S3    O42   D    
C77   C84   S    
C26   C31   A    
V3    O28   S    
C5    C10   A    
C33   H9    S    
C35   C36   A    
C82   O45   S    
S4    O49   S    
C14   C15   A    
C46   C47   A    
O20   C85   A    
S1    O33   D    
C43   C44   A    
C48   C49   A    
O52   H40   S    
C23   C30   A    
C68   C69   A    
N1    N2    A    
S3    O41   D    
N8    C64   S    
C83   C84   A    
C30   H8    S    
C71   C76   A    
O45   H37   S    
C16   H4    S    
S4    O48   D    
S5    O52   S    
O2    C1    A    
C40   H14   S    
C75   C76   A    
O46   H38   S    
N4    C12   A    
C25   C26   A    
C14   S5    S    
C62   H18   S    
N5    C44   S    
C3    C41   S    
C7    C8    A    
C5    C6    A    
N6    C38   S    
C28   C29   A    
C82   C83   A    
C40   C41   A    
C51   O32   S    
C47   C48   A    
C50   H16   S    
O3    C4    A    
S2    O38   D    
N9    C78   A    
C27   C28   A    
C15   C87   S    
C60   O37   S    
C8    C9    A    
C21   C22   A    
C74   H24   S    
C45   C49   A    
C43   H15   S    
C20   C21   A    
C39   C40   A    
C72   C73   A    
C75   H25   S    
O2    V1    S    
C53   C54   A    
C22   C23   A    
O4    C2    A    
C66   C67   A    
C80   H26   S    
S3    O43   S    
N1    C12   A    
C24   C25   A    
C19   N5    A    
C65   H19   S    
O22   C86   A    
O1    C2    A    
C46   O16   S    
C36   H11   S    
C13   H3    S    
O23   V3    S    
C79   C80   A    
C56   S1    S    
O5    V1    S    
C81   C82   A    
C31   N6    A    
N12   C78   A    
O40   H34   S    
O6    V2    S    
C60   C61   A    
C28   C32   A    
S4    O47   D    
O9    V2    S    
O22   V3    S    
O44   H36   S    
C29   C30   A    
C17   C18   A    
O3    V1    S    
V1    O10   S    
C69   H21   S    
C59   C64   A    
C42   C43   A    
C52   C53   A    
N11   N12   A    
C1    C61   S    
C26   C27   A    
C32   O14   S    
C54   C55   A    
C13   C18   A    
N9    N10   A    
C6    C7    A    
C34   H10   S    
O7    V2    S    
N10   C77   A    
C5    O29   S    
C21   C24   A    
C2    C76   S    
O31   H29   S    
C9    C10   A    
C25   H7    S    
O49   H39   S    
C57   O17   S    
O4    V1    S    
O21   V3    S    
C33   C38   A    
C36   C37   A    
C45   N7    A    
O35   H31   S    
C63   C64   A    
O27   C88   A    
C74   C75   A    
C71   H22   S    
C35   C88   S    
C37   C38   A    
C67   C86   S    
C51   C52   A    
C8    H2    S    
C9    O46   S    
V2    O10   S    
O8    C3    A    
C73   C74   A    
C11   N3    A    
