data_mof_unit_48676.cif
_audit_creation_date              2012-12-10T18:16:21-0500
_audit_creation_method            fapswitch 2.2
_symmetry_space_group_name_H-M    P1
_symmetry_Int_Tables_number       1
_space_group_crystal_system       triclinic
_cell_length_a                    12.846277
_cell_length_b                    12.873396
_cell_length_c                    27.576511
_cell_angle_alpha                 95.259858
_cell_angle_beta                  102.289037
_cell_angle_gamma                 83.089407
_cell_volume                      4413.33030293

loop_
_atom_site_label
_atom_site_type_symbol
_atom_type_description
_atom_site_fract_x
_atom_site_fract_y
_atom_site_fract_z
_atom_type_partial_charge
C1    C     C_R   0.440307 0.692518 0.496589 0.863050
C2    C     C_R   0.444767 0.515456 0.722664 0.591050
C3    C     C_R   0.541727 0.466054 0.748331 0.228119
C4    C     C_R   0.562875 0.460918 0.901519 -0.126065
C5    C     C_R   0.577004 0.554138 0.881410 -0.142309
C6    C     C_R   0.590048 0.646554 0.912727 0.538336
C7    C     C_R   0.553744 0.367209 0.870905 0.010497
C8    C     C_R   0.513562 0.485854 0.646574 -0.071691
C9    C     C_R   0.497038 0.493843 0.352492 -0.165700
C10   C     C_R   0.529755 0.561311 0.029068 -0.021125
C11   C     C_R   0.549240 0.367899 0.024197 0.002813
C12   C     C_R   0.502537 0.498235 0.593706 0.832121
C13   C     C_R   0.534029 0.465357 0.051487 0.011835
C14   C     C_R   0.497182 0.657216 0.054369 0.511292
C15   C     C_R   0.482114 0.656178 0.103182 -0.242419
C16   C     C_R   0.498750 0.563128 0.127293 -0.067054
C17   C     C_R   0.522641 0.466849 0.101397 -0.125808
C18   C     C_R   0.534366 0.372296 0.125388 -0.129604
C19   C     C_R   0.525744 0.377900 0.175631 0.544616
C20   C     C_R   0.489288 0.564220 0.176850 0.547407
C21   C     C_R   0.403559 0.482741 0.266118 -0.194384
C22   C     C_R   0.400132 0.492513 0.316635 0.488169
C23   C     C_R   0.558298 0.310531 0.510599 0.924160
C24   C     C_R   0.594782 0.488822 0.336716 -0.268093
C25   C     C_R   0.596802 0.480652 0.286458 -0.120517
C26   C     C_R   0.501466 0.477394 0.251297 0.248635
C27   C     C_R   0.555020 0.557519 0.981328 -0.009624
C28   C     C_R   0.556023 0.461586 0.952050 0.069683
C29   C     C_R   0.549634 0.366549 0.972858 0.103515
C30   C     C_R   0.582940 0.645900 0.962478 -0.245307
C31   C     C_R   0.543560 0.274293 0.891203 -0.139673
C32   C     C_R   0.563480 0.274796 0.049086 -0.321192
C33   C     C_R   0.554549 0.275836 0.098674 0.568104
C34   C     C_R   0.498589 0.499037 0.406052 0.908598
C35   C     C_R   0.542273 0.273610 0.941369 -0.222089
C36   C     C_R   0.713107 0.064145 0.565373 0.554616
C37   C     C_R   0.586926 0.208510 0.531546 -0.279033
C38   C     C_R   0.302972 0.840909 0.469346 0.493897
C39   C     C_R   0.270421 0.948583 0.469557 -0.401136
C40   C     C_R   0.333392 0.021627 0.498770 0.485839
C41   C     C_R   0.435825 0.986733 0.527491 0.009782
C42   C     C_R   0.462682 0.877721 0.531794 -0.087910
C43   C     C_R   0.519082 0.052456 0.546921 -0.094890
C44   C     C_R   0.625061 0.007107 0.564491 -0.039955
C45   C     C_R   0.575854 0.551787 0.830277 0.587157
C46   C     C_R   0.638924 0.905659 0.580196 -0.118451
C47   C     C_R   0.554570 0.843776 0.566505 -0.130579
C48   C     C_R   0.505446 0.160620 0.544281 0.561766
C49   C     C_R   0.692383 0.161383 0.543279 -0.411504
C50   C     C_R   0.401261 0.805254 0.499874 -0.225475
C51   C     C_R   0.090076 0.349826 0.421743 0.458367
C52   C     C_R   0.806499 0.615427 0.568296 0.541831
C53   C     C_R   0.914887 0.629232 0.586211 0.359334
C54   C     C_R   0.990314 0.575066 0.561759 -0.293522
C55   C     C_R   0.962225 0.521173 0.515332 -0.062468
C56   C     C_R   0.550928 0.369618 0.820083 0.536869
C57   C     C_R   0.852880 0.501975 0.499482 0.004056
C58   C     C_R   0.041737 0.475780 0.487865 -0.118334
C59   C     C_R   0.012907 0.403178 0.447103 -0.100165
C60   C     C_R   0.907445 0.383281 0.432001 -0.318188
C61   C     C_R   0.829344 0.422437 0.459609 0.538803
C62   C     C_R   0.147704 0.504866 0.496929 0.567775
C63   C     C_R   0.196045 0.369360 0.437856 -0.109540
C64   C     C_R   0.623776 0.426970 0.723547 -0.201190
C65   C     C_R   0.609966 0.437202 0.672890 -0.261178
C66   C     C_R   0.430643 0.523175 0.671225 -0.366241
H1    H     H_    0.535470 0.201590 0.868259 0.183503
H2    H     H_    0.530596 0.199842 0.954021 0.138272
H3    H     H_    0.070013 0.567566 0.582585 0.186644
H4    H     H_    0.330051 0.480231 0.238375 0.153903
H5    H     H_    0.454397 0.728313 0.122022 0.198250
H6    H     H_    0.674495 0.406838 0.654154 0.164656
N1    N     N_R   0.558953 0.461575 0.800914 -0.342239
N2    N     N_R   0.504248 0.472775 0.199838 -0.351584
N3    N     N_R   0.222180 0.444690 0.474320 -0.168105
N4    N     N_R   0.776980 0.554780 0.525420 -0.168875
O1    O     O_R   0.366730 0.627160 0.487740 -0.540846
O2    O     O_2   0.466785 0.656008 0.202288 -0.564865
O3    O     O_2   0.537796 0.281632 0.789778 -0.574845
O4    O     O_2   0.538772 0.290079 0.200404 -0.495747
O5    O     O_R   0.544830 0.662520 0.504140 -0.587303
O6    O     O_R   0.410970 0.482310 0.563040 -0.621980
O7    O     O_R   0.589070 0.517670 0.579450 -0.597073
O8    O     O_R   0.455170 0.337480 0.495860 -0.557868
O9    O     O_R   0.633270 0.372840 0.512260 -0.566543
O10   O     O_R   0.410930 0.482330 0.420550 -0.568197
O11   O     O_R   0.589030 0.517690 0.436960 -0.559706
O12   O     O_2   0.589076 0.638907 0.809473 -0.525225
Zn1   Zn    Zn3+2 0.381080 0.476390 0.489050 1.024935
Zn2   Zn    Zn3+2 0.618920 0.523610 0.510950 1.006979
H7    H     H_    0.356779 0.560327 0.651040 0.136559
H8    H     H_    0.698694 0.390128 0.743778 0.165602
H9    H     H_    0.585427 0.199527 0.031358 0.159152
H10   H     H_    0.670217 0.490429 0.363123 0.206370
O13   O     O_3   0.572869 0.182284 0.121653 -0.556128
C67   C     C_3   0.482071 0.126702 0.105730 -0.239950
H11   H     H_    0.407933 0.174562 0.112836 0.166203
H12   H     H_    0.493494 0.056173 0.127319 0.195632
H13   H     H_    0.472234 0.099423 0.065723 0.124136
H14   H     H_    0.672465 0.477193 0.274699 0.154423
H15   H     H_    0.757163 0.200888 0.536576 0.194599
H16   H     H_    0.714838 0.873180 0.601250 0.194816
O14   O     O_3   0.816523 0.016302 0.580180 -0.632962
C68   C     C_3   0.883511 0.086940 0.609997 -0.363517
H17   H     H_    0.843077 0.135945 0.637468 0.170129
H18   H     H_    0.913796 0.137046 0.586462 0.171428
H19   H     H_    0.954186 0.040939 0.631408 0.184509
O15   O     O_3   0.363887 0.549063 0.748608 -0.608234
C69   C     C_3   0.322404 0.653608 0.739272 -0.294704
H20   H     H_    0.261288 0.656308 0.704101 0.163933
H21   H     H_    0.386306 0.704590 0.738638 0.171768
H22   H     H_    0.281685 0.686536 0.769795 0.198735
O16   O     O_3   0.421197 0.222215 0.560093 -0.548905
C70   C     C_3   0.434121 0.218755 0.612042 -0.300914
H23   H     H_    0.514670 0.239354 0.631988 0.165053
H24   H     H_    0.420098 0.140417 0.621833 0.159273
H25   H     H_    0.373666 0.277463 0.625049 0.199318
O17   O     O_3   0.246679 0.770149 0.435551 -0.598283
C71   C     C_3   0.136054 0.784837 0.435886 -0.220199
H26   H     H_    0.094841 0.845766 0.410387 0.133072
H27   H     H_    0.119719 0.804545 0.473958 0.177909
H28   H     H_    0.101228 0.710449 0.421641 0.201432
O18   O     O_3   0.297820 0.126525 0.494271 -0.574415
C72   C     C_3   0.210886 0.152149 0.518732 -0.246685
H29   H     H_    0.232275 0.130031 0.558006 0.160196
H30   H     H_    0.138824 0.114759 0.498796 0.117032
H31   H     H_    0.189569 0.238274 0.519548 0.188693
H32   H     H_    0.197878 0.977350 0.444619 0.160031
H33   H     H_    0.562980 0.767132 0.580303 0.203034
H34   H     H_    0.257167 0.329497 0.419209 0.192077
H35   H     H_    0.886426 0.332285 0.398885 0.206819
O19   O     O_3   0.060892 0.285959 0.378954 -0.589011
C73   C     C_3   0.082793 0.180439 0.390888 -0.315912
H36   H     H_    0.056396 0.129816 0.356765 0.202148
H37   H     H_    0.037184 0.163807 0.418886 0.143328
H38   H     H_    0.170117 0.159008 0.403941 0.202577
O20   O     O_3   0.163691 0.608707 0.512595 -0.603001
C74   C     C_3   0.226581 0.619149 0.561072 -0.235205
H39   H     H_    0.302748 0.650183 0.561034 0.188309
H40   H     H_    0.240063 0.545977 0.581040 0.139415
H41   H     H_    0.185788 0.681152 0.583034 0.130777
O21   O     O_3   0.727570 0.662847 0.592547 -0.627650
C75   C     C_3   0.749462 0.642198 0.643454 -0.219871
H42   H     H_    0.791817 0.705555 0.666503 0.207799
H43   H     H_    0.794271 0.563739 0.651040 0.153113
H44   H     H_    0.672252 0.644078 0.655536 0.176505
O22   O     O_3   0.616415 0.735967 0.895807 -0.563312
C76   C     C_3   0.527242 0.812640 0.891487 -0.217492
H45   H     H_    0.511117 0.842370 0.928604 0.148620
H46   H     H_    0.454447 0.782277 0.867515 0.163103
H47   H     H_    0.545394 0.880138 0.873559 0.188915
O23   O     O_3   0.948746 0.687513 0.630126 -0.623859
C77   C     C_3   0.965561 0.787678 0.618480 -0.285413
H48   H     H_    0.894737 0.824553 0.592896 0.210641
H49   H     H_    0.037446 0.783815 0.601837 0.160615
H50   H     H_    0.979431 0.838928 0.653337 0.188575
O24   O     O_3   0.731186 0.382545 0.448102 -0.560116
C78   C     C_3   0.733758 0.276029 0.429368 -0.327273
H51   H     H_    0.803226 0.226380 0.449925 0.149823
H52   H     H_    0.731629 0.269628 0.388745 0.172885
H53   H     H_    0.660162 0.244301 0.433753 0.184774
O25   O     O_3   0.302498 0.495772 0.330516 -0.593334
C79   C     C_3   0.253880 0.599941 0.329276 -0.203705
H54   H     H_    0.232666 0.625421 0.290604 0.148104
H55   H     H_    0.306021 0.654863 0.353849 0.183746
H56   H     H_    0.178592 0.603945 0.343283 0.198610
O26   O     O_3   0.461888 0.746451 0.028091 -0.608840
C80   C     C_3   0.503711 0.836654 0.054625 -0.368381
H57   H     H_    0.587790 0.820172 0.075357 0.168489
H58   H     H_    0.451190 0.872942 0.080090 0.182051
H59   H     H_    0.504265 0.895131 0.027556 0.189093
H60   H     H_    0.603048 0.714866 0.986327 0.197502

loop_
_geom_bond_atom_site_label_1
_geom_bond_atom_site_label_2
_ccdc_geom_bond_type
C10   C27   A    
C58   C62   A    
C75   H44   S    
C21   C26   A    
C8    C66   A    
O24   C78   S    
C1    O1    A    
C41   C42   A    
O13   C67   S    
C76   H47   S    
C68   H18   S    
C70   H23   S    
O18   C72   S    
C3    C64   A    
C31   H1    S    
C46   H16   S    
O1    Zn1   S    
C56   O3    S    
C47   H33   S    
C36   O14   S    
C57   N4    A    
C28   C29   A    
C79   H55   S    
C76   H46   S    
O16   C70   S    
C61   O24   S    
C69   H21   S    
C49   H15   S    
C38   C39   A    
C22   O25   S    
C9    C22   A    
C1    O5    A    
C15   C16   A    
C67   H13   S    
O15   C69   S    
C45   N1    A    
C18   C19   A    
C34   O10   A    
C63   H34   S    
C40   O18   S    
O17   C71   S    
C51   O19   S    
C78   H53   S    
C54   C55   A    
C80   H59   S    
O22   C76   S    
C16   C17   A    
C67   H12   S    
C73   H38   S    
C10   C13   A    
C56   N1    A    
C77   H49   S    
C43   C48   A    
O11   Zn2   S    
C8    C12   S    
C42   C47   A    
C80   H58   S    
C32   H9    S    
C59   C60   A    
C77   H48   S    
C21   C22   A    
C27   C30   A    
C78   H52   S    
C41   C43   A    
C7    C56   A    
C4    C7    A    
C33   O13   S    
C60   H35   S    
C68   H17   S    
C4    C28   A    
C44   C46   A    
C71   H27   S    
C7    C31   A    
C23   O8    A    
C20   N2    A    
C70   H25   S    
C45   O12   S    
C51   C63   A    
C24   C25   A    
C10   C14   A    
C69   H22   S    
O26   C80   S    
O19   C73   S    
C52   N4    A    
C58   C59   A    
C23   C37   S    
C5    C45   A    
O10   Zn1   S    
C52   O21   S    
C12   O7    A    
C60   C61   A    
C77   H50   S    
C43   C44   A    
C24   H10   S    
C53   O23   S    
C73   H36   S    
C37   C49   A    
C25   H14   S    
C16   C20   A    
C67   H11   S    
C79   H56   S    
C17   C18   A    
C12   O6    A    
C76   H45   S    
C37   C48   A    
C57   C61   A    
O6    Zn1   S    
C30   H60   S    
C74   H40   S    
C42   C50   A    
C72   H31   S    
O5    Zn2   S    
C80   H57   S    
C6    C30   A    
C11   C32   A    
C55   C57   A    
C78   H51   S    
C31   C35   A    
C62   N3    A    
C36   C44   A    
C51   C59   A    
O8    Zn1   S    
C64   H8    S    
C39   C40   A    
C52   C53   A    
C72   H30   S    
O25   C79   S    
C1    C50   S    
C71   H28   S    
C75   H43   S    
O7    Zn2   S    
C46   C47   A    
C40   C41   A    
C39   H32   S    
C14   C15   A    
C19   N2    A    
C4    C5    A    
C2    C66   A    
C74   H41   S    
C70   H24   S    
O9    Zn2   S    
C9    C24   A    
C53   C54   A    
C66   H7    S    
C38   C50   A    
C20   O2    S    
C65   H6    S    
C15   H5    S    
O20   C74   S    
C29   C35   A    
C13   C17   A    
C21   H4    S    
C32   C33   A    
C2    C3    A    
C25   C26   A    
C69   H20   S    
C64   C65   A    
C6    O22   S    
C11   C13   A    
C5    C6    A    
C54   H3    S    
C63   N3    A    
C35   H2    S    
C2    O15   S    
C26   N2    S    
C9    C34   S    
C34   O11   A    
C62   O20   S    
C19   O4    S    
C3    N1    S    
C18   C33   A    
C79   H54   S    
C74   H39   S    
N3    Zn1   S    
C38   O17   S    
C8    C65   A    
O23   C77   S    
C11   C29   A    
C71   H26   S    
C23   O9    A    
C55   C58   A    
O14   C68   S    
C73   H37   S    
O21   C75   S    
C72   H29   S    
C14   O26   S    
C68   H19   S    
C36   C49   A    
C75   H42   S    
N4    Zn2   S    
C48   O16   S    
C27   C28   A    
