data_mof_unit_51955.cif
_audit_creation_date              2012-12-11T15:56:48-0500
_audit_creation_method            fapswitch 2.2
_symmetry_space_group_name_H-M    P1
_symmetry_Int_Tables_number       1
_space_group_crystal_system       monoclinic
_cell_length_a                    17.395194
_cell_length_b                    24.350169
_cell_length_c                    14.953109
_cell_angle_alpha                 90.0
_cell_angle_beta                  125.997498
_cell_angle_gamma                 90.0
_cell_volume                      5124.29564281

loop_
_atom_site_label
_atom_site_type_symbol
_atom_type_description
_atom_site_fract_x
_atom_site_fract_y
_atom_site_fract_z
_atom_type_partial_charge
C1    C     C_R   0.308040 0.123490 0.907013 -0.136381
C2    C     C_R   0.556664 0.152604 0.908808 -0.151487
C3    C     C_R   0.811364 0.363429 0.999802 -0.011135
C4    C     C_R   0.566676 0.000001 0.368703 -0.009013
C5    C     C_R   0.066676 0.499999 0.368703 -0.009013
C6    C     C_R   0.191226 0.999557 0.636954 0.037199
C7    C     C_R   0.691226 0.500443 0.636953 0.037199
C8    C     C_R   0.521330 0.045977 0.753676 -0.138947
C9    C     C_R   0.521332 0.954021 0.753681 -0.138816
C10   C     C_R   0.021332 0.545979 0.753681 -0.138816
C11   C     C_R   0.021330 0.454023 0.753676 -0.138948
C12   C     C_R   0.769490 0.954056 0.247404 -0.142837
C13   C     C_R   0.056664 0.347396 0.908808 -0.151488
C14   C     C_R   0.769244 0.046385 0.248135 -0.130062
C15   C     C_R   0.269244 0.453615 0.248135 -0.130062
C16   C     C_R   0.269490 0.545944 0.247404 -0.142837
C17   C     C_R   0.056679 0.652615 0.908863 -0.151896
C18   C     C_R   0.552168 0.999999 0.728069 -0.011061
C19   C     C_R   0.052169 0.500001 0.728069 -0.011061
C20   C     C_R   0.824427 0.000416 0.271953 0.024973
C21   C     C_R   0.324427 0.499584 0.271953 0.024972
C22   C     C_R   0.617336 0.184150 0.000805 -0.007819
C23   C     C_R   0.617392 0.815868 0.000909 -0.007895
C24   C     C_R   0.117392 0.684132 0.000909 -0.007895
C25   C     C_R   0.308143 0.876363 0.907101 -0.135960
C26   C     C_R   0.117336 0.315850 0.000805 -0.007819
C27   C     C_3   0.033870 0.949123 0.486625 -0.168063
C28   C     C_3   0.021295 0.035905 0.516859 -0.154783
C29   C     C_3   0.521294 0.464095 0.516859 -0.154782
C30   C     C_3   0.533870 0.550877 0.486624 -0.168064
C31   C     C_3   0.955361 0.985847 0.471620 -0.136393
C32   C     C_3   0.455361 0.514153 0.471620 -0.136393
C33   C     C_3   0.925680 0.000648 0.355588 0.191195
C34   C     C_3   0.425680 0.499351 0.355588 0.191195
C35   C     C_3   0.003244 0.963854 0.369364 -0.161007
C36   C     C_R   0.808143 0.623637 0.907101 -0.135959
C37   C     C_3   0.991182 0.050884 0.400257 -0.168201
C38   C     C_3   0.491182 0.449116 0.400258 -0.168201
C39   C     C_3   0.503244 0.536145 0.369364 -0.161006
C40   C     C_3   0.071344 0.014209 0.416487 -0.151207
C41   C     C_3   0.571344 0.485791 0.416487 -0.151207
C42   C     C_R   0.401719 0.876280 0.092551 -0.139541
C43   C     C_R   0.401626 0.123665 0.092483 -0.139426
C44   C     C_R   0.901626 0.376335 0.092483 -0.139426
C45   C     C_R   0.901719 0.623719 0.092551 -0.139541
C46   C     C_3   0.099408 0.999297 0.531586 0.191627
C47   C     C_R   0.808040 0.376510 0.907013 -0.136381
C48   C     C_3   0.599408 0.500703 0.531586 0.191627
C49   C     C_3   0.255463 0.820198 0.104971 -0.403375
C50   C     C_3   0.255028 0.179631 0.104610 -0.403361
C51   C     C_3   0.755028 0.320369 0.104610 -0.403361
C52   C     C_3   0.755463 0.679801 0.104971 -0.403376
C53   C     C_3   0.701280 0.270299 0.105002 -0.408973
C54   C     C_3   0.701632 0.729831 0.105320 -0.409051
C55   C     C_3   0.201632 0.770169 0.105320 -0.409051
C56   C     C_3   0.201281 0.229701 0.105002 -0.408973
C57   C     C_3   0.800735 0.264726 0.999097 -0.396436
C58   C     C_R   0.648646 0.152195 0.092350 -0.151659
C59   C     C_3   0.800676 0.735373 0.998902 -0.396799
C60   C     C_3   0.300676 0.764626 0.998902 -0.396799
C61   C     C_3   0.300735 0.235274 0.999097 -0.396436
C62   C     C_3   0.149135 0.820935 0.897621 -0.402834
C63   C     C_3   0.149059 0.179101 0.897253 -0.404179
C64   C     C_3   0.649059 0.320899 0.897253 -0.404178
C65   C     C_3   0.649135 0.679065 0.897621 -0.402834
C66   C     C_3   0.254547 0.818849 0.000331 0.405005
C67   C     C_3   0.254393 0.181060 0.000163 0.405571
C68   C     C_3   0.754393 0.318940 0.000163 0.405571
C69   C     C_R   0.648724 0.847844 0.092426 -0.151352
C70   C     C_3   0.754547 0.681151 0.000331 0.405006
C71   C     C_3   0.663499 0.234534 0.000823 0.409960
C72   C     C_3   0.663598 0.765510 0.000972 0.410497
C73   C     C_3   0.163598 0.734490 0.000972 0.410496
C74   C     C_3   0.163499 0.265466 0.000823 0.409960
C75   C     C_3   0.747736 0.215395 0.999927 -0.397392
C76   C     C_3   0.747662 0.784682 0.999761 -0.397642
C77   C     C_3   0.247662 0.715317 0.999761 -0.397642
C78   C     C_3   0.247736 0.284605 0.999927 -0.397394
C79   C     C_3   0.595390 0.270676 0.897236 -0.407373
C80   C     C_R   0.148724 0.652156 0.092426 -0.151352
C81   C     C_3   0.595440 0.729280 0.897561 -0.408286
C82   C     C_3   0.095440 0.770720 0.897561 -0.408286
C83   C     C_3   0.095390 0.229323 0.897236 -0.407373
C84   C     C_3   0.619310 0.051505 0.642789 -0.404373
C85   C     C_3   0.619296 0.948487 0.642778 -0.404261
C86   C     C_3   0.119296 0.551512 0.642778 -0.404261
C87   C     C_3   0.119310 0.448495 0.642789 -0.404374
C88   C     C_R   0.549629 0.045609 0.305081 -0.148907
C89   C     C_R   0.549639 0.954393 0.305086 -0.149752
C90   C     C_R   0.049639 0.545607 0.305086 -0.149752
C91   C     C_R   0.148646 0.347805 0.092350 -0.151659
C92   C     C_R   0.049629 0.454391 0.305081 -0.148907
C93   C     C_3   0.622726 0.051616 0.542274 -0.407139
C94   C     C_3   0.622702 0.948375 0.542256 -0.407408
C95   C     C_3   0.122702 0.551624 0.542256 -0.407407
C96   C     C_3   0.122726 0.448384 0.542274 -0.407135
C97   C     C_3   0.462876 0.000003 0.529384 -0.395006
C98   C     C_3   0.962875 0.499997 0.529384 -0.395006
C99   C     C_3   0.564649 0.999999 0.638940 0.405506
C100  C     C_3   0.064649 0.500001 0.638940 0.405506
C101  C     C_3   0.571101 1.000000 0.469750 0.409381
C102  C     C_R   0.556679 0.847385 0.908863 -0.151895
C103  C     C_3   0.071101 0.500000 0.469750 0.409380
C104  C     C_3   0.466756 0.000008 0.430516 -0.398260
C105  C     C_3   0.966756 0.499992 0.430516 -0.398260
C106  C     C_R   0.240054 0.953802 0.696929 -0.145804
C107  C     C_R   0.240157 0.045684 0.695877 -0.157429
C108  C     C_R   0.740157 0.454316 0.695877 -0.157429
C109  C     C_R   0.740054 0.546198 0.696929 -0.145804
C110  C     C_R   0.311364 0.136571 0.999802 -0.011135
C111  C     C_R   0.311503 0.863314 0.999915 -0.010739
C112  C     C_R   0.811503 0.636686 0.999915 -0.010739
H1    H     H_    0.251505 0.131458 0.821522 0.088344
H2    H     H_    0.971907 0.092445 0.362565 0.100609
H3    H     H_    0.527048 0.911484 0.738427 0.088184
H4    H     H_    0.027048 0.588516 0.738427 0.088185
H5    H     H_    0.027038 0.411487 0.738408 0.088161
H6    H     H_    0.793184 0.911859 0.263460 0.097399
H7    H     H_    0.792192 0.088700 0.264425 0.091443
H8    H     H_    0.292192 0.411300 0.264425 0.091443
H9    H     H_    0.293184 0.588141 0.263460 0.097399
H10   H     H_    0.691132 0.164967 0.177816 0.083060
H11   H     H_    0.691347 0.835152 0.177946 0.083288
H12   H     H_    0.191347 0.664848 0.177946 0.083288
H13   H     H_    0.471907 0.407555 0.362565 0.100609
H14   H     H_    0.191132 0.335033 0.177816 0.083060
H15   H     H_    0.513533 0.834539 0.823448 0.082542
H16   H     H_    0.513496 0.165430 0.823382 0.082447
H17   H     H_    0.013496 0.334569 0.823382 0.082447
H18   H     H_    0.013533 0.665461 0.823448 0.082542
H19   H     H_    0.906300 0.974283 0.493163 0.108194
H20   H     H_    0.406301 0.525717 0.493163 0.108194
H21   H     H_    0.493003 0.565327 0.306160 0.104986
H22   H     H_    0.122062 0.025698 0.397487 0.104675
H23   H     H_    0.622062 0.474301 0.397487 0.104675
H24   H     H_    0.329004 0.818703 0.181918 0.143329
H25   H     H_    0.328502 0.181001 0.181690 0.143149
H26   H     H_    0.828502 0.318999 0.181690 0.143149
H27   H     H_    0.829004 0.681297 0.181918 0.143330
H28   H     H_    0.222174 0.858807 0.106766 0.152520
H29   H     H_    0.251707 0.868158 0.821713 0.088237
H30   H     H_    0.221524 0.141045 0.106094 0.152510
H31   H     H_    0.721524 0.358954 0.106094 0.152510
H32   H     H_    0.722174 0.641193 0.106766 0.152520
H33   H     H_    0.141730 0.784007 0.107395 0.151156
H34   H     H_    0.141257 0.215901 0.106876 0.151302
H35   H     H_    0.641257 0.284099 0.106876 0.151302
H36   H     H_    0.641730 0.715993 0.107395 0.151156
H37   H     H_    0.751139 0.246574 0.181826 0.143957
H38   H     H_    0.751502 0.753625 0.182036 0.144294
H39   H     H_    0.251502 0.746374 0.182036 0.144294
H40   H     H_    0.751708 0.631842 0.821713 0.088237
H41   H     H_    0.251139 0.253426 0.181826 0.143957
H42   H     H_    0.876365 0.262538 0.072513 0.152747
H43   H     H_    0.876362 0.737630 0.072163 0.152806
H44   H     H_    0.376362 0.762370 0.072163 0.152806
H45   H     H_    0.376365 0.237462 0.072513 0.152747
H46   H     H_    0.797640 0.189750 0.074096 0.153349
H47   H     H_    0.797603 0.810381 0.073823 0.153269
H48   H     H_    0.297603 0.689618 0.073823 0.153269
H49   H     H_    0.297640 0.310250 0.074096 0.153350
H50   H     H_    0.143163 0.820352 0.819527 0.143502
H51   H     H_    0.751505 0.368541 0.821522 0.088344
H52   H     H_    0.143310 0.179777 0.819296 0.143239
H53   H     H_    0.643310 0.320223 0.819296 0.143239
H54   H     H_    0.643163 0.679648 0.819527 0.143502
H55   H     H_    0.431661 0.868500 0.178104 0.087682
H56   H     H_    0.431525 0.131469 0.178019 0.087571
H57   H     H_    0.931525 0.368531 0.178019 0.087571
H58   H     H_    0.931661 0.631500 0.178104 0.087682
H59   H     H_    0.115048 0.859419 0.898416 0.153694
H60   H     H_    0.114806 0.140617 0.897729 0.153266
H61   H     H_    0.614806 0.359382 0.897729 0.153266
H62   H     H_    0.052117 0.907376 0.523468 0.099901
H63   H     H_    0.615048 0.640581 0.898416 0.153694
H64   H     H_    0.034075 0.784357 0.896948 0.151139
H65   H     H_    0.033913 0.215693 0.896402 0.151124
H66   H     H_    0.533913 0.284307 0.896402 0.151125
H67   H     H_    0.534075 0.715643 0.896948 0.151138
H68   H     H_    0.566982 0.247317 0.819881 0.144120
H69   H     H_    0.566865 0.752570 0.820093 0.144212
H70   H     H_    0.066865 0.747429 0.820093 0.144212
H71   H     H_    0.066983 0.252682 0.819881 0.144120
H72   H     H_    0.800105 0.262693 0.924241 0.152653
H73   H     H_    0.030183 0.065212 0.579232 0.104991
H74   H     H_    0.799827 0.737358 0.923895 0.152458
H75   H     H_    0.299827 0.762642 0.923895 0.152458
H76   H     H_    0.300105 0.237307 0.924241 0.152653
H77   H     H_    0.721923 0.189616 0.925695 0.153286
H78   H     H_    0.721672 0.810415 0.925424 0.153115
H79   H     H_    0.221672 0.689585 0.925424 0.153115
H80   H     H_    0.221923 0.310384 0.925695 0.153286
H81   H     H_    0.584048 0.090011 0.640508 0.143146
H82   H     H_    0.584029 0.909984 0.640497 0.143108
H83   H     H_    0.084029 0.590016 0.640497 0.143108
H84   H     H_    0.530183 0.434789 0.579233 0.104990
H85   H     H_    0.084048 0.409989 0.640508 0.143146
H86   H     H_    0.692715 0.051750 0.720626 0.152790
H87   H     H_    0.692704 0.948239 0.720610 0.152673
H88   H     H_    0.192704 0.551761 0.720610 0.152673
H89   H     H_    0.192715 0.448250 0.720626 0.152790
H90   H     H_    0.697826 0.052309 0.570376 0.151568
H91   H     H_    0.697800 0.947667 0.570348 0.151010
H92   H     H_    0.197800 0.552333 0.570348 0.151009
H93   H     H_    0.197827 0.447691 0.570376 0.151567
H94   H     H_    0.588033 0.089911 0.494797 0.143868
H95   H     H_    0.552117 0.592624 0.523468 0.099901
H96   H     H_    0.587985 0.910086 0.494767 0.143894
H97   H     H_    0.087985 0.589914 0.494767 0.143893
H98   H     H_    0.088034 0.410088 0.494797 0.143867
H99   H     H_    0.422721 0.036838 0.524818 0.152772
H100  H     H_    0.422718 0.963168 0.524808 0.153402
H101  H     H_    0.922718 0.536832 0.524808 0.153402
H102  H     H_    0.922721 0.463162 0.524818 0.152772
H103  H     H_    0.563114 0.088018 0.331101 0.082233
H104  H     H_    0.563146 0.911986 0.331119 0.082179
H105  H     H_    0.063146 0.588014 0.331119 0.082179
H106  H     H_    0.993003 0.934673 0.306160 0.104986
H107  H     H_    0.063114 0.411982 0.331101 0.082233
H108  H     H_    0.428726 0.036878 0.378668 0.153251
H109  H     H_    0.428706 0.963147 0.378646 0.153462
H110  H     H_    0.928706 0.536853 0.378646 0.153462
H111  H     H_    0.928726 0.463122 0.378668 0.153251
H112  H     H_    0.226315 0.911797 0.667979 0.083833
H113  H     H_    0.225565 0.087552 0.666021 0.089970
H114  H     H_    0.725565 0.412448 0.666021 0.089970
H115  H     H_    0.726315 0.588203 0.667979 0.083833
H116  H     H_    0.527038 0.088513 0.738408 0.088161
N1    N     N_R   0.392450 0.103580 0.942190 -0.035300
N2    N     N_R   0.525490 0.971610 0.207550 -0.030937
N3    N     N_R   0.025490 0.528390 0.207550 -0.030937
N4    N     N_R   0.025490 0.471610 0.207550 -0.031044
N5    N     N_R   0.317450 0.971190 0.792000 -0.034372
N6    N     N_R   0.317450 0.028810 0.792000 -0.033911
N7    N     N_R   0.817450 0.471190 0.792000 -0.033911
N8    N     N_R   0.817450 0.528810 0.792000 -0.034372
N9    N     N_R   0.473900 0.028390 0.792280 -0.036349
N10   N     N_R   0.473900 0.971610 0.792280 -0.036430
N11   N     N_R   0.973900 0.528390 0.792280 -0.036430
N12   N     N_R   0.392450 0.896420 0.942190 -0.035578
N13   N     N_R   0.973900 0.471610 0.792280 -0.036349
N14   N     N_R   0.682310 0.971180 0.208170 -0.038735
N15   N     N_R   0.682310 0.028820 0.208170 -0.038952
N16   N     N_R   0.182310 0.471180 0.208170 -0.038952
N17   N     N_R   0.182310 0.528820 0.208170 -0.038735
N18   N     N_R   0.606470 0.103570 0.057210 -0.031547
N19   N     N_R   0.606470 0.896430 0.057210 -0.031208
N20   N     N_R   0.106470 0.603570 0.057210 -0.031208
N21   N     N_R   0.106470 0.396430 0.057210 -0.031547
N22   N     N_R   0.549740 0.896000 0.943240 -0.031226
N23   N     N_R   0.892450 0.603580 0.942190 -0.035578
N24   N     N_R   0.549740 0.104000 0.943240 -0.031208
N25   N     N_R   0.049740 0.396000 0.943240 -0.031208
N26   N     N_R   0.049740 0.604000 0.943240 -0.031226
N27   N     N_R   0.892450 0.396420 0.942190 -0.035300
N28   N     N_R   0.450490 0.896000 0.057360 -0.035421
N29   N     N_R   0.450490 0.104000 0.057360 -0.035466
N30   N     N_R   0.950490 0.396000 0.057360 -0.035466
N31   N     N_R   0.950490 0.604000 0.057360 -0.035421
N32   N     N_R   0.525490 0.028390 0.207550 -0.031044
Ni1   Ni    Ni4+2 0.433780 0.065390 0.868430 0.205290
Ni2   Ni    Ni4+2 0.433780 0.934610 0.868430 0.205450
Ni3   Ni    Ni4+2 0.933780 0.565390 0.868430 0.205450
Ni4   Ni    Ni4+2 0.933780 0.434610 0.868430 0.205290
Ni5   Ni    Ni4+2 0.565800 0.934190 0.131570 0.205075
Ni6   Ni    Ni4+2 0.565800 0.065810 0.131570 0.205605
Ni7   Ni    Ni4+2 0.065800 0.434190 0.131570 0.205605
Ni8   Ni    Ni4+2 0.065800 0.565810 0.131570 0.205075

loop_
_geom_bond_atom_site_label_1
_geom_bond_atom_site_label_2
_ccdc_geom_bond_type
C30   C32   S    
N28   Ni5   S    
C5    C103  S    
C76   H47   S    
N21   N25   A    
C16   C21   A    
C106  N5    A    
C82   H64   S    
C23   C69   A    
C50   H30   S    
C3    C68   S    
C88   H103  S    
N15   Ni6   S    
C81   H69   S    
C74   C83   S    
C72   C76   S    
C45   H58   S    
C52   H27   S    
C71   C79   S    
C109  H115  S    
C50   H25   S    
C39   C41   S    
N18   N24   A    
C43   H56   S    
N16   N17   A    
C40   C46   S    
C62   H59   S    
C28   C46   S    
C52   H32   S    
C98   C105  S    
N30   Ni7   S    
N25   Ni4   S    
C64   C68   S    
C30   C48   S    
C97   H100  S    
C78   H49   S    
C47   N27   A    
C87   C100  S    
C29   C32   S    
C61   H45   S    
C91   N21   A    
C86   H83   S    
N20   N26   A    
C24   C73   S    
C55   H33   S    
C23   C102  A    
C69   H11   S    
C105  H110  S    
C53   H35   S    
C36   N23   A    
C15   H8    S    
C59   H74   S    
N14   Ni5   S    
C44   H57   S    
N22   Ni2   S    
C90   H105  S    
C31   H19   S    
N31   Ni8   S    
C24   C80   A    
C4    C88   A    
C88   N32   A    
C85   H87   S    
N6    Ni1   S    
C106  H112  S    
C94   C101  S    
C95   C103  S    
C90   N3    A    
N13   Ni4   S    
C29   C38   S    
C36   C112  A    
C6    C107  A    
C31   C33   S    
C92   N4    A    
C43   C110  A    
C89   N2    A    
C86   C100  S    
C50   C67   S    
C10   C19   A    
C58   H10   S    
C5    C90   A    
N1    N29   A    
C109  N8    A    
C51   C68   S    
C5    C92   A    
N23   N31   A    
C52   C54   S    
C62   C82   S    
C108  N7    A    
C60   C66   S    
C10   N11   A    
C8    N9    A    
N3    Ni8   S    
C65   H63   S    
C53   H37   S    
N11   Ni3   S    
C1    H1    S    
C93   H94   S    
C27   H62   S    
C34   C38   S    
C97   C99   S    
C69   N19   A    
C45   N31   A    
C8    H116  S    
C63   H52   S    
C60   C77   S    
C63   C67   S    
C3    C44   A    
C45   C112  A    
C17   C24   A    
C56   C74   S    
C49   C66   S    
C62   C66   S    
C29   C48   S    
N9    Ni1   S    
C34   C39   S    
C95   H97   S    
C14   C20   A    
C17   N26   A    
C58   N18   A    
C96   H98   S    
C81   H67   S    
C38   C41   S    
C54   H38   S    
C102  H15   S    
C93   C101  S    
C83   H65   S    
C36   H40   S    
C37   H2    S    
C59   C70   S    
C25   N12   A    
C84   H86   S    
C95   H92   S    
C16   N17   A    
C27   C31   S    
C65   H54   S    
C61   H76   S    
C8    C18   A    
C7    C109  A    
C63   C83   S    
C64   C79   S    
C51   C53   S    
C9    H3    S    
C49   H28   S    
C92   H107  S    
C42   C111  A    
C60   H44   S    
C2    C22   A    
C64   H53   S    
C85   C99   S    
C2    N24   A    
C1    C110  A    
C84   H81   S    
C85   C94   S    
C61   C67   S    
C67   C110  S    
C65   C81   S    
C52   C70   S    
C94   H96   S    
C42   N28   A    
C61   C78   S    
N7    N8    A    
C13   N25   A    
C4    C101  S    
C12   C20   A    
C80   N20   A    
N14   N15   A    
C6    C106  A    
C79   H66   S    
C78   H80   S    
N11   N13   A    
N19   Ni5   S    
C93   H90   S    
C98   H102  S    
C70   C112  S    
N24   Ni1   S    
C41   H23   S    
C89   H104  S    
N20   Ni8   S    
C20   C33   S    
C27   C46   S    
N3    N4    A    
C98   H101  S    
N2    N32   A    
N26   Ni3   S    
C101  C104  S    
C12   N14   A    
C74   C78   S    
C66   C111  S    
C103  C105  S    
C12   H6    S    
C13   C26   A    
N10   Ni2   S    
N17   Ni8   S    
C18   C99   S    
C87   H85   S    
C91   H14   S    
N32   Ni6   S    
C11   H5    S    
C35   H106  S    
C22   C71   S    
C43   N29   A    
C38   H13   S    
C10   H4    S    
C42   H55   S    
C75   H46   S    
C54   H36   S    
C4    C89   A    
C80   H12   S    
N19   N22   A    
N18   Ni6   S    
C30   C39   S    
C16   H9    S    
C15   N16   A    
C83   H71   S    
C59   H43   S    
C6    C46   S    
C32   H20   S    
C75   H77   S    
C17   H18   S    
C102  N22   A    
C84   C99   S    
C23   C72   S    
C107  N6    A    
C28   C31   S    
C25   H29   S    
N29   Ni6   S    
C72   C81   S    
N12   Ni2   S    
C56   H41   S    
C49   C55   S    
C22   C58   A    
C49   H24   S    
C19   C100  S    
C33   C35   S    
C87   C96   S    
C55   H39   S    
C104  H109  S    
C21   C34   S    
C96   H93   S    
N1    Ni1   S    
C37   C40   S    
C29   H84   S    
C39   H21   S    
C57   H42   S    
C82   H70   S    
C98   C100  S    
N4    Ni7   S    
C2    H16   S    
C33   C37   S    
N16   Ni7   S    
C27   C35   S    
C7    C48   S    
C57   C75   S    
C35   C40   S    
C26   C91   A    
C77   H79   S    
C47   H51   S    
C40   H22   S    
C105  H111  S    
C28   H73   S    
C71   C75   S    
C60   H75   S    
C32   C34   S    
N21   Ni7   S    
C63   H60   S    
C62   H50   S    
C108  H114  S    
C28   C37   S    
N7    Ni4   S    
C11   N13   A    
C30   H95   S    
C107  H113  S    
C3    C47   A    
N12   N28   A    
C41   C48   S    
C87   H89   S    
C73   C82   S    
C104  H108  S    
C84   C93   S    
C11   C19   A    
C56   H34   S    
C85   H82   S    
C97   H99   S    
C50   C56   S    
N27   N30   A    
C97   C104  S    
C76   H78   S    
C86   C95   S    
C25   C111  A    
C77   H48   S    
C44   N30   A    
C14   N15   A    
C55   C73   S    
C51   H26   S    
C1    N1    A    
C9    C18   A    
C15   C21   A    
C54   C72   S    
N27   Ni4   S    
N8    Ni3   S    
C26   C74   S    
C14   H7    S    
C51   H31   S    
C96   C103  S    
N23   Ni3   S    
C9    N10   A    
C73   C77   S    
C79   H68   S    
C94   H91   S    
C57   C68   S    
C64   H61   S    
N9    N10   A    
C59   C76   S    
C7    C108  A    
C57   H72   S    
C13   H17   S    
C65   C70   S    
N5    N6    A    
C86   H88   S    
N5    Ni2   S    
N2    Ni5   S    
C53   C71   S    
