data_mof_unit_18865.cif
_audit_creation_date              2012-12-10T17:30:19-0500
_audit_creation_method            fapswitch 2.2
_symmetry_space_group_name_H-M    P1
_symmetry_Int_Tables_number       1
_space_group_crystal_system       triclinic
_cell_length_a                    12.116922
_cell_length_b                    12.839615
_cell_length_c                    14.879645
_cell_angle_alpha                 91.182941
_cell_angle_beta                  88.176644
_cell_angle_gamma                 94.619807
_cell_volume                      2305.85560618

loop_
_atom_site_label
_atom_site_type_symbol
_atom_type_description
_atom_site_fract_x
_atom_site_fract_y
_atom_site_fract_z
_atom_type_partial_charge
C1    C     C_R   0.523019 0.699910 0.501072 0.884767
C2    C     C_R   0.384324 0.142914 0.560242 -0.275898
C3    C     C_R   0.468228 0.871013 0.553174 -0.058492
C4    C     C_R   0.529427 0.129028 0.445042 -0.057093
C5    C     C_R   0.461446 0.976748 0.532919 0.071654
C6    C     C_R   0.536235 0.023281 0.465272 0.073724
C7    C     C_R   0.947071 0.415173 0.403801 -0.091473
C8    C     C_R   0.052866 0.585020 0.596156 -0.092321
C9    C     C_R   0.833287 0.423155 0.415045 -0.057704
C10   C     C_R   0.166678 0.576894 0.584934 -0.058845
C11   C     C_R   0.860682 0.532868 0.544165 0.170431
C12   C     C_R   0.476872 0.300174 0.498653 0.882903
C13   C     C_R   0.139169 0.467210 0.455931 0.167688
C14   C     C_R   0.977898 0.530320 0.535756 0.001449
C15   C     C_R   0.021985 0.469915 0.464241 0.002365
C16   C     C_R   0.502054 0.499829 0.672514 0.889160
C17   C     C_R   0.498422 0.499772 0.327454 0.885472
C18   C     C_R   0.463050 0.404305 0.186562 -0.076225
C19   C     C_R   0.566835 0.579349 0.813065 -0.083330
C20   C     C_R   0.497564 0.497539 0.231282 -0.157650
C21   C     C_R   0.509427 0.496025 0.768269 -0.132919
C22   C     C_R   0.551292 0.582743 0.186649 0.056999
C23   C     C_R   0.648447 0.650437 0.954354 -0.068445
C24   C     C_R   0.473120 0.402901 0.810990 0.026034
C25   C     C_R   0.573793 0.574739 0.094024 0.119056
C26   C     C_R   0.488361 0.394187 0.903745 0.084091
C27   C     C_R   0.532336 0.483590 0.046353 -0.035116
C28   C     C_R   0.536148 0.482811 0.951797 -0.018378
C29   C     C_R   0.484157 0.394707 0.093036 -0.002438
C30   C     C_R   0.584702 0.572072 0.905629 0.019721
C31   C     C_R   0.640216 0.653457 0.048281 0.063991
C32   C     C_R   0.460009 0.299794 0.950426 0.056352
C33   C     C_1   0.400747 0.322854 0.237812 0.168036
C34   C     C_R   0.461330 0.299746 0.044203 -0.030279
C35   C     C_1   0.597301 0.674513 0.763572 0.177514
C36   C     C_1   0.980873 0.349279 0.329626 0.206845
C37   C     C_1   0.019080 0.651084 0.670211 0.205630
C38   C     C_1   0.728745 0.724688 0.910974 0.173666
C39   C     C_1   0.446344 0.198902 0.087280 0.243318
C40   C     C_1   0.586900 0.177727 0.367452 0.245164
C41   C     C_1   0.408696 0.822102 0.629744 0.249792
C42   C     C_R   0.460635 0.188500 0.498749 -0.115887
C43   C     C_R   0.538493 0.811743 0.500485 -0.115645
C44   C     C_R   0.616505 0.962925 0.421995 0.105743
C45   C     C_R   0.381493 0.037333 0.576457 0.103340
C46   C     C_R   0.614716 0.857512 0.438977 -0.270738
H1    H     H_    0.328508 0.190252 0.598406 0.163912
H2    H     H_    0.787592 0.728686 0.082930 0.193693
H3    H     H_    0.356088 0.199887 0.877047 0.216843
H4    H     H_    0.496165 0.187338 0.856844 0.213572
H5    H     H_    0.778122 0.993907 0.385991 0.196242
H6    H     H_    0.692886 0.967759 0.298996 0.199527
H7    H     H_    0.219720 0.007491 0.612513 0.197537
H8    H     H_    0.305233 0.032288 0.699526 0.192845
H9    H     H_    0.221338 0.464867 0.335899 0.216600
H10   H     H_    0.244178 0.363885 0.405724 0.245929
H11   H     H_    0.779043 0.533865 0.664600 0.214874
H12   H     H_    0.671262 0.810433 0.401384 0.162562
H13   H     H_    0.754949 0.635518 0.595928 0.242950
H14   H     H_    0.223703 0.616879 0.631082 0.166885
H15   H     H_    0.776223 0.383016 0.368962 0.166367
H16   H     H_    0.636931 0.667543 0.282854 0.203131
H17   H     H_    0.506162 0.702467 0.268302 0.182060
H18   H     H_    0.346969 0.344351 0.732685 0.208194
H19   H     H_    0.471833 0.296428 0.707631 0.182864
H20   H     H_    0.681233 0.807025 0.077056 0.203016
N1    N     N_R   0.207800 0.519350 0.516680 -0.125917
N2    N     N_3   0.434156 0.201189 0.905070 -0.450459
N3    N     N_1   0.793385 0.783976 0.877193 -0.169001
N4    N     N_1   0.434879 0.118004 0.120788 -0.180540
N5    N     N_1   0.632056 0.216809 0.305620 -0.206204
N6    N     N_1   0.361857 0.782925 0.690795 -0.204327
N7    N     N_3   0.700823 0.007035 0.361031 -0.449060
N8    N     N_3   0.296868 0.993512 0.637299 -0.449509
N9    N     N_3   0.186104 0.411256 0.382338 -0.445419
N10   N     N_3   0.813589 0.588019 0.618320 -0.447262
N11   N     N_R   0.792200 0.480650 0.483320 -0.125775
N12   N     N_1   0.351201 0.258167 0.278832 -0.200538
N13   N     N_1   0.621550 0.749860 0.723761 -0.202842
N14   N     N_1   0.007236 0.296340 0.270120 -0.178440
N15   N     N_1   0.992748 0.704164 0.729623 -0.169276
N16   N     N_3   0.577835 0.679226 0.235226 -0.434168
N17   N     N_3   0.418424 0.318896 0.759792 -0.493788
N18   N     N_3   0.703249 0.734241 0.097469 -0.430909
O1    O     O_R   0.421700 0.658830 0.504450 -0.609629
O2    O     O_R   0.578300 0.341170 0.495550 -0.610205
O3    O     O_R   0.609310 0.646410 0.493750 -0.639684
O4    O     O_R   0.390690 0.353590 0.506250 -0.637915
O5    O     O_R   0.406180 0.506230 0.637500 -0.622107
O6    O     O_R   0.593820 0.493770 0.362500 -0.620104
O7    O     O_R   0.593800 0.493820 0.626800 -0.639067
O8    O     O_R   0.406200 0.506180 0.373200 -0.638277
Zn1   Zn    Zn3+2 0.374730 0.508290 0.507150 0.937094
Zn2   Zn    Zn3+2 0.625270 0.491710 0.492850 0.937693

loop_
_geom_bond_atom_site_label_1
_geom_bond_atom_site_label_2
_ccdc_geom_bond_type
C25   C31   A    
C1    O3    A    
C16   C21   S    
H3    N2    S    
C27   C29   A    
C7    C36   S    
H7    N8    S    
C10   N1    A    
C26   C32   A    
C3    C43   A    
C9    H15   S    
C22   N16   S    
H11   N10   S    
C40   N5    T    
C24   N17   S    
C24   C26   A    
C11   N10   S    
C5    C6    A    
C11   C14   A    
C33   N12   T    
H19   N17   S    
O3    Zn2   S    
N11   Zn2   S    
C17   C20   S    
C12   C42   S    
O2    Zn2   S    
H8    N8    S    
O1    Zn1   S    
C1    C43   S    
C13   N9    S    
C22   C25   A    
C11   N11   A    
C32   N2    S    
H9    N9    S    
C7    C15   A    
H16   N16   S    
C38   N3    T    
C16   O5    A    
H10   N9    S    
C6    C44   A    
C46   H12   S    
C37   N15   T    
C17   O8    A    
C18   C33   S    
C44   C46   A    
O6    Zn2   S    
C2    C45   A    
C1    O1    A    
C12   O4    A    
H17   N16   S    
C34   C39   S    
C23   C30   A    
C4    C40   S    
C4    C6    A    
H6    N7    S    
C36   N14   T    
C5    C45   A    
C29   C34   A    
C31   N18   S    
H2    N18   S    
C45   N8    S    
C32   C34   A    
C10   H14   S    
H18   N17   S    
C18   C29   A    
C9    N11   A    
C41   N6    T    
C20   C22   A    
C13   C15   A    
C8    C37   S    
C13   N1    A    
C7    C9    A    
O4    Zn1   S    
C3    C41   S    
C8    C14   A    
C19   C21   A    
C17   O6    A    
H5    N7    S    
C3    C5    A    
C2    H1    S    
C25   C27   A    
C23   C38   S    
C26   C28   A    
C12   O2    A    
C28   C30   A    
C19   C35   S    
O7    Zn2   S    
C4    C42   A    
C2    C42   A    
C35   N13   T    
O8    Zn1   S    
C39   N4    T    
C18   C20   A    
O5    Zn1   S    
C44   N7    S    
C43   C46   A    
H20   N18   S    
C16   O7    A    
C8    C10   A    
C21   C24   A    
C27   C28   A    
N1    Zn1   S    
C14   C15   A    
C19   C30   A    
H4    N2    S    
H13   N10   S    
C23   C31   A    
