data_mof_unit_17978.cif
_audit_creation_date              2013-03-05T16:20:44-0500
_audit_creation_method            fapswitch 2.2
_symmetry_space_group_name_H-M    P1
_symmetry_Int_Tables_number       1
_space_group_crystal_system       triclinic
_cell_length_a                    15.7336
_cell_length_b                    15.751011
_cell_length_c                    15.002199
_cell_angle_alpha                 89.439757
_cell_angle_beta                  88.960509
_cell_angle_gamma                 89.863503
_cell_volume                      3717.04796308

loop_
_atom_site_label
_atom_site_type_symbol
_atom_site_description
_atom_site_fract_x
_atom_site_fract_y
_atom_site_fract_z
_atom_type_partial_charge
O1    O     O_R   0.500080 0.377210 0.574260 -0.571802
O2    O     O_R   0.499910 0.377070 0.425800 -0.573688
C1    C     C_R   0.499953 0.338088 0.500439 0.902588
O3    O     O_R   0.376870 0.500060 0.574220 -0.590081
O4    O     O_R   0.376690 0.499920 0.425760 -0.573215
C2    C     C_R   0.337650 0.499529 0.500780 0.887323
Zn1   Zn    Zn3+2 0.500120 0.500090 0.599130 1.141638
Zn2   Zn    Zn3+2 0.499880 0.499910 0.400870 1.122909
O5    O     O_R   0.500090 0.622930 0.574200 -0.592718
O6    O     O_R   0.499920 0.622790 0.425740 -0.615015
O7    O     O_R   0.623310 0.500080 0.574240 -0.579016
O8    O     O_R   0.623130 0.499940 0.425780 -0.601339
C3    C     C_R   0.499368 0.662017 0.499570 0.873652
C4    C     C_R   0.662391 0.499582 0.499219 0.875899
C5    C     C_3   0.974419 0.430466 0.447379 0.284685
C6    C     C_3   0.030878 0.505761 0.418449 0.340582
H1    H     H_    0.948382 0.630366 0.442658 0.225886
C7    C     C_1   0.249114 0.496927 0.502534 -0.022166
C8    C     C_1   0.751015 0.496913 0.497535 -0.059096
C9    C     C_3   0.027267 0.417784 0.532029 0.229160
C10   C     C_3   0.083431 0.493210 0.502811 -0.169576
C11   C     C_3   0.968774 0.479840 0.583191 0.292119
C12   C     C_3   0.916692 0.492626 0.498550 -0.164658
C13   C     C_3   0.025242 0.555141 0.553889 -0.184893
C14   C     C_3   0.972251 0.568814 0.468941 -0.334134
C15   C     C_1   0.174078 0.494716 0.503262 0.230553
C16   C     C_1   0.826094 0.494509 0.497193 0.191101
C17   C     C_3   0.567357 0.044921 0.531767 -0.237771
C18   C     C_3   0.465704 0.052471 0.396303 0.113041
C19   C     C_3   0.448260 0.949991 0.400255 0.121478
H2    H     H_    0.610667 0.935991 0.455090 0.273329
C20   C     C_1   0.491691 0.750305 0.498833 -0.015994
C21   C     C_3   0.480670 0.083635 0.498761 -0.267301
C22   C     C_3   0.568976 0.949488 0.512686 -0.242702
C23   C     C_3   0.477089 0.916931 0.497769 -0.238191
C24   C     C_3   0.417460 0.949221 0.581162 0.057048
C25   C     C_3   0.408322 0.053080 0.572161 0.468063
C26   C     C_1   0.484002 0.825175 0.498270 0.085201
C27   C     C_1   0.487731 0.175073 0.500816 0.055984
C28   C     C_1   0.494144 0.249917 0.501233 0.002434
H3    H     H_    0.568684 0.050331 0.603633 0.266131
H4    H     H_    0.600746 0.914780 0.567582 0.243118
C29   C     C_3   0.437330 0.413854 0.057413 0.482637
C30   C     C_3   0.591884 0.478549 0.051253 0.117546
C31   C     C_3   0.591411 0.483472 0.945804 0.131041
H5    H     H_    0.625973 0.536941 0.065978 0.132412
H6    H     H_    0.618928 0.546568 0.927797 0.195789
N1    N     N_1   0.498320 0.498630 0.731150 -0.031945
C32   C     C_3   0.497233 0.492885 0.091234 -0.364280
C33   C     C_3   0.438698 0.412140 0.946331 0.019415
C34   C     C_3   0.496869 0.490091 0.909590 -0.271752
C35   C     C_3   0.457212 0.575820 0.947871 -0.357165
C36   C     C_3   0.469238 0.586098 0.052180 0.134192
C37   C     C_1   0.497752 0.495195 0.808910 0.459951
C38   C     C_1   0.500129 0.498011 0.191221 0.364737
N2    N     N_1   0.501700 0.501360 0.268850 -0.037440
H7    H     H_    0.389303 0.569330 0.938042 0.255452
S1    S     S_3+6 0.075498 0.524570 0.309861 0.137950
O9    O     O_2   0.126646 0.604981 0.310301 -0.200509
O10   O     O_2   0.132848 0.451917 0.284411 -0.225388
O11   O     O_3   0.997214 0.534809 0.235606 -0.450835
H8    H     H_    0.993836 0.479065 0.205917 0.407747
S2    S     S_3+6 0.556493 0.085821 0.321944 0.101062
O12   O     O_2   0.533825 0.077867 0.225529 -0.151327
O13   O     O_2   0.575017 0.178218 0.336135 -0.306372
O14   O     O_3   0.647607 0.031990 0.335715 -0.500205
H9    H     H_    0.689599 0.060453 0.295610 0.413041
S3    S     S_3+6 0.498468 0.888563 0.308522 0.129203
O15   O     O_2   0.475884 0.926349 0.219753 -0.107064
O16   O     O_2   0.593273 0.880333 0.313744 -0.245600
O17   O     O_3   0.458058 0.789582 0.310290 -0.546044
H10   H     H_    0.496868 0.755797 0.271856 0.390578
C39   C     C_2   0.356082 0.922834 0.385784 0.542391
H11   H     H_    0.331189 0.867473 0.419359 0.045277
O18   O     O_2   0.313953 0.948680 0.323686 -0.393321
S4    S     S_3+6 0.419289 0.110145 0.680411 0.159112
O19   O     O_2   0.400182 0.202864 0.666402 -0.214823
O20   O     O_2   0.354306 0.077879 0.746924 -0.122934
O21   O     O_3   0.514448 0.105820 0.729362 -0.511693
H12   H     H_    0.507059 0.137738 0.785555 0.414728
S5    S     S_3+6 0.300229 0.090854 0.541806 0.074972
O22   O     O_2   0.302749 0.183523 0.516998 -0.276329
O23   O     O_2   0.261285 0.042872 0.467312 -0.325120
O24   O     O_3   0.232022 0.083781 0.629366 -0.376907
H13   H     H_    0.179433 0.112493 0.609584 0.423761
S6    S     S_3+6 0.461500 0.908210 0.688167 0.093261
O25   O     O_2   0.400269 0.924029 0.764191 -0.145501
O26   O     O_2   0.471544 0.813472 0.682788 -0.299590
O27   O     O_3   0.556520 0.947032 0.716512 -0.513292
H14   H     H_    0.570480 0.917853 0.773192 0.419330
C40   C     C_2   0.332086 0.902965 0.584059 0.535998
H15   H     H_    0.326427 0.840361 0.555824 0.032948
O28   O     O_2   0.273589 0.925849 0.632574 -0.397566
C41   C     C_2   0.472634 0.328229 0.908232 0.640188
H16   H     H_    0.458284 0.268292 0.940167 0.153187
O29   O     O_2   0.502584 0.323646 0.832727 -0.505100
S7    S     S_3+6 0.936046 0.348559 0.377371 0.119884
O30   O     O_2   0.886477 0.285438 0.433034 -0.203822
O31   O     O_2   0.879184 0.386754 0.308198 -0.261454
O32   O     O_3   0.018695 0.299637 0.327111 -0.457544
H17   H     H_    0.992795 0.255642 0.289545 0.400824
S8    S     S_3+6 0.475986 0.312286 0.106013 0.097468
O33   O     O_2   0.558849 0.284381 0.065478 -0.244600
O34   O     O_2   0.485379 0.319052 0.205198 -0.204318
O35   O     O_3   0.407058 0.232844 0.088587 -0.467286
H18   H     H_    0.432268 0.182363 0.117876 0.432397
S9    S     S_3+6 0.673745 0.418926 0.113237 0.159976
O36   O     O_2   0.747515 0.477589 0.127996 -0.227840
O37   O     O_2   0.641020 0.391020 0.203417 -0.222632
O38   O     O_3   0.713844 0.333012 0.061904 -0.382184
H19   H     H_    0.759060 0.311667 0.101446 0.399547
S10   S     S_3+6 0.668125 0.417011 0.886786 0.146133
O39   O     O_2   0.654214 0.323914 0.903433 -0.175401
O40   O     O_2   0.665310 0.434083 0.788164 -0.245106
O41   O     O_3   0.765837 0.443135 0.920872 -0.433159
H20   H     H_    0.805266 0.407038 0.885540 0.418112
S11   S     S_3+6 0.374441 0.638719 0.101685 0.075185
O42   O     O_2   0.347753 0.598181 0.188724 -0.210985
O43   O     O_2   0.393632 0.730417 0.120426 -0.242297
O44   O     O_3   0.291685 0.640901 0.032026 -0.473488
H21   H     H_    0.245298 0.669664 0.065618 0.429115
C42   C     C_2   0.537894 0.651581 0.076813 0.447452
H22   H     H_    0.547331 0.665026 0.146793 0.081610
O45   O     O_2   0.584543 0.687036 0.022323 -0.500294
S12   S     S_3+6 0.329760 0.416903 0.110219 0.192896
O46   O     O_2   0.337610 0.425796 0.209407 -0.230908
O47   O     O_2   0.273774 0.486659 0.077733 -0.146718
O48   O     O_3   0.275805 0.326456 0.094727 -0.398325
H23   H     H_    0.223766 0.331546 0.132496 0.406395
S13   S     S_3+6 0.333225 0.410763 0.892403 0.094029
O49   O     O_2   0.276303 0.485292 0.910985 -0.202365
O50   O     O_2   0.345418 0.406581 0.792862 -0.257110
O51   O     O_3   0.281455 0.321515 0.922634 -0.446591
H24   H     H_    0.229273 0.321513 0.886662 0.413882
C43   C     C_2   0.474582 0.656737 0.894040 0.565399
H25   H     H_    0.431574 0.710293 0.901589 0.153714
O52   O     O_2   0.536423 0.664013 0.844166 -0.505924
C44   C     C_2   0.051723 0.625443 0.613856 0.634115
H26   H     H_    0.003632 0.665002 0.645446 0.101717
O53   O     O_2   0.126718 0.638592 0.627545 -0.521383
S14   S     S_3+6 0.923346 0.464516 0.692101 0.081006
O54   O     O_2   0.870652 0.540754 0.716585 -0.224151
O55   O     O_2   0.867241 0.387381 0.692918 -0.267618
O56   O     O_3   0.001123 0.452318 0.766646 -0.467932
H27   H     H_    0.005967 0.390299 0.776836 0.386073
S15   S     S_3+6 0.068688 0.319195 0.572156 0.128713
O57   O     O_2   0.120716 0.278004 0.499544 -0.157729
O58   O     O_2   0.124634 0.335055 0.650429 -0.272844
O59   O     O_3   0.988416 0.254173 0.602634 -0.441273
H28   H     H_    0.984461 0.257512 0.668457 0.384697
C45   C     C_2   0.650205 0.089118 0.506865 0.619689
H29   H     H_    0.651212 0.154005 0.482422 0.111279
O60   O     O_2   0.718152 0.053859 0.519899 -0.485359
C46   C     C_2   0.394372 0.103628 0.352643 0.619916
H30   H     H_    0.371157 0.161485 0.381681 0.115471
O61   O     O_2   0.371415 0.089334 0.276917 -0.418418

loop_
_geom_bond_atom_site_label_1
_geom_bond_atom_site_label_2
_geom_bond_distance
_ccdc_geom_bond_type
C30   C32   1.611547 S    
C10   C15   1.426599 S    
S2    O13   1.502862 D    
C6    C10   1.535207 S    
C39   O18   1.219287 D    
C39   H11   1.073948 S    
C3    C20   1.395523 S    
C23   C24   1.634506 S    
C7    C15   1.181034 T    
S4    O21   1.680468 S    
C38   N2    1.167033 T    
O48   H23   0.990756 S    
Zn2   N2    1.980187 S    
C18   S2    1.869523 S    
S7    O30   1.502621 D    
C31   S10   1.819311 S    
O59   H28   0.990211 S    
C43   H25   1.085664 S    
C35   C36   1.589538 S    
Zn1   O7    1.967199 S    
C21   C27   1.445457 S    
C19   C23   1.620215 S    
C29   S12   1.856353 S    
S4    O20   1.501622 D    
C36   C42   1.547414 S    
S11   O43   1.506455 D    
O4    C2    1.272312 A    
O7    C4    1.272750 A    
C36   S11   1.851780 S    
C31   C34   1.595661 S    
S1    O10   1.503552 D    
C5    C6    1.537825 S    
C18   C21   1.639366 S    
C17   H3    1.082919 S    
S8    O35   1.683254 S    
C43   O52   1.221521 D    
C22   C23   1.555855 S    
O5    C3    1.272656 A    
O38   H19   0.990628 S    
C33   S13   1.859594 S    
S7    O31   1.502712 D    
O24   H13   0.990809 S    
S3    O15   1.501543 D    
C22   H4    1.109861 S    
S12   O48   1.680366 S    
C45   H29   1.082501 S    
C12   C16   1.426189 S    
C8    C16   1.181690 T    
C46   O61   1.221500 D    
O11   H8    0.990394 S    
C41   O29   1.221644 D    
C9    S15   1.785968 S    
S1    O11   1.682064 S    
C5    C12   1.535582 S    
O14   H9    0.990558 S    
S2    O14   1.678754 S    
C17   C22   1.533000 S    
S9    O37   1.500930 D    
C25   S5    1.863252 S    
C41   H16   1.077044 S    
C5    S7    1.784715 S    
O3    Zn1   1.981495 S    
S10   O40   1.502625 D    
S10   O39   1.500960 D    
S5    O23   1.496373 D    
C30   H5    1.092255 S    
S5    O22   1.503248 D    
S15   O58   1.503469 D    
C31   H6    1.113844 S    
C5    C9    1.541622 S    
C2    C7    1.393455 S    
O2    Zn2   1.967077 S    
C34   C35   1.593948 S    
C23   C26   1.449036 S    
C13   C14   1.548533 S    
O3    C2    1.272637 A    
C44   H26   1.084369 S    
S14   O56   1.682080 S    
C40   H15   1.081507 S    
C19   C39   1.532854 S    
S6    O25   1.501858 D    
C29   C32   1.652460 S    
C13   C44   1.498124 S    
S1    O9    1.502351 D    
C32   C38   1.504506 S    
S6    O27   1.679967 S    
C21   C25   1.639100 S    
O21   H12   0.990664 S    
O1    C1    1.272652 A    
N1    C37   1.167171 T    
S13   O50   1.504206 D    
C18   C19   1.638289 S    
C40   O28   1.219007 D    
S15   O59   1.681987 S    
Zn2   O8    1.981495 S    
C33   C34   1.619508 S    
H2    C22   1.097469 S    
C6    S1    1.784519 S    
S4    O19   1.503849 D    
S8    O34   1.502822 D    
C46   H30   1.074270 S    
C44   O53   1.219887 D    
C24   C40   1.529364 S    
Zn2   O6    1.974702 S    
C25   S4    1.874686 S    
C9    C11   1.541509 S    
C1    C28   1.391923 S    
C20   C26   1.185146 T    
S12   O46   1.503322 D    
S9    O38   1.679587 S    
C11   C13   1.539475 S    
S11   O44   1.684367 S    
S13   O51   1.680736 S    
S9    O36   1.506115 D    
C42   O45   1.220693 D    
C27   C28   1.183501 T    
S5    O24   1.684086 S    
O44   H21   0.990671 S    
S15   O57   1.502205 D    
C30   S9    1.850978 S    
C6    C14   1.547887 S    
Zn1   O5    1.967077 S    
C24   C25   1.646285 S    
S7    O32   1.680560 S    
O1    Zn1   1.974701 S    
C4    C8    1.394697 S    
C33   C41   1.535895 S    
C30   C31   1.583271 S    
O8    C4    1.272793 A    
O56   H27   0.990242 S    
O6    C3    1.273440 A    
C17   C21   1.578567 S    
O4    Zn2   1.967200 S    
C29   C33   1.666706 S    
O35   H18   0.990246 S    
C34   C37   1.511581 S    
C24   S6    1.868789 S    
Zn1   N1    1.980188 S    
S14   O55   1.503313 D    
O2    C1    1.271784 A    
O27   H14   0.990549 S    
C29   S8    1.857278 S    
H1    C14   1.110238 S    
O17   H10   0.990054 S    
S14   O54   1.502357 D    
O51   H24   0.990643 S    
S3    O17   1.684893 S    
C32   C36   1.637780 S    
C11   S14   1.785898 S    
O32   H17   0.990557 S    
S13   O49   1.500065 D    
S6    O26   1.502990 D    
C45   O60   1.221545 D    
S8    O33   1.495471 D    
C35   H7    1.086430 S    
S2    O12   1.502507 D    
C12   C14   1.543366 S    
C9    C10   1.537910 S    
C17   C45   1.518171 S    
S3    O16   1.500338 D    
C10   C13   1.536835 S    
S12   O47   1.490341 D    
C35   C43   1.524734 S    
C11   C12   1.535063 S    
C42   H22   1.085926 S    
S11   O42   1.501381 D    
S10   O41   1.682256 S    
C19   S3    1.853932 S    
O41   H20   0.990636 S    
C18   C46   1.532944 S    
