data_mof_unit_25187.cif
_audit_creation_date              2012-12-11T14:03:48-0500
_audit_creation_method            fapswitch 2.2
_symmetry_space_group_name_H-M    P1
_symmetry_Int_Tables_number       1
_space_group_crystal_system       triclinic
_cell_length_a                    19.146022
_cell_length_b                    11.086856
_cell_length_c                    18.729581
_cell_angle_alpha                 90.337748
_cell_angle_beta                  88.944194
_cell_angle_gamma                 89.798687
_cell_volume                      3974.94282968

loop_
_atom_site_label
_atom_site_type_symbol
_atom_type_description
_atom_site_fract_x
_atom_site_fract_y
_atom_site_fract_z
_atom_type_partial_charge
C1    C     C_R   0.240627 0.464428 0.648300 0.532135
C2    C     C_R   0.759116 0.463915 0.351311 0.534663
C3    C     C_R   0.740975 0.963585 0.648742 0.534426
C4    C     C_R   0.259460 0.964762 0.351758 0.532338
C5    C     C_2   0.272323 0.819478 0.530795 -0.115972
C6    C     C_2   0.726527 0.817162 0.469636 -0.120447
C7    C     C_2   0.773911 0.317416 0.529937 -0.120209
C8    C     C_2   0.228054 0.319107 0.468814 -0.115829
C9    C     C_R   0.006537 0.658206 0.424258 -0.045425
C10   C     C_R   0.995698 0.666308 0.574740 -0.048806
C11   C     C_R   0.504339 0.166619 0.425328 -0.048757
C12   C     C_R   0.493514 0.158122 0.575748 -0.045604
C13   C     C_R   0.032516 0.873434 0.422108 -0.089065
C14   C     C_R   0.003054 0.890063 0.568106 -0.073492
C15   C     C_R   0.496240 0.390200 0.433458 -0.074629
C16   C     C_R   0.467287 0.373931 0.579442 -0.088200
C17   C     C_R   0.038540 0.983453 0.457177 -0.135940
C18   C     C_R   0.021520 0.992721 0.529530 -0.132055
C19   C     C_R   0.478146 0.493159 0.472836 -0.133355
C20   C     C_R   0.461521 0.484217 0.545225 -0.135427
C21   C     C_R   0.003679 0.775000 0.535123 0.005153
C22   C     C_R   0.012995 0.769115 0.459927 0.002926
C23   C     C_R   0.486692 0.269261 0.540856 0.003314
C24   C     C_R   0.495897 0.275199 0.465686 0.004873
C25   C     C_R   0.985974 0.556467 0.537480 -0.007052
C26   C     C_R   0.006646 0.550296 0.464882 -0.002290
C27   C     C_R   0.493950 0.050287 0.534337 -0.003306
C28   C     C_R   0.514680 0.056750 0.461815 -0.005966
C29   C     C_R   0.961436 0.449272 0.571659 0.129997
C30   C     C_R   0.025246 0.435164 0.435538 0.120885
C31   C     C_R   0.475825 0.934990 0.562705 0.118397
C32   C     C_R   0.539753 0.949713 0.426792 0.132327
C33   C     C_R   0.973428 0.338160 0.539000 -0.144904
C34   C     C_R   0.007863 0.331352 0.473149 -0.158731
C35   C     C_R   0.493256 0.831332 0.523986 -0.159848
C36   C     C_R   0.527778 0.838383 0.458254 -0.143531
C37   C     C_2   0.237682 0.901281 0.927433 0.139417
C38   C     C_2   0.743069 0.933728 0.085689 0.127541
C39   C     C_2   0.737687 0.401296 0.927427 0.139156
C40   C     C_2   0.243077 0.433706 0.085678 0.127517
C41   C     C_2   0.249742 0.891934 0.087234 -0.107135
C42   C     C_2   0.744263 0.937520 0.925827 -0.087621
C43   C     C_2   0.749747 0.391940 0.087231 -0.107022
C44   C     C_2   0.244270 0.437506 0.925820 -0.087748
C45   C     C_R   0.227893 0.873694 0.647448 0.545593
C46   C     C_R   0.772268 0.873073 0.353241 0.544843
C47   C     C_R   0.727864 0.373040 0.646869 0.547026
C48   C     C_R   0.272250 0.373652 0.352692 0.542888
C49   C     C_2   0.191808 0.906264 0.050456 -0.131735
C50   C     C_2   0.762702 0.027087 0.970426 -0.106835
C51   C     C_2   0.691816 0.406271 0.050450 -0.131590
C52   C     C_2   0.262708 0.527071 0.970419 -0.106884
C53   C     C_2   0.189140 0.865745 0.976600 0.100828
C54   C     C_2   0.783213 0.003489 0.043221 0.095104
C55   C     C_2   0.689151 0.365744 0.976596 0.100666
C56   C     C_2   0.283222 0.503466 0.043211 0.095176
C57   C     C_2   0.978169 0.671856 0.907570 -0.072607
C58   C     C_2   0.999228 0.653853 0.079760 -0.051928
C59   C     C_2   0.478180 0.171858 0.907577 -0.072559
C60   C     C_2   0.499241 0.153852 0.079770 -0.052018
C61   C     C_2   0.950820 0.641337 0.029671 0.079764
C62   C     C_2   0.972271 0.592977 0.960375 0.060338
C63   C     C_2   0.450835 0.141340 0.029679 0.079652
C64   C     C_2   0.472290 0.092982 0.960384 0.060496
C65   C     C_R   0.028107 0.655702 0.646060 0.523358
C66   C     C_R   0.972478 0.654123 0.353537 0.522328
C67   C     C_R   0.527543 0.154029 0.646462 0.522014
C68   C     C_R   0.471884 0.155833 0.353977 0.523709
C69   C     C_R   0.237883 0.469272 0.851716 0.537155
C70   C     C_R   0.761166 0.463054 0.150801 0.549860
C71   C     C_R   0.737881 0.969277 0.851720 0.537310
C72   C     C_R   0.261165 0.963054 0.150801 0.549729
C73   C     C_R   0.225863 0.871659 0.853533 0.583974
C74   C     C_R   0.771839 0.875709 0.148592 0.592333
C75   C     C_R   0.725867 0.371669 0.853528 0.584621
C76   C     C_R   0.271843 0.375699 0.148587 0.591608
C77   C     C_R   0.026001 0.653496 0.847811 0.583828
C78   C     C_R   0.973910 0.651912 0.152000 0.564155
C79   C     C_R   0.526006 0.153497 0.847815 0.583384
C80   C     C_R   0.473916 0.151912 0.152007 0.564709
C81   C     C_2   0.251944 0.909752 0.575985 0.021975
C82   C     C_2   0.748142 0.907817 0.425760 0.025300
C83   C     C_2   0.752300 0.407944 0.574682 0.024205
C84   C     C_2   0.248458 0.409532 0.424480 0.022948
C85   C     C_2   0.241258 0.895562 0.415333 -0.106860
C86   C     C_2   0.760090 0.892115 0.585599 -0.102231
C87   C     C_2   0.740208 0.393566 0.414480 -0.102136
C88   C     C_2   0.258995 0.394201 0.584715 -0.106974
C89   C     C_2   0.288160 0.834809 0.454208 -0.026022
C90   C     C_2   0.713662 0.828864 0.547495 -0.030191
C91   C     C_2   0.786627 0.329476 0.452080 -0.029804
C92   C     C_2   0.212098 0.334134 0.545432 -0.026458
Cr1   Cr    Cr6+3 0.113970 0.508630 0.747920 1.009864
Cr2   Cr    Cr6+3 0.886030 0.508630 0.252080 0.993505
Cr3   Cr    Cr6+3 0.613970 0.008630 0.747920 1.007232
Cr4   Cr    Cr6+3 0.386030 0.008630 0.252080 0.996499
Cr5   Cr    Cr6+3 0.269200 0.666740 0.749850 1.013601
Cr6   Cr    Cr6+3 0.730800 0.666740 0.250150 1.011196
Cr7   Cr    Cr6+3 0.769200 0.166740 0.749850 1.012624
Cr8   Cr    Cr6+3 0.230800 0.166740 0.250150 1.012361
Cr9   Cr    Cr6+3 0.112300 0.820070 0.749800 1.010700
Cr10  Cr    Cr6+3 0.887700 0.820070 0.250200 1.027251
Cr11  Cr    Cr6+3 0.612300 0.320070 0.749800 1.014868
Cr12  Cr    Cr6+3 0.387700 0.320070 0.250200 1.023121
H1    H     H_    0.293063 0.839288 0.065111 0.116040
H2    H     H_    0.735440 0.845563 0.943365 0.100922
H3    H     H_    0.793070 0.339297 0.065108 0.115982
H4    H     H_    0.235454 0.345545 0.943354 0.100966
H5    H     H_    0.053524 0.630376 0.069060 0.044122
H6    H     H_    0.958732 0.763451 0.915861 0.067896
H7    H     H_    0.553536 0.130373 0.069074 0.044144
H8    H     H_    0.458742 0.263453 0.915867 0.067728
H9    H     H_    0.280456 0.729854 0.551859 0.138117
H10   H     H_    0.714772 0.729990 0.446495 0.138125
H11   H     H_    0.785802 0.230147 0.552405 0.137153
H12   H     H_    0.220104 0.229508 0.447096 0.138948
H13   H     H_    0.189350 0.911477 0.438022 0.103302
H14   H     H_    0.811496 0.909285 0.562248 0.097187
H15   H     H_    0.688933 0.411849 0.438119 0.097165
H16   H     H_    0.310975 0.409184 0.562225 0.103682
H17   H     H_    0.056468 0.060939 0.427595 0.107748
H18   H     H_    0.023570 0.079162 0.556197 0.095253
H19   H     H_    0.476229 0.579656 0.446767 0.094678
H20   H     H_    0.444253 0.562308 0.575482 0.109358
H21   H     H_    0.046448 0.869229 0.365852 0.121582
H22   H     H_    0.987625 0.902206 0.623494 0.129565
H23   H     H_    0.511443 0.402141 0.378097 0.129409
H24   H     H_    0.453501 0.369964 0.635703 0.122243
H25   H     H_    0.955783 0.256532 0.564942 0.120866
H26   H     H_    0.018999 0.244477 0.449713 0.117440
H27   H     H_    0.482190 0.744267 0.546502 0.117493
H28   H     H_    0.545485 0.756744 0.431514 0.120626
H29   H     H_    0.146713 0.954036 0.072725 0.140996
H30   H     H_    0.772298 0.117742 0.950664 0.146922
H31   H     H_    0.646720 0.454044 0.072716 0.141024
H32   H     H_    0.272298 0.617731 0.950662 0.146943
O1    O     O_R   0.043230 0.549300 0.667990 -0.528302
O2    O     O_R   0.956770 0.549300 0.332010 -0.530799
O3    O     O_R   0.543230 0.049300 0.667990 -0.532103
O4    O     O_R   0.456770 0.049300 0.332010 -0.526890
O5    O     O_R   0.262920 0.788600 0.824420 -0.508921
O6    O     O_R   0.737080 0.788600 0.175580 -0.509584
O7    O     O_R   0.762920 0.288600 0.824420 -0.508822
O8    O     O_R   0.237080 0.288600 0.175580 -0.509702
O9    O     O_R   0.167530 0.905110 0.830340 -0.495218
O10   O     O_R   0.832470 0.905110 0.169660 -0.466881
O11   O     O_R   0.667530 0.405110 0.830340 -0.494978
O12   O     O_R   0.332470 0.405110 0.169660 -0.467003
O13   O     O_R   0.054010 0.748440 0.822860 -0.495022
O14   O     O_R   0.945990 0.748440 0.177140 -0.472401
O15   O     O_R   0.554010 0.248440 0.822860 -0.495483
O16   O     O_R   0.445990 0.248440 0.177140 -0.471923
O17   O     O_3   0.165160 0.665150 0.749190 -0.247686
O18   O     O_3   0.834840 0.665150 0.250810 -0.242965
O19   O     O_3   0.665160 0.165150 0.749190 -0.248036
O20   O     O_3   0.334840 0.165150 0.250810 -0.242686
O21   O     O_R   0.178620 0.457600 0.674100 -0.498687
O22   O     O_R   0.821380 0.457600 0.325900 -0.499117
O23   O     O_R   0.678620 0.957600 0.674100 -0.499790
O24   O     O_R   0.321380 0.957600 0.325900 -0.497948
O25   O     O_R   0.284680 0.542100 0.669460 -0.529666
O26   O     O_R   0.715320 0.542100 0.330540 -0.531758
O27   O     O_R   0.784680 0.042100 0.669460 -0.529805
O28   O     O_R   0.215320 0.042100 0.330540 -0.531452
O29   O     O_R   0.262860 0.790390 0.676650 -0.495676
O30   O     O_R   0.737140 0.790390 0.323350 -0.497032
O31   O     O_R   0.762860 0.290390 0.676650 -0.494443
O32   O     O_R   0.237140 0.290390 0.323350 -0.498229
O33   O     O_R   0.167460 0.907030 0.670940 -0.528775
O34   O     O_R   0.832540 0.907030 0.329060 -0.531355
O35   O     O_R   0.667460 0.407030 0.670940 -0.529863
O36   O     O_R   0.332540 0.407030 0.329060 -0.530190
O37   O     O_R   0.053950 0.750220 0.675100 -0.512118
O38   O     O_R   0.946050 0.750220 0.324900 -0.504218
O39   O     O_R   0.553950 0.250220 0.675100 -0.503677
O40   O     O_R   0.446050 0.250220 0.324900 -0.512881
O41   O     O_R   0.043300 0.547370 0.827390 -0.468432
O42   O     O_R   0.956700 0.547370 0.172610 -0.514061
O43   O     O_R   0.543300 0.047370 0.827390 -0.468085
O44   O     O_R   0.456700 0.047370 0.172610 -0.514316
O45   O     O_R   0.178690 0.455820 0.821860 -0.485191
O46   O     O_R   0.821310 0.455820 0.178140 -0.497635
O47   O     O_R   0.678690 0.955820 0.821860 -0.485573
O48   O     O_R   0.321310 0.955820 0.178140 -0.497167
O49   O     O_R   0.284750 0.540170 0.828860 -0.522183
O50   O     O_R   0.715250 0.540170 0.171140 -0.513769
O51   O     O_R   0.784750 0.040170 0.828860 -0.522236
O52   O     O_R   0.215250 0.040170 0.171140 -0.513696
C93   C     C_3   0.360570 0.796784 0.428149 -0.241135
C94   C     C_3   0.364141 0.721559 0.359016 -0.400634
H33   H     H_    0.316602 0.731042 0.326523 0.161807
H34   H     H_    0.409909 0.750262 0.326082 0.140318
H35   H     H_    0.371994 0.624874 0.371393 0.144283
H36   H     H_    0.392706 0.879016 0.421710 0.198337
H37   H     H_    0.384407 0.740962 0.470036 0.130193
C95   C     C_3   0.643130 0.787014 0.576218 -0.248690
C96   C     C_3   0.642459 0.717988 0.647154 -0.398619
H38   H     H_    0.691944 0.727455 0.676543 0.155296
H39   H     H_    0.599132 0.752062 0.682116 0.142651
H40   H     H_    0.632022 0.621117 0.637428 0.153372
H41   H     H_    0.610005 0.868112 0.582665 0.198736
H42   H     H_    0.619167 0.726967 0.536098 0.127019
C97   C     C_3   0.856886 0.286183 0.422664 -0.249889
C98   C     C_3   0.856708 0.216851 0.351367 -0.397674
H43   H     H_    0.806578 0.225745 0.323033 0.155816
H44   H     H_    0.899164 0.251003 0.315740 0.143390
H45   H     H_    0.867939 0.120146 0.360442 0.154797
H46   H     H_    0.890163 0.366614 0.416345 0.198645
H47   H     H_    0.881091 0.225948 0.462281 0.127072
C99   C     C_3   0.139511 0.297357 0.570959 -0.240053
C100  C     C_3   0.135328 0.222974 0.639870 -0.401309
H48   H     H_    0.182375 0.232739 0.673053 0.161035
H49   H     H_    0.089044 0.252194 0.672255 0.140350
H50   H     H_    0.127985 0.126121 0.627227 0.142659
H51   H     H_    0.107434 0.380150 0.577418 0.198169
H52   H     H_    0.115890 0.241358 0.528762 0.130144
N1    N     N_3   0.130990 0.792682 0.956259 -0.595340
H53   H     H_    0.084972 0.837620 0.971630 0.223146
H54   H     H_    0.133566 0.712260 0.984877 0.221756
N2    N     N_3   0.849408 0.049616 0.065537 -0.599402
H55   H     H_    0.888059 0.015619 0.030661 0.232733
H56   H     H_    0.848575 0.143336 0.060147 0.211439
N3    N     N_3   0.631011 0.292654 0.956259 -0.595445
H57   H     H_    0.584987 0.337578 0.971625 0.223150
H58   H     H_    0.633596 0.212238 0.984883 0.221826
N4    N     N_3   0.349419 0.549587 0.065524 -0.599196
H59   H     H_    0.388068 0.515585 0.030649 0.232732
H60   H     H_    0.348589 0.643307 0.060132 0.211479
N5    N     N_3   0.297016 0.972512 0.945705 -0.692780
H61   H     H_    0.294474 0.053166 0.917202 0.217024
H62   H     H_    0.341744 0.926165 0.928008 0.230837
N6    N     N_3   0.672428 0.906823 0.066050 -0.670922
H63   H     H_    0.639286 0.932676 0.108457 0.222821
H64   H     H_    0.667889 0.813549 0.059068 0.239987
N7    N     N_3   0.797010 0.472561 0.945694 -0.692750
H65   H     H_    0.794452 0.553213 0.917189 0.217108
H66   H     H_    0.841746 0.426237 0.927994 0.230765
N8    N     N_3   0.172440 0.406785 0.066031 -0.670901
H67   H     H_    0.139291 0.432642 0.108430 0.222983
H68   H     H_    0.167907 0.313509 0.059055 0.240101
N9    N     N_3   0.878879 0.671976 0.044260 -0.582071
H69   H     H_    0.850128 0.592396 0.044380 0.265318
H70   H     H_    0.860892 0.726935 0.003292 0.212028
N10   N     N_3   0.999951 0.472517 0.954612 -0.584642
H71   H     H_    0.962104 0.413452 0.974731 0.225463
H72   H     H_    0.043571 0.465742 0.987076 0.246202
N11   N     N_3   0.378897 0.172001 0.044260 -0.582040
H73   H     H_    0.350131 0.092439 0.044352 0.265267
H74   H     H_    0.360929 0.227002 0.003304 0.212044
N12   N     N_3   0.499971 0.972523 0.954620 -0.584410
H75   H     H_    0.462101 0.913450 0.974680 0.225470
H76   H     H_    0.543554 0.965711 0.987131 0.246116
C101  C     C_3   0.251518 0.042173 0.556829 -0.277191
C102  C     C_3   0.318772 0.085537 0.519681 -0.421868
H77   H     H_    0.337878 0.169799 0.544843 0.138627
H78   H     H_    0.359679 0.016815 0.522476 0.191053
H79   H     H_    0.310692 0.102947 0.462348 0.151005
H80   H     H_    0.205395 0.062600 0.524054 0.141747
H81   H     H_    0.246912 0.094057 0.607267 0.146241
C103  C     C_3   0.749180 0.039482 0.447333 -0.270477
C104  C     C_3   0.683268 0.083632 0.487754 -0.402889
H82   H     H_    0.658611 0.160143 0.459514 0.137389
H83   H     H_    0.644963 0.011488 0.494293 0.188123
H84   H     H_    0.695019 0.113285 0.542582 0.144967
H85   H     H_    0.796693 0.058261 0.478301 0.134753
H86   H     H_    0.751814 0.092364 0.397698 0.149507
C105  C     C_3   0.751430 0.539789 0.554330 -0.269879
C106  C     C_3   0.817045 0.583091 0.513717 -0.402547
H87   H     H_    0.841811 0.659540 0.542151 0.137114
H88   H     H_    0.855321 0.510526 0.506498 0.189457
H89   H     H_    0.804975 0.612443 0.459117 0.144143
H90   H     H_    0.703765 0.559655 0.523848 0.135645
H91   H     H_    0.749389 0.592316 0.604524 0.148545
C107  C     C_3   0.248941 0.541832 0.444759 -0.277843
C108  C     C_3   0.181520 0.585970 0.481933 -0.422140
H92   H     H_    0.162579 0.670596 0.457360 0.139078
H93   H     H_    0.140568 0.517838 0.478308 0.189924
H94   H     H_    0.189374 0.603179 0.539445 0.151839
H95   H     H_    0.295020 0.561390 0.477793 0.141134
H96   H     H_    0.253835 0.593938 0.394822 0.147061
N13   N     N_3   0.068989 0.420841 0.372647 -0.622878
H97   H     H_    0.086776 0.503687 0.353420 0.232790
H98   H     H_    0.040342 0.377916 0.332949 0.244368
N14   N     N_3   0.917122 0.451698 0.634645 -0.617954
H99   H     H_    0.904505 0.539803 0.650283 0.225659
H100  H     H_    0.942969 0.409137 0.676277 0.248925
N15   N     N_3   0.584135 0.952477 0.363894 -0.618773
H101  H     H_    0.596499 0.040686 0.349188 0.224146
H102  H     H_    0.558417 0.910508 0.321789 0.245938
N16   N     N_3   0.432324 0.920316 0.625598 -0.622729
H103  H     H_    0.414286 0.003034 0.645691 0.234738
H104  H     H_    0.461228 0.876956 0.664768 0.246516

loop_
_geom_bond_atom_site_label_1
_geom_bond_atom_site_label_2
_ccdc_geom_bond_type
Cr10  O34   S    
C7    C83   D    
C97   C98   S    
Cr6   O18   S    
C94   H33   S    
C6    C82   D    
C3    O23   A    
C87   C91   D    
C48   C84   S    
C58   H5    S    
Cr12  O12   S    
C92   C99   S    
C35   C36   A    
C42   C50   D    
C32   N15   S    
C43   C51   D    
C2    O26   A    
Cr7   O51   S    
C68   O40   A    
C31   N16   S    
Cr11  O11   S    
C57   C62   D    
Cr12  O40   S    
C73   O5    A    
Cr5   O49   S    
C12   C23   A    
C19   H19   S    
C59   C64   D    
C50   C54   S    
C41   H1    S    
C13   C17   A    
C60   C63   D    
C107  H96   S    
C80   O44   A    
C14   C21   A    
Cr7   O7    S    
N14   H99   S    
Cr8   O52   S    
N9    H69   S    
C84   C107  S    
C36   H28   S    
C101  C102  S    
C99   H52   S    
C9    C22   A    
C10   C65   S    
C4    O28   A    
Cr7   O27   S    
N12   H76   S    
C99   H51   S    
C29   C33   A    
C11   C24   A    
C95   C96   S    
C47   O31   A    
N10   H71   S    
N13   H97   S    
C17   C18   A    
C107  C108  S    
Cr2   O42   S    
C7    H11   S    
C96   H39   S    
C101  H81   S    
C9    C66   S    
C6    H10   S    
C40   N8    S    
C94   H35   S    
C46   C82   S    
Cr9   O37   S    
C93   H36   S    
C70   O46   A    
C39   C55   D    
C88   C92   D    
C67   O39   A    
C40   C56   D    
C38   C54   D    
C13   C22   A    
C105  H91   S    
C102  H78   S    
N7    H65   S    
N15   H102  S    
Cr9   O33   S    
C8    C92   S    
C39   C75   S    
C88   H16   S    
C67   O3    A    
Cr10  O18   S    
N1    H54   S    
N16   H104  S    
C61   C62   S    
Cr9   O9    S    
Cr2   O18   S    
Cr12  O36   S    
C65   O1    A    
C44   C52   D    
C58   C61   D    
C44   H4    S    
C32   C36   A    
C74   O6    A    
C1    O25   A    
C37   C73   S    
Cr2   O22   S    
C48   O36   A    
C21   C22   A    
Cr6   O6    S    
C3    C86   S    
C25   C29   A    
N7    H66   S    
C53   N1    S    
C93   C94   S    
C4    O24   A    
Cr1   O45   S    
Cr4   O48   S    
C46   O30   A    
C101  H80   S    
C41   C49   D    
N2    H55   S    
Cr6   O26   S    
C9    C26   A    
C33   C34   A    
Cr7   O31   S    
N11   H74   S    
C10   C21   A    
C61   N9    S    
Cr10  O14   S    
C12   C67   S    
N8    H68   S    
C20   H20   S    
N4    H59   S    
C30   C34   A    
C12   C27   A    
C27   C31   A    
C107  H95   S    
C8    C84   D    
C57   C77   S    
C28   C32   A    
C108  H94   S    
Cr1   O1    S    
C72   O48   A    
N3    H57   S    
Cr8   O28   S    
Cr8   O8    S    
C59   C79   S    
C104  H83   S    
C85   C89   D    
Cr3   O43   S    
C34   H26   S    
C38   N6    S    
C4    C85   S    
C102  H79   S    
C75   O11   A    
C25   C26   A    
C6    C90   S    
C106  H88   S    
C82   C103  S    
Cr5   O17   S    
C30   N13   S    
C77   O41   A    
C47   C83   S    
C46   O34   A    
Cr7   O19   S    
N9    H70   S    
Cr2   O2    S    
Cr2   O46   S    
C96   H40   S    
C15   C19   A    
C2    O22   A    
C87   H15   S    
N5    H61   S    
C71   O47   A    
C5    C81   D    
C105  H90   S    
C93   H37   S    
C47   O35   A    
C100  H48   S    
C48   O32   A    
C106  H89   S    
Cr9   O17   S    
C16   C20   A    
C108  H93   S    
C7    C91   S    
C100  H50   S    
Cr11  O39   S    
C59   H8    S    
C66   O38   A    
C2    C87   S    
C86   H14   S    
C43   H3    S    
Cr4   O44   S    
Cr1   O21   S    
C16   H24   S    
Cr5   O5    S    
Cr6   O30   S    
C72   O52   A    
C75   O7    A    
C18   H18   S    
C41   C72   S    
C64   N12   S    
C76   O8    A    
C10   C25   A    
Cr11  O19   S    
C15   C24   A    
C100  H49   S    
C108  H92   S    
C98   H44   S    
C26   C30   A    
C16   C23   A    
N4    H60   S    
N14   H100  S    
N15   H101  S    
C86   C90   D    
C52   H32   S    
C103  H86   S    
Cr3   O23   S    
Cr12  O20   S    
C85   H13   S    
N13   H98   S    
Cr8   O20   S    
Cr4   O20   S    
C77   O13   A    
C69   O49   A    
C11   C68   S    
C78   O14   A    
C55   N3    S    
C38   C74   S    
C79   O15   A    
C17   H17   S    
C80   O16   A    
C49   H29   S    
C33   H25   S    
C60   C80   S    
Cr1   O41   S    
N8    H67   S    
C5    H9    S    
N6    H64   S    
C78   O42   A    
Cr3   O3    S    
C94   H34   S    
C74   O10   A    
C45   C81   S    
C71   O51   A    
C103  C104  S    
C45   O33   A    
Cr4   O4    S    
C104  H84   S    
C65   O37   A    
N11   H73   S    
N3    H58   S    
C57   H6    S    
C62   N10   S    
Cr10  O38   S    
Cr11  O15   S    
C43   C70   S    
C63   N11   S    
C97   H46   S    
C19   C20   A    
Cr5   O25   S    
C54   N2    S    
C14   H22   S    
C56   N4    S    
N2    H56   S    
Cr8   O32   S    
C105  C106  S    
C3    O27   A    
Cr12  O16   S    
C102  H77   S    
C1    O21   A    
Cr4   O24   S    
N1    H53   S    
C35   H27   S    
C37   C53   D    
C83   C105  S    
N5    H62   S    
C60   H7    S    
Cr10  O10   S    
C39   N7    S    
C95   H41   S    
C69   O45   A    
Cr11  O35   S    
Cr3   O47   S    
C104  H82   S    
C51   H31   S    
C11   C28   A    
C1    C88   S    
C29   N14   S    
Cr5   O29   S    
C50   H30   S    
C31   C35   A    
Cr9   O13   S    
N6    H63   S    
N10   H72   S    
C14   C18   A    
N16   H103  S    
C98   H45   S    
Cr3   O19   S    
C89   C93   S    
C96   H38   S    
C91   C97   S    
N12   H75   S    
C49   C53   S    
C68   O4    A    
C8    H12   S    
C23   C24   A    
C66   O2    A    
C63   C64   S    
C42   H2    S    
Cr1   O17   S    
C79   O43   A    
C90   C95   S    
C98   H43   S    
C76   O12   A    
Cr6   O50   S    
C99   C100  S    
C37   N5    S    
C40   C76   S    
C73   O9    A    
C27   C28   A    
C51   C55   S    
C44   C69   S    
C97   H47   S    
C15   H23   S    
C58   C78   S    
C81   C101  S    
C103  H85   S    
C70   O50   A    
C45   O29   A    
C13   H21   S    
C5    C89   S    
C52   C56   S    
C95   H42   S    
C42   C71   S    
C106  H87   S    
