data_mof_unit_61197.cif
_audit_creation_date              2012-12-10T20:53:53-0500
_audit_creation_method            fapswitch 2.2
_symmetry_space_group_name_H-M    P1
_symmetry_Int_Tables_number       1
_space_group_crystal_system       triclinic
_cell_length_a                    10.83597
_cell_length_b                    15.866179
_cell_length_c                    15.083704
_cell_angle_alpha                 90.151755
_cell_angle_beta                  104.009056
_cell_angle_gamma                 89.908123
_cell_volume                      2516.13191248

loop_
_atom_site_label
_atom_site_type_symbol
_atom_type_description
_atom_site_fract_x
_atom_site_fract_y
_atom_site_fract_z
_atom_type_partial_charge
C1    C     C_R   0.500080 0.338955 0.499889 0.906420
C2    C     C_1   0.500195 0.500221 0.192928 0.136224
C3    C     C_R   0.258509 0.502261 0.462252 0.942779
C4    C     C_R   0.741479 0.502239 0.537758 0.945024
C5    C     C_2   0.122463 0.511420 0.440514 -0.349515
C6    C     C_2   0.877495 0.511337 0.559542 -0.353743
C7    C     C_2   0.067688 0.527603 0.508639 -0.139180
C8    C     C_2   0.932222 0.527701 0.491541 -0.134170
C9    C     C_R   0.457360 0.956520 0.568259 0.031702
C10   C     C_R   0.542887 0.043856 0.432081 0.027298
C11   C     C_R   0.500306 0.912976 0.500083 -0.009598
C12   C     C_R   0.499930 0.661043 0.500113 0.902410
C13   C     C_R   0.499986 0.087020 0.500132 0.003143
C14   C     C_R   0.543113 0.955745 0.431943 0.128883
C15   C     C_R   0.457282 0.044221 0.568178 0.168702
C16   C     C_1   0.500208 0.823993 0.500210 0.010162
C17   C     C_1   0.500022 0.175987 0.499872 0.063655
C18   C     C_1   0.500095 0.250725 0.499708 -0.137770
C19   C     C_1   0.500031 0.749260 0.500318 -0.141756
C20   C     C_R   0.437909 0.435227 0.942837 0.191292
C21   C     C_R   0.562203 0.564760 0.057191 0.191637
C22   C     C_R   0.499384 0.499317 0.904888 -0.022594
C23   C     C_R   0.500689 0.500683 0.095129 -0.022788
C24   C     C_R   0.561200 0.563734 0.963297 -0.220741
C25   C     C_R   0.438887 0.436264 0.036724 -0.219872
C26   C     C_1   0.499839 0.499783 0.807079 0.132927
H1    H     H_    0.877357 0.535052 0.421289 0.200909
H2    H     H_    0.680151 0.073645 0.367091 0.222390
H3    H     H_    0.122524 0.534668 0.578963 0.195082
H4    H     H_    0.932598 0.503740 0.629610 0.165902
H5    H     H_    0.067389 0.504071 0.370373 0.165210
H6    H     H_    0.391017 0.386370 0.064116 0.173052
H7    H     H_    0.609080 0.613624 0.935907 0.172209
H8    H     H_    0.487450 0.874000 0.673601 0.205178
H9    H     H_    0.337426 0.873878 0.606163 0.202381
H10   H     H_    0.529853 0.073583 0.299541 0.224731
I1    I     I_    0.392281 0.110786 0.671520 -0.246207
I2    I     I_    0.607946 0.887941 0.329030 -0.298963
I3    I     I_    0.341886 0.335045 0.861357 -0.287325
I4    I     I_    0.658386 0.664863 0.138729 -0.291480
N1    N     N_1   0.499960 0.500020 0.270540 -0.079892
N2    N     N_1   0.500040 0.499980 0.729460 -0.080713
N3    N     N_3   0.413675 0.912410 0.637798 -0.401268
N4    N     N_3   0.585809 0.090399 0.363793 -0.431432
O1    O     O_R   0.500000 0.378020 0.573650 -0.588168
O2    O     O_R   0.500000 0.621980 0.426350 -0.587185
O3    O     O_R   0.500060 0.378020 0.426320 -0.611697
O4    O     O_R   0.499940 0.621980 0.573680 -0.623497
O5    O     O_R   0.317790 0.500010 0.546150 -0.611247
O6    O     O_R   0.682210 0.499990 0.453850 -0.611728
O7    O     O_R   0.317850 0.500010 0.398830 -0.610604
O8    O     O_R   0.682150 0.499990 0.601170 -0.610037
Zn1   Zn    Zn3+2 0.499960 0.500000 0.598370 1.004288
Zn2   Zn    Zn3+2 0.500040 0.500000 0.401630 1.009577

loop_
_geom_bond_atom_site_label_1
_geom_bond_atom_site_label_2
_ccdc_geom_bond_type
C6    C8    D    
C7    H3    S    
C14   I2    S    
H9    N3    S    
C11   C16   S    
C24   H7    S    
C13   C17   S    
C12   O4    A    
O7    Zn2   S    
O2    Zn2   S    
C25   H6    S    
C21   C23   A    
C17   C18   T    
C9    C15   A    
O1    Zn1   S    
C7    C8    S    
C15   I1    S    
C9    C11   A    
C1    O1    A    
C1    C18   S    
O6    Zn2   S    
C21   I4    S    
C4    O8    A    
C16   C19   T    
O5    Zn1   S    
C12   C19   S    
C4    C6    S    
C6    H4    S    
C20   C22   A    
O3    Zn2   S    
C13   C15   A    
N2    Zn1   S    
C3    O5    A    
O4    Zn1   S    
C11   C14   A    
C22   C24   A    
N1    Zn2   S    
H10   N4    S    
C9    N3    S    
C20   C25   A    
C2    N1    T    
C10   N4    S    
C23   C25   A    
O8    Zn1   S    
C26   N2    T    
C12   O2    A    
C10   C14   A    
C21   C24   A    
C2    C23   S    
C5    C7    D    
C20   I3    S    
C3    O7    A    
C8    H1    S    
C22   C26   S    
C3    C5    S    
H2    N4    S    
C1    O3    A    
H8    N3    S    
C4    O6    A    
C5    H5    S    
C10   C13   A    
