data_mof_unit_17600.cif
_audit_creation_date              2012-12-10T19:01:19-0500
_audit_creation_method            fapswitch 2.2
_symmetry_space_group_name_H-M    P1
_symmetry_Int_Tables_number       1
_space_group_crystal_system       triclinic
_cell_length_a                    9.567076
_cell_length_b                    10.857051
_cell_length_c                    15.565685
_cell_angle_alpha                 89.594228
_cell_angle_beta                  74.047632
_cell_angle_gamma                 90.241884
_cell_volume                      1554.47776199

loop_
_atom_site_label
_atom_site_type_symbol
_atom_type_description
_atom_site_fract_x
_atom_site_fract_y
_atom_site_fract_z
_atom_type_partial_charge
C1    C     C_R   0.999793 0.262776 0.499765 0.830228
C2    C     C_R   0.673658 0.492108 0.907833 0.083456
C3    C     C_R   0.775079 0.522130 0.956035 0.168112
C4    C     C_R   0.524338 0.472969 0.954291 0.062055
C5    C     C_R   0.476705 0.495798 0.047733 0.069551
C6    C     C_R   0.581875 0.525500 0.093056 -0.219878
C7    C     C_R   0.728032 0.537131 0.048072 -0.235441
C8    C     C_R   0.421900 0.428920 0.910959 -0.210350
C9    C     C_R   0.276938 0.411116 0.957080 -0.236726
C10   C     C_R   0.227770 0.437918 0.047595 0.162170
C11   C     C_R   0.326154 0.483463 0.093419 0.095359
C12   C     C_R   0.917911 0.500393 0.671922 0.822597
C13   C     C_R   0.081042 0.417818 0.093272 -0.214956
C14   C     C_R   0.030994 0.440832 0.184471 -0.199353
C15   C     C_R   0.270182 0.513980 0.183895 -0.250672
C16   C     C_R   0.120224 0.062500 0.501020 0.116723
C17   C     C_R   0.998531 0.130126 0.498768 -0.106617
C18   C     C_R   0.872786 0.064090 0.495336 -0.175646
C19   C     C_R   0.873038 0.934918 0.495236 -0.218648
C20   C     C_R   0.999119 0.869883 0.498469 -0.103932
C21   C     C_R   0.120564 0.938493 0.500757 0.127990
C22   C     C_3   0.273617 0.930174 0.505588 -0.462514
C23   C     C_R   0.000217 0.737223 0.499557 0.800268
C24   C     C_3   0.273260 0.072060 0.505943 -0.446206
C25   C     C_R   0.594916 0.588797 0.454186 0.192851
C26   C     C_R   0.548528 0.420741 0.553115 0.429629
C27   C     C_R   0.400515 0.421059 0.552659 -0.130908
C28   C     C_R   0.447730 0.588392 0.453883 0.250625
C29   C     C_3   0.487970 0.610305 0.355592 -0.509716
C30   C     C_3   0.645898 0.613609 0.356354 -0.490680
C31   C     C_R   0.081820 0.498895 0.328067 0.786383
C32   C     C_R   0.872066 0.503161 0.769918 -0.054946
C33   C     C_R   0.126341 0.487443 0.230421 -0.044285
C34   C     C_R   0.922962 0.538023 0.911490 -0.210326
C35   C     C_R   0.971509 0.527253 0.819026 -0.196042
C36   C     C_R   0.724891 0.485773 0.814349 -0.221914
Cu1   Cu    Cu3+1 0.140670 0.499980 0.500000 0.945852
Cu2   Cu    Cu3+1 0.859330 0.500020 0.500000 0.986978
H1    H     H_    0.804625 0.559452 0.085719 0.149752
H2    H     H_    0.005890 0.381043 0.058911 0.143236
H3    H     H_    0.774522 0.111396 0.492877 0.199120
H4    H     H_    0.774797 0.886784 0.492832 0.169903
H5    H     H_    0.281343 0.888354 0.569500 0.206063
H6    H     H_    0.347054 0.890432 0.444064 0.193027
H7    H     H_    0.280756 0.112020 0.570094 0.211396
H8    H     H_    0.346550 0.114338 0.444661 0.202568
H9    H     H_    0.324871 0.355909 0.593963 0.169646
H10   H     H_    0.462714 0.528726 0.320016 0.209855
H11   H     H_    0.335763 0.559698 0.219905 0.137638
H12   H     H_    0.447774 0.700006 0.337446 0.190032
H13   H     H_    0.710015 0.536769 0.318369 0.211161
H14   H     H_    0.696784 0.706321 0.341096 0.195782
H15   H     H_    0.919010 0.419431 0.219234 0.146950
H16   H     H_    0.202778 0.375495 0.921518 0.154444
H17   H     H_    0.000819 0.560676 0.948094 0.144894
H18   H     H_    0.085849 0.541287 0.785894 0.160896
H19   H     H_    0.651406 0.471478 0.774057 0.185740
H20   H     H_    0.555911 0.536703 0.164163 0.144907
H21   H     H_    0.450772 0.402555 0.841790 0.176193
N1    N     N_R   0.648210 0.500930 0.499430 -0.216556
N2    N     N_R   0.352300 0.500890 0.499430 -0.210881
O1    O     O_R   0.118810 0.319640 0.500000 -0.589101
O2    O     O_R   0.881230 0.319680 0.499990 -0.534809
O3    O     O_R   0.055580 0.499970 0.629840 -0.592828
O4    O     O_R   0.818000 0.500010 0.629830 -0.539517
O5    O     O_R   0.118770 0.680320 0.500010 -0.579116
O6    O     O_R   0.881190 0.680360 0.500000 -0.586920
O7    O     O_R   0.182000 0.499990 0.370170 -0.582545
O8    O     O_R   0.944420 0.500030 0.370160 -0.591569
Cl1   Cl    Cl    0.597947 0.313017 0.623960 -0.670431

loop_
_geom_bond_atom_site_label_1
_geom_bond_atom_site_label_2
_ccdc_geom_bond_type
C8    C9    A    
C2    C4    A    
C30   H13   S    
C19   H4    S    
C16   C21   A    
C12   C32   S    
C25   N1    A    
C9    C10   A    
C6    H20   S    
Cu1   N2    S    
C19   C20   A    
C20   C23   S    
C4    C8    A    
C24   H8    S    
Cu1   O5    S    
Cu1   O3    S    
C14   C33   A    
C31   C33   S    
Cu1   O1    S    
Cu2   O8    S    
C34   H17   S    
C16   C24   S    
C13   C14   A    
C28   N2    A    
C25   C28   A    
C5    C6    A    
C26   C27   A    
C29   C30   S    
C26   N1    A    
Cu2   N1    S    
C24   H7    S    
C1    O2    A    
C23   O5    A    
C30   H14   S    
C28   C29   S    
Cu1   Cu2   S    
C5    C11   A    
C6    C7    A    
C3    C7    A    
C29   H12   S    
C15   H11   S    
C8    H21   S    
C31   O7    A    
C26   Cl1   S    
Cu2   O2    S    
C16   C17   A    
C10   C11   A    
C1    C17   S    
C29   H10   S    
C27   H9    S    
Cu2   O6    S    
Cu1   O7    S    
C32   C36   A    
C31   O8    A    
C14   H15   S    
C2    C36   A    
C20   C21   A    
C36   H19   S    
C1    O1    A    
C17   C18   A    
C34   C35   A    
C12   O4    A    
C18   H3    S    
C23   O6    A    
C25   C30   S    
C12   O3    A    
C7    H1    S    
C18   C19   A    
C13   H2    S    
C2    C3    A    
C9    H16   S    
C27   N2    A    
C3    C34   A    
C35   H18   S    
C21   C22   S    
Cu2   O4    S    
C11   C15   A    
C15   C33   A    
C22   H6    S    
C32   C35   A    
C22   H5    S    
C22   C24   S    
C4    C5    A    
C10   C13   A    
