data_mof_unit_49232.cif
_audit_creation_date              2012-12-11T15:48:57-0500
_audit_creation_method            fapswitch 2.2
_symmetry_space_group_name_H-M    P1
_symmetry_Int_Tables_number       1
_space_group_crystal_system       triclinic
_cell_length_a                    10.961395
_cell_length_b                    10.950651
_cell_length_c                    18.829185
_cell_angle_alpha                 90.535629
_cell_angle_beta                  90.22207
_cell_angle_gamma                 60.289918
_cell_volume                      1962.95403138

loop_
_atom_site_label
_atom_site_type_symbol
_atom_type_description
_atom_site_fract_x
_atom_site_fract_y
_atom_site_fract_z
_atom_type_partial_charge
Br1   Br    Br    0.068487 0.462671 0.354938 -0.540682
Br2   Br    Br    0.169174 0.032633 0.334058 -0.575298
C1    C     C_R   0.239373 0.645666 0.610327 0.522564
C2    C     C_R   0.577967 0.141985 0.710057 -0.133889
C3    C     C_R   0.575882 0.144611 0.783017 -0.154289
C4    C     C_R   0.652057 0.620496 0.601920 0.515501
C5    C     C_3   0.930301 0.102794 0.786743 -0.272075
C6    C     C_3   0.924475 0.111773 0.706402 -0.272059
C7    C     C_R   0.671295 0.169918 0.673227 0.028334
C8    C     C_R   0.177175 0.669617 0.834119 0.014275
C9    C     C_R   0.152006 0.576954 0.793317 0.020867
C10   C     C_R   0.160444 0.574325 0.719687 0.008305
C11   C     C_R   0.201335 0.770185 0.724535 -0.169576
C12   C     C_3   0.691465 0.538552 0.798968 -0.274340
C13   C     C_R   0.203931 0.765573 0.798341 -0.179102
C14   C     C_3   0.224699 0.420513 0.796733 -0.287694
C15   C     C_3   0.231677 0.418395 0.716254 -0.276996
C16   C     C_R   0.628965 0.227998 0.602484 0.508442
C17   C     C_R   0.189907 0.667750 0.683856 0.023989
C18   C     C_R   0.663288 0.679852 0.171538 0.000605
C19   C     C_R   0.756236 0.556223 0.205415 0.036762
C20   C     C_R   0.755989 0.544708 0.277484 0.085434
C21   C     C_R   0.577488 0.787650 0.288512 -0.175988
C22   C     C_R   0.577723 0.799230 0.213996 -0.159992
C23   C     C_3   0.698351 0.673115 0.812756 0.025367
C24   C     C_3   0.781387 0.411285 0.192298 -0.289367
C25   C     C_3   0.780007 0.398284 0.272087 -0.238884
C26   C     C_R   0.662772 0.656494 0.320434 0.014725
C27   C     C_R   0.671144 0.120425 0.182499 0.013873
C28   C     C_R   0.219113 0.650733 0.402427 0.543983
C29   C     C_R   0.558146 0.126982 0.218501 0.013183
C30   C     C_R   0.549456 0.141348 0.290825 0.013713
C31   C     C_R   0.782722 0.110211 0.296139 -0.166434
C32   C     C_R   0.790421 0.097709 0.222159 -0.147818
C33   C     C_3   0.405177 0.222248 0.207110 -0.278106
C34   C     C_3   0.668771 0.650432 0.676725 0.057225
C35   C     C_3   0.394223 0.240461 0.286853 -0.223393
C36   C     C_R   0.655004 0.148952 0.329731 0.003868
C37   C     C_R   0.113942 0.690821 0.189279 -0.026775
C38   C     C_R   0.126168 0.794961 0.225420 -0.006849
C39   C     C_R   0.138797 0.793356 0.297006 0.039100
C40   C     C_R   0.642860 0.623165 0.392596 0.533643
C41   C     C_R   0.101847 0.593211 0.302779 0.095325
C42   C     C_R   0.087772 0.597195 0.228536 -0.134822
C43   C     C_3   0.222904 0.850937 0.212027 -0.242954
C44   C     C_3   0.241081 0.847259 0.291542 0.039297
C45   C     C_3   0.796104 0.674860 0.688679 0.146801
C46   C     C_R   0.143678 0.682873 0.336052 -0.003386
C47   C     C_R   0.701897 0.100150 0.895442 0.543684
C48   C     C_R   0.722856 0.687469 0.888563 0.539387
C49   C     C_R   0.118425 0.705878 0.905713 0.537803
C50   C     C_R   0.679747 0.097235 0.106776 0.546000
C51   C     C_R   0.696838 0.692047 0.098324 0.547522
C52   C     C_R   0.618285 0.224961 0.396512 0.524241
C53   C     C_R   0.086114 0.713048 0.114560 0.550968
C54   C     C_3   0.559400 0.800276 0.785861 -0.227419
C55   C     C_3   0.535260 0.778604 0.707559 -0.213830
C56   C     C_3   0.691340 0.517410 0.718512 -0.252941
C57   C     C_3   0.824126 0.664380 0.769680 -0.152792
C58   C     C_3   0.748942 0.839082 0.594218 -0.003729
C59   C     C_3   0.874663 0.744048 0.546882 -0.273230
C60   C     C_3   0.849916 0.800675 0.471287 -0.433892
C61   C     C_R   0.681199 0.152992 0.822726 0.017738
C62   C     C_R   0.774768 0.181141 0.785996 -0.008167
C63   C     C_R   0.768073 0.192231 0.712097 0.017390
Cr1   Cr    Cr6+3 0.392960 0.397920 0.502240 1.044147
Cr2   Cr    Cr6+3 0.398340 0.708480 0.501250 1.035052
Cr3   Cr    Cr6+3 0.708670 0.393570 0.496460 1.046110
Cr4   Cr    Cr6+3 0.937650 0.938540 0.007610 1.006414
Cr5   Cr    Cr6+3 0.625330 0.937370 0.994520 1.004688
Cr6   Cr    Cr6+3 0.937940 0.625230 0.001190 1.011002
H1    H     H_    0.566210 0.897463 0.790998 0.157141
H2    H     H_    0.962113 0.008869 0.679089 0.159487
H3    H     H_    0.216387 0.850341 0.699608 0.131996
H4    H     H_    0.468521 0.814221 0.818199 0.110044
H5    H     H_    0.217278 0.844137 0.827276 0.128163
H6    H     H_    0.155543 0.381776 0.817728 0.135121
H7    H     H_    0.328512 0.376758 0.823166 0.141257
H8    H     H_    0.339427 0.373439 0.695131 0.175303
H9    H     H_    0.165221 0.380233 0.690505 0.125207
H10   H     H_    0.506326 0.877961 0.320269 0.165935
H11   H     H_    0.511450 0.900212 0.189796 0.151356
H12   H     H_    0.794393 0.426230 0.703205 0.136590
H13   H     H_    0.886214 0.341513 0.168283 0.156251
H14   H     H_    0.691629 0.409745 0.165379 0.127520
H15   H     H_    0.687874 0.391617 0.291398 0.140463
H16   H     H_    0.447118 0.757181 0.703906 0.131283
H17   H     H_    0.883461 0.319990 0.294248 0.212728
H18   H     H_    0.869522 0.106229 0.325518 0.181861
H19   H     H_    0.886739 0.077463 0.196259 0.159597
H20   H     H_    0.351987 0.165620 0.185944 0.155147
H21   H     H_    0.381752 0.319860 0.178437 0.135085
H22   H     H_    0.365002 0.349014 0.303757 0.182377
H23   H     H_    0.918795 0.561637 0.780762 0.096062
H24   H     H_    0.333382 0.195861 0.311800 0.221353
H25   H     H_    0.059391 0.526581 0.202075 0.168385
H26   H     H_    0.167320 0.958554 0.189505 0.171767
H27   H     H_    0.505580 0.876049 0.677267 0.137756
H28   H     H_    0.319726 0.774540 0.183185 0.112197
H29   H     H_    0.348560 0.768286 0.308334 0.155482
H30   H     H_    0.847116 0.748165 0.787693 0.161436
H31   H     H_    0.783114 0.445573 0.822836 0.137626
H32   H     H_    0.594559 0.547754 0.822998 0.127627
H33   H     H_    0.607777 0.491251 0.705034 0.134879
H34   H     H_    0.892041 0.590508 0.662364 0.111095
H35   H     H_    0.729789 0.947283 0.587416 0.159528
H36   H     H_    0.650799 0.844660 0.575416 0.141959
H37   H     H_    0.970397 0.740794 0.568400 0.175760
H38   H     H_    0.891112 0.635670 0.544900 0.182106
H39   H     H_    0.752263 0.808496 0.449114 0.157599
H40   H     H_    0.939028 0.728445 0.437294 0.192603
H41   H     H_    0.841603 0.905990 0.470359 0.148566
H42   H     H_    0.499148 0.127047 0.682619 0.129113
H43   H     H_    0.495681 0.128987 0.807615 0.131480
H44   H     H_    0.969718 0.995518 0.807198 0.178060
H45   H     H_    0.974869 0.164125 0.812108 0.123548
H46   H     H_    0.967972 0.176545 0.685009 0.129823
O1    O     O_R   0.507380 0.255700 0.581440 -0.540034
O2    O     O_R   0.837170 0.593410 0.915250 -0.528235
O3    O     O_R   0.065200 0.635530 0.931570 -0.500459
O4    O     O_R   0.280320 0.527350 0.578930 -0.502941
O5    O     O_R   0.068260 0.828890 0.091840 -0.520742
O6    O     O_R   0.798870 0.057410 0.079340 -0.513628
O7    O     O_R   0.584930 0.080350 0.076780 -0.517387
O8    O     O_R   0.626960 0.809650 0.067060 -0.508508
O9    O     O_R   0.816040 0.596610 0.076510 -0.515128
O10   O     O_R   0.045610 0.638500 0.081060 -0.509100
O11   O     O_3   0.833640 0.833710 0.001100 -0.251931
O12   O     O_R   0.524480 0.695810 0.424040 -0.508633
O13   O     O_R   0.260510 0.739590 0.584590 -0.527972
O14   O     O_R   0.532300 0.695080 0.573820 -0.518135
O15   O     O_R   0.744840 0.503500 0.576370 -0.533243
O16   O     O_R   0.699120 0.276560 0.571960 -0.497538
O17   O     O_R   0.498940 0.256500 0.419860 -0.505966
O18   O     O_R   0.272500 0.528080 0.429150 -0.466477
O19   O     O_R   0.252060 0.740380 0.423010 -0.491047
O20   O     O_3   0.771922 0.810042 0.667797 -0.588376
O21   O     O_R   0.736390 0.504290 0.414790 -0.475645
O22   O     O_R   0.691300 0.277290 0.422170 -0.504669
O23   O     O_3   0.499990 0.499990 0.499980 -0.263022
O24   O     O_R   0.089400 0.825690 0.930570 -0.531284
O25   O     O_R   0.818460 0.054440 0.929850 -0.500447
O26   O     O_R   0.606060 0.077150 0.915510 -0.535338
O27   O     O_R   0.646550 0.806680 0.917570 -0.510396

loop_
_geom_bond_atom_site_label_1
_geom_bond_atom_site_label_2
_ccdc_geom_bond_type
C19   C24   S    
C47   C61   S    
C25   H17   S    
C3    H43   S    
C40   O21   A    
C1    O13   A    
Cr3   O21   S    
C23   C54   S    
C59   H38   S    
C5    C6    S    
C43   C44   S    
Br2   C44   S    
C3    C61   A    
Cr5   O26   S    
Cr6   O3    S    
C34   C45   S    
C28   C46   S    
Cr3   O16   S    
C33   C35   S    
C34   C56   S    
C8    C13   A    
C50   O6    A    
C12   H31   S    
Cr4   O6    S    
Cr4   O24   S    
C52   O17   A    
C15   H8    S    
C54   C55   S    
C35   H24   S    
C16   O16   A    
C14   H6    S    
C5    H44   S    
Cr3   O15   S    
C59   H37   S    
C22   H11   S    
C23   C48   S    
Cr1   O17   S    
Br1   C41   S    
C37   C53   S    
C60   H40   S    
C18   C22   A    
Cr4   O11   S    
C14   C15   S    
C45   H34   S    
C36   C52   S    
C10   C15   S    
C21   C22   A    
Cr6   O9    S    
C1    C17   S    
C57   H23   S    
C30   C36   A    
C41   C46   A    
C16   O1    A    
C58   O20   S    
C33   H21   S    
C13   H5    S    
C53   O5    A    
C6    C63   S    
C54   H4    S    
C20   C26   A    
C19   C20   A    
Cr6   O10   S    
Cr2   O12   S    
C8    C49   S    
C48   O27   A    
C6    H46   S    
C49   O3    A    
C49   O24   A    
C38   C43   S    
C12   C56   S    
C11   C17   A    
C61   C62   A    
C48   O2    A    
C57   H30   S    
C2    H42   S    
C4    O15   A    
C34   C55   S    
C43   H28   S    
C37   C38   A    
C18   C51   S    
C54   H1    S    
Cr4   O25   S    
C21   C26   A    
C27   C32   A    
C15   H9    S    
C55   H16   S    
C58   C59   S    
C5    H45   S    
C25   H15   S    
C41   C42   A    
C32   H19   S    
C42   H25   S    
C31   H18   S    
C9    C14   S    
C52   O22   A    
C60   H39   S    
C39   C44   S    
C47   O25   A    
C45   O20   S    
C31   C32   A    
C24   C25   S    
Cr1   O4    S    
C35   H22   S    
C30   C35   S    
C11   H3    S    
Cr2   O23   S    
C58   H36   S    
C51   O8    A    
Cr5   O8    S    
C38   C39   A    
Cr1   O23   S    
C53   O10   A    
C28   O19   A    
C20   C25   S    
C11   C13   A    
C29   C33   S    
Cr6   O11   S    
Cr3   O23   S    
Cr2   O13   S    
C56   H33   S    
C58   H35   S    
Cr5   O11   S    
C44   H29   S    
C24   H13   S    
C21   H10   S    
C29   C30   A    
Cr2   O14   S    
C4    O14   A    
C9    C10   A    
C37   C42   A    
Cr5   O27   S    
C31   C36   A    
Cr6   O2    S    
C8    C9    A    
C62   C63   A    
Cr2   O19   S    
C27   C29   A    
C43   H26   S    
C56   H12   S    
C50   O7    A    
C12   H32   S    
Cr4   O5    S    
C24   H14   S    
C55   H27   S    
C47   O26   A    
C10   C17   A    
C26   C40   S    
C6    H2    S    
C39   C46   A    
C4    C34   S    
C40   O12   A    
C14   H7    S    
C12   C23   S    
C59   C60   S    
C7    C63   A    
C5    C62   S    
C51   O9    A    
C45   C57   S    
Cr1   O18   S    
Cr5   O7    S    
C7    C16   S    
C2    C3    A    
C60   H41   S    
C18   C19   A    
C28   O18   A    
Cr1   O1    S    
Cr3   O22   S    
C23   C57   S    
C2    C7    A    
C1    O4    A    
C27   C50   S    
C33   H20   S    
