data_mof_unit_16281.cif
_audit_creation_date              2012-10-26T21:00:14-0400
_audit_creation_method            fapswitch 2.2
_symmetry_space_group_name_H-M    P1
_symmetry_Int_Tables_number       1
_space_group_crystal_system       triclinic
_cell_length_a                    19.220295
_cell_length_b                    8.661606
_cell_length_c                    7.634312
_cell_angle_alpha                 102.592826
_cell_angle_beta                  96.283318
_cell_angle_gamma                 93.91506
_cell_volume                      1227.3508686

loop_
_atom_site_label
_atom_site_type_symbol
_atom_type_description
_atom_site_fract_x
_atom_site_fract_y
_atom_site_fract_z
_atom_type_partial_charge
C1    C     C_R   0.495823 0.200375 0.454060 0.516144
C2    C     C_R   0.806605 0.353255 0.430558 -0.123372
C3    C     C_R   0.142841 0.468977 0.491259 -0.035534
C4    C     C_R   0.853157 0.478282 0.535722 -0.012236
C5    C     C_R   0.170748 0.469388 0.328661 0.251074
C6    C     C_R   0.827773 0.615984 0.635259 0.233054
C7    C     C_R   0.243767 0.512137 0.336454 0.269925
C8    C     C_R   0.754782 0.634080 0.607995 0.251384
C9    C     C_R   0.289665 0.511071 0.494754 -0.039933
C10   C     C_R   0.708426 0.502949 0.506617 -0.000677
C11   C     C_R   0.928070 0.471186 0.521976 0.381010
C12   C     C_R   0.502260 0.799445 0.545942 0.592098
C13   C     C_R   0.067171 0.466779 0.500437 0.387901
C14   C     C_2   0.452943 0.304409 0.934695 0.791490
C15   C     C_2   0.557949 0.683711 0.067548 0.795482
C16   C     C_2   0.487571 0.031833 0.431418 -0.141387
C17   C     C_2   0.508284 0.967962 0.569234 -0.115442
C18   C     C_R   0.367404 0.506499 0.499115 0.572310
C19   C     C_R   0.632133 0.502808 0.501546 0.597571
C20   C     C_R   0.260145 0.508432 0.652438 -0.122174
C21   C     C_R   0.734688 0.364036 0.419624 -0.156335
C22   C     C_R   0.187732 0.490728 0.651851 -0.118886
Cu1   Cu    Cu3+1 0.507710 0.517380 0.684380 1.120608
Cu2   Cu    Cu3+1 0.492290 0.482620 0.315620 1.137145
H1    H     H_    0.294083 0.526768 0.776591 0.247023
H2    H     H_    0.656894 0.958985 0.530395 0.348663
H3    H     H_    0.374632 0.170161 0.758380 0.330251
H4    H     H_    0.567317 0.922901 0.133143 0.336808
H5    H     H_    0.699244 0.263906 0.341819 0.152648
H6    H     H_    0.165921 0.494644 0.776256 0.250021
H7    H     H_    0.826148 0.247572 0.355169 0.182506
H8    H     H_    0.462761 0.960303 0.302190 0.186515
H9    H     H_    0.533474 0.039329 0.697991 0.189764
H10   H     H_    0.129691 0.235972 0.863622 0.380224
H11   H     H_    0.880011 0.921014 0.054754 0.386202
H12   H     H_    0.364776 0.744669 0.137306 0.366008
N1    N     N_R   0.033364 0.361326 0.577783 -0.164163
N2    N     N_R   0.961997 0.576782 0.445709 -0.128762
N3    N     N_R   0.964601 0.362718 0.587217 -0.135939
N4    N     N_R   0.030397 0.574350 0.434685 -0.117037
N5    N     N_2   0.480680 0.456420 0.038530 -0.165630
N6    N     N_2   0.519320 0.543580 0.961470 -0.177391
O1    O     O_R   0.505010 0.286130 0.619770 -0.518800
O2    O     O_2   0.085375 0.524558 0.048944 -0.188656
O3    O     O_3   0.164454 0.292713 0.966992 -0.475185
O4    O     O_2   0.946439 0.672768 0.874862 -0.213954
O5    O     O_2   0.916503 0.881989 0.718101 -0.197130
O6    O     O_3   0.845257 0.837437 0.977199 -0.432431
O7    O     O_2   0.301951 0.449188 0.040451 -0.256232
O8    O     O_2   0.219553 0.657525 0.060592 -0.245516
O9    O     O_3   0.342123 0.731173 0.244198 -0.525188
O10   O     O_2   0.691093 0.828289 0.852966 -0.215392
O11   O     O_2   0.776923 0.957390 0.702545 -0.214413
O12   O     O_R   0.494990 0.713870 0.380230 -0.501635
O13   O     O_3   0.657062 0.842877 0.518959 -0.530636
O14   O     O_2   0.482953 0.188182 0.953061 -0.520552
O15   O     O_R   0.389204 0.285170 0.822094 -0.641124
O16   O     O_2   0.617620 0.678276 0.137979 -0.436820
O17   O     O_R   0.532199 0.830315 0.067018 -0.679274
O18   O     O_R   0.491990 0.256780 0.308370 -0.480500
O19   O     O_R   0.508010 0.743220 0.691630 -0.455759
O20   O     O_R   0.406650 0.514660 0.655750 -0.494025
O21   O     O_R   0.593350 0.485340 0.344250 -0.473072
O22   O     O_R   0.393640 0.485310 0.344340 -0.439411
O23   O     O_R   0.606360 0.514690 0.655660 -0.482701
O24   O     O_2   0.057823 0.277134 0.142412 -0.239971
S1    S     S_3+6 0.116550 0.391564 0.118393 0.100069
S2    S     S_3+6 0.886910 0.754605 0.802446 0.120822
S3    S     S_3+6 0.275907 0.587565 0.161776 0.053610
S4    S     S_3+6 0.721049 0.821635 0.678060 0.084946

loop_
_geom_bond_atom_site_label_1
_geom_bond_atom_site_label_2
_ccdc_geom_bond_type
C12   C17   S    
O3    S1    S    
C11   N2    A    
C2    C4    A    
Cu1   Cu2   S    
C7    S3    S    
C12   O19   A    
C16   H8    S    
C22   H6    S    
N5    N6    D    
C9    C18   S    
C9    C20   A    
C14   O14   D    
C3    C13   S    
C5    S1    S    
C10   C19   S    
Cu2   O18   S    
H2    O13   S    
Cu1   O23   S    
C2    C21   A    
C6    S2    S    
O24   S1    D    
C3    C5    A    
Cu2   O22   S    
H10   O3    S    
O7    S3    D    
O6    S2    S    
C4    C11   S    
N2    N4    A    
Cu2   N5    S    
H12   O9    S    
C18   O22   A    
Cu1   N6    S    
C17   H9    S    
C14   N5    S    
O11   S4    D    
C4    C6    A    
O8    S3    D    
C20   C22   A    
C19   O23   A    
Cu2   O21   S    
C5    C7    A    
C2    H7    S    
C10   C21   A    
C11   N3    A    
C15   O16   D    
C21   H5    S    
C1    O18   A    
O13   S4    S    
O10   S4    D    
C20   H1    S    
H11   O6    S    
Cu2   O12   S    
C7    C9    A    
O5    S2    D    
Cu1   O19   S    
Cu1   O1    S    
C8    S4    S    
C8    C10   A    
H3    O15   S    
H4    O17   S    
C1    C16   S    
C14   O15   S    
C18   O20   A    
C13   N4    A    
C6    C8    A    
O9    S3    S    
C3    C22   A    
C15   O17   S    
O4    S2    D    
C13   N1    A    
C1    O1    A    
Cu1   O20   S    
C12   O12   A    
C15   N6    S    
C19   O21   A    
C16   C17   D    
O2    S1    D    
N1    N3    A    
