data_mof_unit_7486.cif
_audit_creation_date              2012-12-10T17:03:42-0500
_audit_creation_method            fapswitch 2.2
_symmetry_space_group_name_H-M    P1
_symmetry_Int_Tables_number       1
_space_group_crystal_system       triclinic
_cell_length_a                    10.029109
_cell_length_b                    10.749529
_cell_length_c                    13.120527
_cell_angle_alpha                 90.014175
_cell_angle_beta                  69.723743
_cell_angle_gamma                 89.987219
_cell_volume                      1326.84738134

loop_
_atom_site_label
_atom_site_type_symbol
_atom_type_description
_atom_site_fract_x
_atom_site_fract_y
_atom_site_fract_z
_atom_type_partial_charge
C1    C     C_R   0.499167 0.737317 0.502195 0.917354
C2    C     C_R   0.432373 0.524892 0.984780 0.088330
C3    C     C_R   0.457643 0.560454 0.876406 0.095554
C4    C     C_R   0.540332 0.547252 0.029060 0.086442
C5    C     C_R   0.659580 0.621359 0.972095 0.122654
C6    C     C_R   0.671923 0.670822 0.871151 -0.247638
C7    C     C_R   0.572184 0.640965 0.823778 -0.188530
C8    C     C_R   0.534077 0.495517 0.127610 -0.244096
C9    C     C_R   0.747165 0.607557 0.123232 -0.016030
C10   C     C_R   0.368838 0.512794 0.822694 -0.125443
C11   C     C_2   0.612203 0.066860 0.500900 -0.151778
C12   C     C_R   0.420770 0.505350 0.704299 0.857766
C13   C     C_2   0.506121 0.131211 0.486754 -0.338749
C14   C     C_2   0.614842 0.932978 0.494495 -0.163763
C15   C     C_2   0.495034 0.868853 0.511827 -0.329860
C16   C     C_2   0.109006 0.447657 0.424536 -0.109120
C17   C     C_2   0.960747 0.455167 0.420945 -0.139868
C18   C     C_R   0.501227 0.262692 0.497466 0.943126
C19   C     C_R   0.579509 0.506042 0.295659 0.854874
C20   C     C_R   0.763593 0.647599 0.017795 -0.174609
C21   C     C_R   0.628156 0.531814 0.179062 -0.155023
C22   C     C_R   0.239428 0.456123 0.882368 -0.182058
C23   C     C_R   0.203328 0.438521 0.993566 -0.081296
C24   C     C_R   0.300042 0.469151 0.044305 -0.165717
H1    H     H_    0.422322 0.088598 0.464286 0.152286
H2    H     H_    0.390810 0.911653 0.536111 0.153759
H3    H     H_    0.187937 0.398085 0.359091 0.153021
H4    H     H_    0.076096 0.551787 0.557292 0.158569
H5    H     H_    0.943881 0.419448 0.349033 0.158063
H6    H     H_    0.866301 0.525865 0.569524 0.169497
H7    H     H_    0.759934 0.731176 0.827940 0.146123
H8    H     H_    0.853403 0.705684 0.973466 0.177040
H9    H     H_    0.452195 0.429206 0.168551 0.146526
H10   H     H_    0.168555 0.421695 0.842504 0.155847
H11   H     H_    0.267085 0.451397 0.130452 0.124633
H12   H     H_    0.102664 0.395974 0.039821 0.142600
H13   H     H_    0.584857 0.682699 0.745930 0.165702
N1    N     N_2   0.148270 0.498670 0.498870 -0.188429
N2    N     N_2   0.852610 0.498640 0.498840 -0.193991
O1    O     O_R   0.386950 0.680940 0.500020 -0.608019
O2    O     O_R   0.613110 0.680900 0.499980 -0.625705
O3    O     O_R   0.330780 0.500000 0.653640 -0.609521
O4    O     O_R   0.556930 0.499960 0.653610 -0.610304
O5    O     O_R   0.386890 0.319100 0.500020 -0.610827
O6    O     O_R   0.613050 0.319060 0.499980 -0.600739
O7    O     O_R   0.443070 0.500040 0.346390 -0.599179
O8    O     O_R   0.669220 0.500000 0.346360 -0.635572
Zn1   Zn    Zn3+2 0.349000 0.500030 0.500020 0.945166
Zn2   Zn    Zn3+2 0.651000 0.499970 0.499980 0.929311
C25   C     C_2   0.850172 0.653348 0.173275 0.364062
H14   H     H_    0.821913 0.661229 0.260339 0.110163
O9    O     O_2   0.969413 0.686055 0.116442 -0.573577
H15   H     H_    0.717012 0.887121 0.476647 0.174622
H16   H     H_    0.699880 0.112465 0.516556 0.176350

loop_
_geom_bond_atom_site_label_1
_geom_bond_atom_site_label_2
_ccdc_geom_bond_type
C25   O9    D    
C23   C24   A    
C6    C7    A    
C1    C15   S    
C18   O5    A    
C2    C3    A    
C17   H5    S    
C9    C20   A    
N1    Zn1   S    
O6    Zn2   S    
H4    N1    S    
C4    C8    A    
C13   H1    S    
C16   H3    S    
C25   H14   S    
C7    H13   S    
C19   O7    A    
O8    Zn2   S    
C3    C10   A    
O3    Zn1   S    
C10   C22   A    
C11   C13   D    
C9    C21   A    
C16   C17   S    
C11   H16   S    
C10   C12   S    
C13   C18   S    
C2    C4    A    
O2    Zn2   S    
C19   C21   S    
H6    N2    S    
C6    H7    S    
C12   O4    A    
C3    C7    A    
C8    H9    S    
C2    C24   A    
C5    C6    A    
C22   H10   S    
C11   C14   S    
O7    Zn1   S    
C24   H11   S    
C18   O6    A    
C14   H15   S    
O1    Zn1   S    
C23   H12   S    
C20   H8    S    
C19   O8    A    
C1    O2    A    
C5    C20   A    
C17   N2    D    
C14   C15   D    
O4    Zn2   S    
C15   H2    S    
C12   O3    A    
C1    O1    A    
N2    Zn2   S    
C22   C23   A    
C9    C25   S    
O5    Zn1   S    
C16   N1    D    
C4    C5    A    
C8    C21   A    
