data_mof_unit_26344.cif
_audit_creation_date              2012-12-10T16:44:39-0500
_audit_creation_method            fapswitch 2.2
_symmetry_space_group_name_H-M    P1
_symmetry_Int_Tables_number       1
_space_group_crystal_system       triclinic
_cell_length_a                    14.95863
_cell_length_b                    8.670623
_cell_length_c                    7.530449
_cell_angle_alpha                 103.218928
_cell_angle_beta                  94.793585
_cell_angle_gamma                 93.702842
_cell_volume                      943.966432707

loop_
_atom_site_label
_atom_site_type_symbol
_atom_type_description
_atom_site_fract_x
_atom_site_fract_y
_atom_site_fract_z
_atom_type_partial_charge
C1    C     C_R   0.497196 0.199854 0.453063 0.886291
C2    C     C_R   0.502804 0.800145 0.546937 0.886291
C3    C     C_R   0.028916 0.208276 0.418576 -0.165473
C4    C     C_R   0.971084 0.791724 0.581423 -0.165473
C5    C     C_2   0.495346 0.031385 0.427324 -0.285994
C6    C     C_2   0.504654 0.968615 0.572676 -0.285995
C7    C     C_R   0.329319 0.498151 0.501073 0.853367
C8    C     C_R   0.670681 0.501849 0.498927 0.853367
C9    C     C_R   0.820393 0.650657 0.539105 0.207768
C10   C     C_R   0.179607 0.349343 0.460895 0.207768
C11   C     C_R   0.767016 0.505203 0.496598 -0.085040
C12   C     C_R   0.232984 0.494797 0.503402 -0.085040
C13   C     C_R   0.805035 0.360404 0.455035 -0.261166
C14   C     C_R   0.194965 0.639596 0.544965 -0.261166
C15   C     C_R   0.897822 0.357428 0.456593 0.119566
C16   C     C_R   0.102178 0.642572 0.543407 0.119566
C17   C     C_R   0.953041 0.501826 0.499149 0.035388
C18   C     C_R   0.046959 0.498174 0.500850 0.035388
C19   C     C_R   0.914462 0.649608 0.540120 0.059534
C20   C     C_R   0.085538 0.350392 0.459880 0.059534
C21   C     C_R   0.936041 0.212004 0.416980 -0.177050
C22   C     C_R   0.063959 0.787996 0.583020 -0.177050
Cu1   Cu    Cu3+1 0.510010 0.517380 0.684380 1.103069
Cu2   Cu    Cu3+1 0.489990 0.482620 0.315620 1.103069
H1    H     H_    0.761990 0.249955 0.423327 0.167184
H2    H     H_    0.238010 0.750045 0.576673 0.167184
H3    H     H_    0.893964 0.100694 0.384629 0.179485
H4    H     H_    0.106036 0.899306 0.615371 0.179485
H5    H     H_    0.055350 0.093109 0.386927 0.191310
H6    H     H_    0.944650 0.906890 0.613073 0.191310
H7    H     H_    0.486076 0.958780 0.287749 0.202017
H8    H     H_    0.513924 0.041220 0.712251 0.202017
N1    N     N_2   0.474890 0.456420 0.038520 0.051470
N2    N     N_2   0.525110 0.543580 0.961480 0.051470
O1    O     O_R   0.506510 0.286130 0.619770 -0.565852
O2    O     O_R   0.493490 0.713870 0.380230 -0.565851
O3    O     O_R   0.489600 0.256770 0.308360 -0.563667
O4    O     O_R   0.510400 0.743230 0.691640 -0.563667
O5    O     O_R   0.378710 0.514640 0.655720 -0.556536
O6    O     O_R   0.621290 0.485360 0.344280 -0.556536
O7    O     O_R   0.361800 0.485290 0.344300 -0.551082
O8    O     O_R   0.638200 0.514710 0.655700 -0.551082
Br1   Br    Br    0.763077 0.847536 0.594322 -0.521961
Br2   Br    Br    0.236923 0.152464 0.405677 -0.521961
Br3   Br    Br    0.384524 0.304151 0.902723 -0.322629
Br4   Br    Br    0.615476 0.695849 0.097276 -0.322629

loop_
_geom_bond_atom_site_label_1
_geom_bond_atom_site_label_2
_ccdc_geom_bond_type
C6    H8    S    
Cu1   Cu2   S    
C15   C17   A    
N2    Br4   S    
Cu1   O4    S    
N1    Br3   S    
C2    O4    A    
C15   C21   A    
Cu1   O1    S    
Cu2   N1    S    
C1    O3    A    
Cu1   N2    S    
C13   C15   A    
Cu2   O3    S    
C21   H3    S    
C3    C20   A    
C22   H4    S    
C14   H2    S    
Cu2   O7    S    
C9    C11   A    
C13   H1    S    
Cu2   O2    S    
Cu1   O8    S    
C10   C12   A    
C8    C11   S    
Cu1   O5    S    
C16   C18   A    
C17   C19   A    
C8    O8    A    
N1    N2    D    
C18   C20   A    
C7    O7    A    
C5    C6    D    
C14   C16   A    
C7    C12   S    
C3    C21   A    
C11   C13   A    
C9    Br1   S    
C10   Br2   S    
C12   C14   A    
C1    C5    S    
C4    C22   A    
C1    O1    A    
C17   C18   A    
C2    O2    A    
C3    H5    S    
C7    O5    A    
C16   C22   A    
C8    O6    A    
Cu2   O6    S    
C4    C19   A    
C9    C19   A    
C4    H6    S    
C2    C6    S    
C10   C20   A    
C5    H7    S    
