data_mof_unit_42182.cif
_audit_creation_date              2012-12-10T20:55:46-0500
_audit_creation_method            fapswitch 2.2
_symmetry_space_group_name_H-M    P1
_symmetry_Int_Tables_number       1
_space_group_crystal_system       triclinic
_cell_length_a                    15.839299
_cell_length_b                    15.022194
_cell_length_c                    10.918031
_cell_angle_alpha                 90.023305
_cell_angle_beta                  90.201567
_cell_angle_gamma                 90.007505
_cell_volume                      2597.83114513

loop_
_atom_site_label
_atom_site_type_symbol
_atom_type_description
_atom_site_fract_x
_atom_site_fract_y
_atom_site_fract_z
_atom_type_partial_charge
C1    C     C_1   0.250509 0.500090 0.502682 -0.154074
C2    C     C_R   0.416467 0.047298 0.491643 0.396121
C3    C     C_R   0.956248 0.573366 0.549455 -0.157367
C4    C     C_R   0.043913 0.426305 0.456328 -0.162249
C5    C     C_R   0.043784 0.573296 0.550430 -0.161888
C6    C     C_R   0.956384 0.426357 0.455410 -0.153686
C7    C     C_R   0.338832 0.500017 0.500929 0.891143
C8    C     C_R   0.661195 0.500007 0.499822 0.888032
C9    C     C_R   0.498593 0.500042 0.259296 0.921663
C10   C     C_R   0.497121 0.499742 0.741065 0.877355
C11   C     C_R   0.913208 0.499921 0.501876 0.144141
C12   C     C_1   0.749571 0.500022 0.500211 -0.138183
C13   C     C_R   0.086937 0.499783 0.503799 0.151457
C14   C     C_1   0.497422 0.807022 0.504369 0.499863
C15   C     C_1   0.497635 0.192734 0.502657 0.491836
C16   C     C_1   0.824419 0.500001 0.500845 -0.049047
C17   C     C_1   0.175690 0.500016 0.503603 -0.060689
C18   C     C_R   0.550989 0.657037 0.106733 0.399624
C19   C     C_R   0.498874 0.330546 0.889922 0.422403
C20   C     C_R   0.454232 0.662644 0.892578 0.407023
C21   C     C_R   0.420095 0.349690 0.114958 0.392953
C22   C     C_R   0.530706 0.740729 0.055167 0.208079
C23   C     C_R   0.491157 0.498894 0.873984 -0.073424
C24   C     C_R   0.447680 0.261962 0.932981 0.168831
C25   C     C_R   0.477298 0.743652 0.950022 0.194947
C26   C     C_R   0.413209 0.268660 0.050266 0.122015
C27   C     C_R   0.485668 0.580605 0.939146 -0.169979
C28   C     C_R   0.466375 0.422383 0.063567 -0.166483
C29   C     C_R   0.511708 0.578938 0.059939 -0.191763
C30   C     C_R   0.489335 0.417174 0.940897 -0.190220
C31   C     C_3   0.683378 0.607689 0.154138 -0.190902
C32   C     C_3   0.640413 0.336703 0.846124 -0.212443
C33   C     C_3   0.317740 0.631124 0.841898 -0.185239
C34   C     C_R   0.493247 0.500179 0.127177 -0.062337
C35   C     C_3   0.298374 0.406129 0.191856 -0.202213
C36   C     C_R   0.493589 0.904739 0.511453 -0.336364
C37   C     C_R   0.494464 0.094457 0.505131 -0.320101
C38   C     C_R   0.417002 0.951494 0.487841 0.286832
C39   C     C_R   0.570623 0.046252 0.522723 0.225329
C40   C     C_R   0.567762 0.952560 0.541627 0.335584
H1    H     H_    0.077694 0.630134 0.586992 0.162298
H2    H     H_    0.756618 0.924919 0.735816 0.393892
H3    H     H_    0.638662 0.163126 0.690346 0.374450
H4    H     H_    0.189557 0.898936 0.490765 0.388661
H5    H     H_    0.707446 0.638963 0.068605 0.162983
H6    H     H_    0.670322 0.535797 0.139012 0.118746
H7    H     H_    0.734087 0.612433 0.224179 0.195805
H8    H     H_    0.654141 0.311811 0.940190 0.159589
H9    H     H_    0.646291 0.410354 0.842676 0.137073
H10   H     H_    0.689194 0.309119 0.784225 0.213093
H11   H     H_    0.295913 0.668858 0.923721 0.168181
H12   H     H_    0.922497 0.369572 0.418667 0.171675
H13   H     H_    0.321561 0.558804 0.862839 0.112193
H14   H     H_    0.269534 0.639723 0.768901 0.197654
H15   H     H_    0.263486 0.374889 0.114150 0.161047
H16   H     H_    0.312215 0.477135 0.171279 0.119356
H17   H     H_    0.256100 0.404199 0.272478 0.192143
H18   H     H_    0.922248 0.630228 0.585380 0.168705
H19   H     H_    0.077930 0.369537 0.420131 0.165545
H20   H     H_    0.487446 0.166361 0.244383 0.338378
H21   H     H_    0.361386 0.890536 0.737583 0.403667
H22   H     H_    0.343239 0.288128 0.722257 0.348379
H23   H     H_    0.637925 0.877582 0.289605 0.390569
H24   H     H_    0.201859 0.098140 0.380634 0.384615
N1    N     N_1   0.500000 0.270550 0.500000 -0.019938
N2    N     N_1   0.500000 0.729450 0.500000 -0.032615
O1    O     O_R   0.378020 0.573650 0.500040 -0.583263
O2    O     O_2   0.399106 0.087463 0.065631 -0.129006
O3    O     O_3   0.426819 0.172924 0.264572 -0.499320
O4    O     O_2   0.372989 0.881985 0.979333 -0.189374
O5    O     O_2   0.506827 0.912800 0.875961 -0.150534
O6    O     O_3   0.389658 0.832919 0.753899 -0.489182
O7    O     O_2   0.475172 0.117202 0.795163 -0.225306
O8    O     O_2   0.328856 0.140515 0.862329 -0.176355
O9    O     O_3   0.387288 0.245112 0.697047 -0.519286
O10   O     O_2   0.636379 0.879414 0.039969 -0.212842
O11   O     O_2   0.502481 0.905518 0.145842 -0.200827
O12   O     O_R   0.621980 0.426350 0.499960 -0.606292
O13   O     O_3   0.618783 0.818609 0.259896 -0.495827
O14   O     O_2   0.272140 0.093545 0.602828 -0.199349
O15   O     O_2   0.328883 0.205773 0.465453 -0.233969
O16   O     O_3   0.257683 0.069867 0.368327 -0.408787
O17   O     O_2   0.622105 0.817479 0.686465 -0.296069
O18   O     O_2   0.711481 0.859306 0.513689 -0.268433
O19   O     O_3   0.708877 0.961648 0.705954 -0.420528
O20   O     O_2   0.739034 0.042979 0.475110 -0.162565
O21   O     O_2   0.664928 0.179843 0.425883 -0.323608
O22   O     O_3   0.693453 0.145213 0.654638 -0.462440
O23   O     O_R   0.621980 0.573650 0.499960 -0.584459
O24   O     O_2   0.305625 0.900801 0.315847 -0.187991
O25   O     O_2   0.330334 0.791869 0.476902 -0.304294
O26   O     O_3   0.239377 0.926720 0.530361 -0.476528
O27   O     O_3   0.611429 0.652456 0.198557 -0.514082
O28   O     O_3   0.560270 0.308258 0.804660 -0.551694
O29   O     O_3   0.395477 0.664008 0.798358 -0.512805
O30   O     O_3   0.373019 0.359284 0.220699 -0.515044
O31   O     O_R   0.378020 0.426350 0.500040 -0.572924
O32   O     O_R   0.499990 0.573670 0.316780 -0.585481
O33   O     O_R   0.500010 0.426330 0.683220 -0.576040
O34   O     O_R   0.500010 0.573670 0.683220 -0.573370
O35   O     O_R   0.499990 0.426330 0.316780 -0.584978
O36   O     O_2   0.283871 0.178925 0.148233 -0.188203
S1    S     S_3+6 0.377592 0.173201 0.129258 0.182754
S2    S     S_3+6 0.436955 0.846092 0.890759 0.166009
S3    S     S_3+6 0.408960 0.185758 0.823165 0.122775
S4    S     S_3+6 0.572012 0.839354 0.124419 0.130252
S5    S     S_3+6 0.318085 0.107398 0.484175 0.170109
S6    S     S_3+6 0.654022 0.894422 0.611699 0.110019
S7    S     S_3+6 0.669453 0.104087 0.515585 0.108101
S8    S     S_3+6 0.322795 0.889660 0.450468 0.097944
Zn1   Zn    Zn3+2 0.500000 0.598370 0.500000 1.123760
Zn2   Zn    Zn3+2 0.500000 0.401630 0.500000 1.106609

loop_
_geom_bond_atom_site_label_1
_geom_bond_atom_site_label_2
_ccdc_geom_bond_type
C32   O28   S    
O5    S2    D    
O15   S5    D    
C9    O32   A    
C27   C29   A    
O2    S1    D    
C21   C26   A    
H23   O13   S    
C35   O30   S    
O35   Zn2   S    
O14   S5    D    
H3    O22   S    
O25   S8    D    
O11   S4    D    
C24   C26   A    
C14   C36   S    
O4    S2    D    
C20   C25   A    
C15   N1    T    
C2    S5    S    
O17   S6    D    
C4    C13   A    
C15   C37   S    
C12   C16   T    
C22   C25   A    
C23   C27   A    
N2    Zn1   S    
C38   S8    S    
O19   S6    S    
C5    C13   A    
H4    O26   S    
C40   S6    S    
C28   C34   A    
C31   H7    S    
C8    O12   A    
C32   H8    S    
C10   O33   A    
C33   O29   S    
O3    S1    S    
C33   H13   S    
C35   H15   S    
C23   C30   A    
C36   C40   A    
O20   S7    D    
C4    C6    A    
C6    C11   A    
C18   C29   A    
O31   Zn2   S    
O6    S2    S    
C31   O27   S    
C29   C34   A    
C31   H6    S    
O13   S4    S    
N1    Zn2   S    
C26   S1    S    
C11   C16   S    
C2    C38   A    
O7    S3    D    
C8    C12   S    
H24   O16   S    
C14   N2    T    
H2    O19   S    
O16   S5    S    
C10   O34   A    
C32   H10   S    
C19   O28   S    
O22   S7    S    
H21   O6    S    
O1    Zn1   S    
C20   C27   A    
C20   O29   S    
O9    S3    S    
C9    C34   S    
H22   O9    S    
O24   S8    D    
C39   C40   A    
C33   H14   S    
C5    H1    S    
O10   S4    D    
O32   Zn1   S    
C7    O31   A    
C35   H16   S    
C1    C7    S    
C21   C28   A    
C3    C5    A    
C25   S2    S    
O21   S7    D    
C21   O30   S    
C10   C23   S    
C33   H11   S    
O23   Zn1   S    
C1    C17   T    
C13   C17   S    
C35   H17   S    
C6    H12   S    
C18   C22   A    
C19   C24   A    
C28   C30   A    
C37   C39   A    
C22   S4    S    
O8    S3    D    
C2    C37   A    
O26   S8    S    
H20   O3    S    
O33   Zn2   S    
C4    H19   S    
C36   C38   A    
O18   S6    D    
O36   S1    D    
C32   H9    S    
C3    C11   A    
C7    O1    A    
C3    H18   S    
C39   S7    S    
O34   Zn1   S    
C9    O35   A    
C31   H5    S    
C18   O27   S    
O12   Zn2   S    
C8    O23   A    
C24   S3    S    
C19   C30   A    
