data_mof_unit_59380.cif
_audit_creation_date              2013-03-05T16:10:38-0500
_audit_creation_method            fapswitch 2.2
_symmetry_space_group_name_H-M    P1
_symmetry_Int_Tables_number       1
_space_group_crystal_system       triclinic
_cell_length_a                    20.64995
_cell_length_b                    7.193625
_cell_length_c                    20.516469
_cell_angle_alpha                 90.159738
_cell_angle_beta                  101.930512
_cell_angle_gamma                 90.196656
_cell_volume                      2981.810915

loop_
_atom_site_label
_atom_site_type_symbol
_atom_site_description
_atom_site_fract_x
_atom_site_fract_y
_atom_site_fract_z
_atom_type_partial_charge
O1    O     O_R   0.807340 0.614490 0.194100 -0.560038
O2    O     O_R   0.192660 0.385510 0.805900 -0.547006
O3    O     O_R   0.692660 0.114490 0.305900 -0.551588
O4    O     O_R   0.307340 0.885510 0.694100 -0.543362
O5    O     O_R   0.672910 0.282300 0.178070 -0.579994
O6    O     O_R   0.327090 0.717700 0.821930 -0.536394
O7    O     O_R   0.827090 0.782300 0.321930 -0.593024
O8    O     O_R   0.172910 0.217700 0.678070 -0.561953
C1    C     C_R   0.649525 0.452914 0.160720 0.967172
C2    C     C_R   0.350928 0.547277 0.838769 0.920032
C3    C     C_R   0.850933 0.954032 0.338942 0.959107
C4    C     C_R   0.149262 0.046257 0.661063 0.952851
O9    O     O_R   0.805620 0.284620 0.186180 -0.571130
O10   O     O_R   0.194380 0.715380 0.813820 -0.583783
O11   O     O_R   0.694380 0.784620 0.313820 -0.576206
O12   O     O_R   0.305620 0.215380 0.686180 -0.597046
O13   O     O_R   0.826310 0.116750 0.314070 -0.581466
O14   O     O_R   0.173690 0.883250 0.685930 -0.596223
O15   O     O_R   0.673690 0.616750 0.185930 -0.582067
O16   O     O_R   0.326310 0.383250 0.814070 -0.604243
C5    C     C_R   0.824882 0.453347 0.171540 0.919832
C6    C     C_R   0.175173 0.546618 0.828520 0.936701
C7    C     C_R   0.675190 0.953307 0.328534 0.930487
C8    C     C_R   0.324877 0.046697 0.671550 0.952886
O17   O     O_3   0.756630 0.448770 0.291950 -0.272463
O18   O     O_3   0.243370 0.551230 0.708050 -0.278572
O19   O     O_3   0.743370 0.948770 0.208050 -0.268629
O20   O     O_3   0.256630 0.051230 0.791950 -0.265903
V1    V     V_3+5 0.748770 0.172970 0.242220 1.261996
V2    V     V_3+5 0.251230 0.827030 0.757780 1.271359
V3    V     V_3+5 0.751230 0.672970 0.257780 1.256058
V4    V     V_3+5 0.248770 0.327030 0.742220 1.250785
C9    C     C_R   0.464973 0.161957 0.505793 -0.314869
C10   C     C_R   0.536172 0.838215 0.495473 -0.310493
C11   C     C_R   0.035827 0.662203 0.994980 -0.310704
C12   C     C_R   0.964765 0.337192 0.005641 -0.312613
H1    H     H_    0.437277 0.287793 0.509900 0.137725
H2    H     H_    0.563852 0.712374 0.491336 0.141032
H3    H     H_    0.063444 0.788547 0.990704 0.140882
H4    H     H_    0.937131 0.210862 0.009898 0.139082
C13   C     C_R   0.455411 0.007344 0.544346 0.163433
C14   C     C_R   0.545711 0.992839 0.456891 0.161752
C15   C     C_R   0.045508 0.506789 0.956648 0.160822
C16   C     C_R   0.955082 0.492600 0.043969 0.162656
C17   C     C_R   0.491625 0.842431 0.539133 -0.035424
C18   C     C_R   0.509740 0.158007 0.462383 -0.046298
C19   C     C_R   0.009560 0.341032 0.962253 -0.043007
C20   C     C_R   0.991138 0.658241 0.038484 -0.051514
C21   C     C_1   0.408797 0.023909 0.588844 0.100669
C22   C     C_1   0.591911 0.976049 0.411943 0.098802
C23   C     C_1   0.091784 0.523520 0.911787 0.097642
C24   C     C_1   0.908603 0.476067 0.088619 0.092130
C25   C     C_1   0.630098 0.963574 0.374218 -0.170442
C26   C     C_1   0.370266 0.036407 0.626197 -0.171198
C27   C     C_1   0.870185 0.463666 0.126098 -0.177435
C28   C     C_1   0.130032 0.536138 0.874135 -0.173319
C29   C     C_R   0.913794 0.970188 0.390392 -0.214455
C30   C     C_R   0.087103 0.035737 0.608854 -0.210173
C31   C     C_R   0.587656 0.461663 0.108202 -0.186474
C32   C     C_R   0.412824 0.539944 0.891424 -0.241650
C33   C     C_R   0.966769 0.989979 0.577898 -0.120609
C34   C     C_R   0.027323 0.091927 0.423343 -0.119050
C35   C     C_R   0.533793 0.562406 0.923813 -0.108434
C36   C     C_R   0.467161 0.438723 0.075562 -0.122160
C37   C     C_R   0.025212 0.016602 0.627566 -0.134307
C38   C     C_R   0.969894 0.056202 0.373395 -0.123935
C39   C     C_R   0.474375 0.583213 0.875193 -0.093909
C40   C     C_R   0.526395 0.409508 0.123292 -0.132432
C41   C     C_R   0.089801 0.038747 0.540500 -0.131186
C42   C     C_R   0.915092 0.924676 0.457798 -0.151354
C43   C     C_R   0.411457 0.467761 0.955225 -0.141908
C44   C     C_R   0.588944 0.537451 0.044857 -0.195385
C45   C     C_R   0.029865 0.036437 0.490627 0.165602
C46   C     C_R   0.970184 0.980544 0.509034 0.158648
C47   C     C_R   0.469411 0.476901 0.007653 0.187980
C48   C     C_R   0.531320 0.526518 0.991897 0.087070
C49   C     C_2   0.516686 0.330318 0.424501 0.508415
H5    H     H_    0.484652 0.447858 0.427781 0.004731
O21   O     O_2   0.558035 0.345458 0.390079 -0.537149
C50   C     C_2   0.485277 0.670824 0.577655 0.506883
H6    H     H_    0.516048 0.551519 0.572883 0.004316
O22   O     O_2   0.446147 0.658633 0.614627 -0.561113
C51   C     C_2   0.984431 0.830937 0.076526 0.514828
H7    H     H_    0.015759 0.949983 0.072330 0.004506
O23   O     O_2   0.944257 0.844456 0.112321 -0.537415
C52   C     C_2   0.016539 0.168040 0.924494 0.507963
H8    H     H_    0.984501 0.049976 0.927837 -0.000650
O24   O     O_2   0.057892 0.152959 0.890082 -0.542415
C53   C     C_2   0.861002 0.805244 0.472730 0.624096
H9    H     H_    0.810469 0.821979 0.445420 -0.023432
O25   O     O_2   0.873040 0.681925 0.514221 -0.568943
C54   C     C_2   0.155832 0.018858 0.522695 0.614722
H10   H     H_    0.199290 0.084237 0.552960 -0.045559
O26   O     O_2   0.162686 0.921821 0.475668 -0.570317
C55   C     C_2   0.649268 0.642824 0.037964 0.577915
H11   H     H_    0.698097 0.586679 0.057623 -0.054192
O27   O     O_2   0.644673 0.797647 0.013203 -0.539401
C56   C     C_2   0.350855 0.364922 0.963151 0.639322
H12   H     H_    0.302129 0.418430 0.941379 -0.030193
O28   O     O_2   0.355091 0.215002 0.991476 -0.578264
C57   C     C_2   0.968815 0.110923 0.302976 0.531706
H13   H     H_    0.993409 0.237043 0.292060 -0.012805
O29   O     O_2   0.941670 0.013343 0.256426 -0.534126
C58   C     C_2   0.021137 0.024053 0.699349 0.523655
H14   H     H_    0.985700 0.938360 0.717904 -0.001223
O30   O     O_2   0.056525 0.128541 0.738358 -0.534163
C59   C     C_2   0.522695 0.337808 0.190655 0.504073
H15   H     H_    0.485886 0.233923 0.195692 0.012340
O31   O     O_2   0.559335 0.396240 0.241060 -0.533472
C60   C     C_2   0.477393 0.627245 0.804935 0.605805
H16   H     H_    0.512487 0.556316 0.780927 0.041261
O32   O     O_2   0.441857 0.745927 0.773809 -0.550027
C61   C     C_2   0.901688 0.007003 0.597887 0.577865
H17   H     H_    0.891936 0.933558 0.640900 0.008366
O33   O     O_2   0.858761 0.108148 0.566979 -0.566010
C62   C     C_2   0.080835 0.208502 0.405664 0.560905
H18   H     H_    0.097620 0.183503 0.359681 0.020194
O34   O     O_2   0.105068 0.337375 0.441519 -0.560899
C63   C     C_2   0.598192 0.558629 0.901889 0.546135
H19   H     H_    0.634436 0.453101 0.921380 0.002101
O35   O     O_2   0.612309 0.676423 0.864333 -0.551035
C64   C     C_2   0.404753 0.461220 0.100490 0.572336
H20   H     H_    0.392457 0.367691 0.137468 0.011558
O36   O     O_2   0.367517 0.590538 0.081454 -0.572564

loop_
_geom_bond_atom_site_label_1
_geom_bond_atom_site_label_2
_geom_bond_distance
_ccdc_geom_bond_type
O17   V3    1.755072 S    
O1    C5    1.326045 A    
C57   H13   1.084526 S    
O19   V1    1.750772 S    
O13   V1    1.982995 S    
C45   C46   1.418789 A    
O3    C7    1.326498 A    
C55   H11   1.085386 S    
C10   C14   1.403726 A    
C29   C38   1.417684 A    
C44   C48   1.437722 A    
O15   V3    1.979074 S    
C58   O30   1.220893 D    
C49   H5    1.085812 S    
O7    C3    1.346389 A    
O5    C1    1.342266 A    
C36   C40   1.416673 A    
O9    V1    1.975316 S    
C11   H3    1.084689 S    
O4    C8    1.326290 A    
C52   O24   1.220192 D    
C35   C48   1.432440 A    
C8    C26   1.452739 S    
C21   C26   1.216826 T    
O1    V3    1.962794 S    
C62   H18   1.084962 S    
C12   C19   1.410415 A    
O2    V4    1.962797 S    
C23   C28   1.216939 T    
C14   C18   1.419882 A    
O3    V1    1.962650 S    
C60   H16   1.084842 S    
C39   C60   1.490465 S    
C44   C55   1.487705 S    
C1    O15   1.338435 A    
C32   C39   1.412839 A    
C2    O16   1.339229 A    
C42   C46   1.435552 A    
C59   H15   1.084406 S    
C34   C45   1.428619 A    
C41   C45   1.433607 A    
O14   V2    1.982999 S    
C40   C59   1.493067 S    
C29   C42   1.416914 A    
C53   O25   1.221308 D    
C41   C54   1.490010 S    
C11   C15   1.403554 A    
C24   C27   1.216840 T    
C31   C44   1.416007 A    
C4    C30   1.493691 S    
C16   C24   1.462136 S    
C49   O21   1.220146 D    
O12   C8    1.330896 A    
C10   H2    1.084701 S    
C9    C18   1.410330 A    
C59   O31   1.220850 D    
C38   C57   1.494213 S    
O10   V2    1.975316 S    
C11   C20   1.410516 A    
C13   C21   1.462110 S    
C58   H14   1.083422 S    
C7    C25   1.453241 S    
O5    V1    1.991607 S    
C63   O35   1.221276 D    
C43   C56   1.489357 S    
C35   C39   1.420921 A    
C22   C25   1.217118 T    
O7    V3    1.984449 S    
C34   C38   1.420047 A    
O8    V4    1.984449 S    
C19   C52   1.487124 S    
C12   H4    1.084705 S    
C50   O22   1.220338 D    
C5    C27   1.452736 S    
O18   V4    1.755072 S    
C6    C28   1.452937 S    
C32   C43   1.415211 A    
C9    H1    1.084750 S    
C1    C31   1.492978 S    
C2    C32   1.494456 S    
C47   C48   1.426394 A    
O2    C6    1.325936 A    
C31   C40   1.412879 A    
C35   C63   1.489632 S    
C30   C37   1.414795 A    
C51   H7    1.085781 S    
O8    C4    1.343222 A    
C54   O26   1.221306 D    
O9    C5    1.330315 A    
C10   C17   1.410759 A    
C14   C22   1.462567 S    
C51   O23   1.220261 D    
C56   O28   1.221312 D    
C33   C61   1.489284 S    
C12   C16   1.403487 A    
C42   C53   1.488614 S    
C64   O36   1.221436 D    
C61   H17   1.083424 S    
O16   V4    1.979073 S    
C3    O13   1.337612 A    
O6    V2    1.991605 S    
C52   H8    1.085793 S    
C50   H6    1.085784 S    
O6    C2    1.341949 A    
C18   C49   1.487051 S    
C63   H19   1.085437 S    
C55   O27   1.221244 D    
C30   C41   1.415174 A    
O11   V3    1.975987 S    
C33   C46   1.430542 A    
O12   V4    1.975984 S    
C20   C51   1.487331 S    
C9    C13   1.403438 A    
O10   C6    1.330518 A    
O20   V2    1.750772 S    
C64   H20   1.083524 S    
C43   C47   1.435393 A    
C15   C23   1.462280 S    
C36   C64   1.490652 S    
O11   C7    1.330935 A    
C54   H10   1.084980 S    
C36   C47   1.430936 A    
C62   O34   1.221408 D    
C17   C50   1.487595 S    
C60   O32   1.220147 D    
C34   C62   1.488933 S    
C33   C37   1.421419 A    
C57   O29   1.221182 D    
C56   H12   1.085310 S    
C4    O14   1.338188 A    
C13   C17   1.420018 A    
C37   C58   1.493221 S    
C53   H9    1.084819 S    
C3    C29   1.498169 S    
C15   C19   1.419869 A    
O4    V2    1.962649 S    
C16   C20   1.419910 A    
C61   O33   1.221428 D    
