data_mof_unit_34215.cif
_audit_creation_date              2012-12-10T20:26:25-0500
_audit_creation_method            fapswitch 2.2
_symmetry_space_group_name_H-M    P1
_symmetry_Int_Tables_number       1
_space_group_crystal_system       triclinic
_cell_length_a                    10.690283
_cell_length_b                    10.669545
_cell_length_c                    9.860313
_cell_angle_alpha                 90.136816
_cell_angle_beta                  90.852481
_cell_angle_gamma                 90.15519
_cell_volume                      1124.5398679

loop_
_atom_site_label
_atom_site_type_symbol
_atom_type_description
_atom_site_fract_x
_atom_site_fract_y
_atom_site_fract_z
_atom_type_partial_charge
C1    C     C_R   0.506813 0.260095 0.499829 0.911078
C2    C     C_R   0.527780 0.128561 0.501685 -0.188602
C3    C     C_R   0.577435 0.062815 0.389988 0.262906
C4    C     C_R   0.572953 0.932826 0.391187 -0.254731
C5    C     C_R   0.522235 0.871178 0.502956 -0.161316
C6    C     C_R   0.498814 0.936842 0.621429 0.137369
C7    C     C_3   0.388625 0.931532 0.712715 -0.470596
C8    C     C_3   0.391493 0.073640 0.712530 -0.466788
C9    C     C_R   0.436393 0.409545 0.070072 0.292259
C10   C     C_R   0.571724 0.582287 0.073372 -0.120437
C11   C     C_R   0.571697 0.582329 0.929346 -0.130620
C12   C     C_R   0.262584 0.506297 0.498732 0.903519
C13   C     C_R   0.436233 0.409642 0.927471 0.230732
C14   C     C_3   0.298786 0.385649 0.920111 -0.524066
C15   C     C_3   0.299246 0.384930 0.074032 -0.528002
C16   C     C_R   0.503249 0.739945 0.500313 0.903518
C17   C     C_R   0.737300 0.492222 0.501065 0.933643
C18   C     C_2   0.932605 0.460776 0.390927 -0.151472
C19   C     C_2   0.868175 0.469067 0.504834 -0.334296
C20   C     C_2   0.066862 0.455729 0.401372 -0.259919
C21   C     C_2   0.130919 0.526509 0.491788 0.088274
C22   C     C_R   0.501225 0.064291 0.620681 0.115421
H1    H     H_    0.888057 0.457619 0.291210 0.196567
H2    H     H_    0.417886 0.114321 0.812860 0.217365
H3    H     H_    0.627666 0.650356 0.128836 0.148773
H4    H     H_    0.627585 0.650439 0.876036 0.153942
H5    H     H_    0.245850 0.465571 0.876000 0.223254
H6    H     H_    0.276012 0.292839 0.874714 0.205183
H7    H     H_    0.246147 0.464158 0.118391 0.219195
H8    H     H_    0.277834 0.291413 0.117517 0.213009
H9    H     H_    0.913794 0.461615 0.603742 0.177322
H10   H     H_    0.113528 0.386515 0.338794 0.157399
H11   H     H_    0.603729 0.880934 0.303208 0.189806
H12   H     H_    0.303914 0.891375 0.661973 0.205743
H13   H     H_    0.412791 0.890284 0.813140 0.212721
H14   H     H_    0.308158 0.116468 0.662357 0.195559
N1    N     N_R   0.499170 0.499140 0.142800 -0.108669
N2    N     N_R   0.499170 0.499180 0.857150 -0.113145
O1    O     O_R   0.500020 0.316790 0.614690 -0.618427
O2    O     O_R   0.500000 0.316760 0.385350 -0.575931
O3    O     O_R   0.319080 0.500020 0.614640 -0.621618
O4    O     O_R   0.319070 0.499980 0.385300 -0.636016
O5    O     O_R   0.500000 0.683240 0.614650 -0.622509
O6    O     O_R   0.499980 0.683210 0.385310 -0.625325
O7    O     O_R   0.680930 0.500020 0.614700 -0.622417
O8    O     O_R   0.680920 0.499980 0.385360 -0.606379
Zn1   Zn    Zn3+2 0.500010 0.500020 0.653130 0.945493
Zn2   Zn    Zn3+2 0.499990 0.499980 0.346870 0.970804
N3    N     N_2   0.080107 0.637148 0.552953 -0.314691
H15   H     H_    0.997707 0.672614 0.513576 0.248707
C23   C     C_3   0.097592 0.652902 0.697830 -0.803438
H16   H     H_    0.197613 0.669958 0.723211 0.262009
H17   H     H_    0.063296 0.569018 0.752552 0.238325
H18   H     H_    0.044283 0.735905 0.732563 0.238006
Br1   Br    Br    0.647472 0.140989 0.232509 -0.538489

loop_
_geom_bond_atom_site_label_1
_geom_bond_atom_site_label_2
_ccdc_geom_bond_type
C2    C22   A    
C11   N2    A    
C8    C22   S    
C12   O3    A    
C8    H2    S    
C14   H5    S    
C16   O6    A    
C3    Br1   S    
C11   H4    S    
C23   H18   S    
C19   H9    S    
C21   N3    S    
C2    C3    A    
O3    Zn1   S    
C7    C8    S    
O4    Zn2   S    
C13   C14   S    
C20   C21   D    
N1    Zn2   S    
C16   O5    A    
N2    Zn1   S    
C6    C7    S    
C7    H13   S    
C10   N1    A    
C10   H3    S    
C9    N1    A    
C17   C19   S    
C17   O7    A    
C15   H7    S    
C18   C20   S    
O7    Zn1   S    
C20   H10   S    
C5    C6    A    
C7    H12   S    
O8    Zn2   S    
C10   C11   A    
C1    O1    A    
C23   H17   S    
C12   O4    A    
C18   H1    S    
C6    C22   A    
O6    Zn2   S    
C23   H16   S    
C17   O8    A    
C15   H8    S    
O1    Zn1   S    
C1    C2    S    
C8    H14   S    
N3    H15   S    
O2    Zn2   S    
C4    H11   S    
C18   C19   D    
C5    C16   S    
C9    C13   A    
C1    O2    A    
C14   H6    S    
C14   C15   S    
O5    Zn1   S    
C12   C21   S    
C13   N2    A    
C3    C4    A    
C9    C15   S    
C4    C5    A    
N3    C23   S    
