data_mof_unit_5554.cif
_audit_creation_date              2013-03-05T16:48:15-0500
_audit_creation_method            fapswitch 2.2
_symmetry_space_group_name_H-M    P1
_symmetry_Int_Tables_number       1
_space_group_crystal_system       triclinic
_cell_length_a                    23.517129
_cell_length_b                    8.91376
_cell_length_c                    8.093153
_cell_angle_alpha                 89.543896
_cell_angle_beta                  89.982095
_cell_angle_gamma                 90.011352
_cell_volume                      1696.48177394

loop_
_atom_site_label
_atom_site_type_symbol
_atom_site_description
_atom_site_fract_x
_atom_site_fract_y
_atom_site_fract_z
_atom_type_partial_charge
O1    O     O_R   0.500000 0.285350 0.636850 -0.607577
O2    O     O_R   0.500000 0.714650 0.363150 -0.608006
O3    O     O_R   0.500000 0.714650 0.636850 -0.606911
O4    O     O_R   0.500000 0.285350 0.363150 -0.607740
C1    C     C_R   0.499997 0.217975 0.500418 0.962882
C2    C     C_R   0.499985 0.782025 0.499581 0.963776
O5    O     O_R   0.416160 0.500000 0.636910 -0.591182
O6    O     O_R   0.583840 0.500000 0.363090 -0.590890
O7    O     O_R   0.583840 0.500000 0.636910 -0.590719
O8    O     O_R   0.416160 0.500000 0.363090 -0.590513
C3    C     C_R   0.207846 0.501598 0.502655 -0.033994
C4    C     C_R   0.791540 0.505319 0.500711 -0.020416
C5    C     C_R   0.389041 0.499932 0.500051 1.008151
C6    C     C_R   0.610893 0.500403 0.499980 1.010367
Zn1   Zn    Zn3+2 0.500000 0.500000 0.682780 1.126692
Zn2   Zn    Zn3+2 0.500000 0.500000 0.317220 1.126416
C7    C     C_R   0.296791 0.569853 0.369522 0.201415
C8    C     C_R   0.703259 0.423353 0.377097 0.200016
C9    C     C_R   0.297043 0.430642 0.632212 0.201202
C10   C     C_R   0.702489 0.583373 0.622799 0.200071
C11   C     C_R   0.326770 0.499980 0.500412 -0.387982
C12   C     C_R   0.673030 0.502284 0.500005 -0.383397
C13   C     C_R   0.880069 0.629167 0.445156 0.698665
C14   C     C_R   0.118086 0.370182 0.518672 0.699362
C15   C     C_R   0.879635 0.381458 0.560646 0.697567
C16   C     C_R   0.118646 0.635826 0.490037 0.699233
N1    N     N_R   0.852193 0.505359 0.502193 -0.338941
N2    N     N_R   0.146850 0.502560 0.503882 -0.340257
C17   C     C_R   0.939391 0.375918 0.561309 -0.161757
C18   C     C_R   0.059545 0.636807 0.465867 -0.163379
C19   C     C_R   0.939847 0.634276 0.447027 -0.162197
C20   C     C_R   0.059046 0.371005 0.543801 -0.163410
C21   C     C_R   0.969405 0.504849 0.504440 -0.089965
C22   C     C_R   0.029209 0.504261 0.504788 -0.102943
C23   C     C_R   0.970051 0.247960 0.618219 0.379233
C24   C     C_R   0.030464 0.763479 0.402950 0.386728
C25   C     C_R   0.970970 0.762106 0.391770 0.378362
C26   C     C_R   0.029538 0.245311 0.607456 0.386022
C27   C     C_1   0.499997 0.065216 0.500600 -0.074344
C28   C     C_1   0.499993 0.934783 0.499399 -0.073367
C29   C     C_R   0.237452 0.560067 0.365171 0.366770
C30   C     C_R   0.762637 0.428205 0.376089 0.361111
C31   C     C_R   0.237791 0.442115 0.638886 0.367310
C32   C     C_R   0.761890 0.581471 0.624578 0.360954
N3    N     N_1   0.500000 0.500000 0.073640 0.022853
N4    N     N_1   0.500000 0.500000 0.926360 0.022932
O9    O     O_2   0.849134 0.745868 0.388248 -0.396351
O10   O     O_2   0.146783 0.239661 0.507286 -0.387429
O11   O     O_2   0.848288 0.264865 0.616031 -0.397162
O12   O     O_2   0.147974 0.765413 0.501108 -0.387988
Cl1   Cl    Cl    0.936396 0.088106 0.707215 -0.313413
Cl2   Cl    Cl    0.067809 0.917973 0.315053 -0.312207
Cl3   Cl    Cl    0.937889 0.923577 0.304672 -0.316093
Cl4   Cl    Cl    0.066366 0.090607 0.696589 -0.314039
Cl5   Cl    Cl    0.200000 0.624304 0.188592 -0.348005
Cl6   Cl    Cl    0.801565 0.332603 0.222548 -0.347589
Cl7   Cl    Cl    0.200879 0.379024 0.816997 -0.346557
Cl8   Cl    Cl    0.799894 0.679064 0.778501 -0.346647
N5    N     N_R   0.326188 0.659390 0.248068 0.266115
O13   O     O_R   0.320156 0.633425 0.091190 -0.245192
O14   O     O_R   0.357658 0.771459 0.294643 -0.348925
N6    N     N_R   0.673991 0.332713 0.258355 0.265547
O15   O     O_R   0.680780 0.357205 0.100910 -0.251200
O16   O     O_R   0.641539 0.222847 0.307598 -0.346282
N7    N     N_R   0.326583 0.340256 0.752521 0.266137
O17   O     O_R   0.357548 0.227656 0.704704 -0.348715
O18   O     O_R   0.321562 0.366827 0.909575 -0.246634
N8    N     N_R   0.672372 0.673232 0.740551 0.265285
O19   O     O_R   0.639049 0.780712 0.690065 -0.349723
O20   O     O_R   0.679329 0.650764 0.898285 -0.251136

loop_
_geom_bond_atom_site_label_1
_geom_bond_atom_site_label_2
_geom_bond_distance
_ccdc_geom_bond_type
Zn2   N3    1.971330 S    
O4    Zn2   1.946206 S    
N6    O16   1.301398 A    
O7    C6    1.277643 A    
C19   C21   1.421988 A    
C9    N7    1.438036 S    
N6    O15   1.300859 A    
O1    Zn1   1.952015 S    
C13   N1    1.360953 A    
C15   N1    1.360956 A    
O2    Zn2   1.952014 S    
C17   C23   1.423089 A    
C16   N2    1.364491 A    
C24   Cl2   1.776891 S    
C18   C24   1.411840 A    
O3    C2    1.258662 A    
C25   Cl3   1.777184 S    
C6    C12   1.461365 S    
C16   O12   1.348851 S    
C14   C20   1.403235 A    
C21   C22   1.406438 A    
O7    Zn1   2.006206 S    
C5    C11   1.464447 S    
N5    O13   1.300168 A    
C4    C32   1.400910 A    
O8    Zn2   2.006209 S    
N3    N4    1.191959 T    
C23   Cl1   1.777183 S    
O2    C2    1.261112 A    
C3    N2    1.434500 S    
C7    N5    1.438042 S    
O1    C1    1.261116 A    
O4    C1    1.258658 A    
O5    Zn1   2.006437 S    
C24   C25   1.402138 A    
C10   C32   1.397125 A    
C9    C31   1.398259 A    
C16   C18   1.403661 A    
C13   C19   1.406618 A    
C7    C29   1.398647 A    
C20   C26   1.411568 A    
C8    C30   1.397083 A    
C15   C17   1.406170 A    
C15   O11   1.347784 S    
C3    C31   1.408533 A    
N5    O14   1.301387 A    
C13   O9    1.347729 S    
C18   C22   1.413391 A    
C4    N1    1.426420 S    
C7    C11   1.413239 A    
C14   O10   1.348893 S    
C17   C21   1.421943 A    
O5    C5    1.278281 A    
C2    C28   1.361641 S    
O3    Zn1   1.946205 S    
C14   N2    1.364425 A    
N8    O20   1.300986 A    
N7    O17   1.301437 A    
O6    Zn2   2.006434 S    
C3    C29   1.408766 A    
C32   Cl8   1.767758 S    
C27   C28   1.162769 T    
C1    C27   1.361643 S    
C31   Cl7   1.770256 S    
C23   C26   1.401861 A    
C29   Cl5   1.770266 S    
C4    C30   1.401084 A    
O6    C6    1.277764 A    
Zn1   N4    1.971330 S    
C30   Cl6   1.767743 S    
C20   C22   1.413304 A    
C8    C12   1.414468 A    
N7    O18   1.300135 A    
C10   N8    1.436436 S    
C8    N6    1.436179 S    
C19   C25   1.423165 A    
C10   C12   1.414809 A    
N8    O19   1.301236 A    
C9    C11   1.413296 A    
O8    C5    1.278648 A    
C26   Cl4   1.776833 S    
