data_mof_unit_8053.cif
_audit_creation_date              2012-12-11T19:09:47-0500
_audit_creation_method            fapswitch 2.2
_symmetry_space_group_name_H-M    P1
_symmetry_Int_Tables_number       1
_space_group_crystal_system       triclinic
_cell_length_a                    8.298088
_cell_length_b                    15.058341
_cell_length_c                    27.032541
_cell_angle_alpha                 99.36886
_cell_angle_beta                  92.417396
_cell_angle_gamma                 81.235049
_cell_volume                      3293.36096009

loop_
_atom_site_label
_atom_site_type_symbol
_atom_type_description
_atom_site_fract_x
_atom_site_fract_y
_atom_site_fract_z
_atom_type_partial_charge
Ba1   Ba    Ba6+2 0.860050 0.456430 0.522540 1.802463
Ba2   Ba    Ba6+2 0.329780 0.543490 0.477450 1.790162
C1    C     C_3   0.723219 0.132858 0.647798 -0.298508
C2    C     C_R   0.882454 0.580683 0.177307 0.572941
C3    C     C_2   0.758181 0.551424 0.273848 -0.079924
C4    C     C_3   0.236186 0.229322 0.650540 1.017870
C5    C     C_3   0.735231 0.586938 0.328968 -0.060119
C6    C     C_1   0.988732 0.487559 0.343800 -0.021487
C7    C     C_2   0.034135 0.486585 0.296564 -0.121230
C8    C     C_2   0.910446 0.516238 0.257192 0.184058
C9    C     C_R   0.026509 0.505563 0.101299 -0.079921
C10   C     C_R   0.104644 0.438842 0.128805 -0.036902
C11   C     C_R   0.222827 0.370661 0.104783 -0.057944
C12   C     C_3   0.708276 0.224886 0.630014 0.382212
C13   C     C_R   0.912425 0.575765 0.125730 -0.023745
C14   C     C_2   0.847869 0.532243 0.361667 -0.203684
C15   C     C_2   0.348742 0.474147 0.638433 -0.187916
C16   C     C_3   0.252751 0.182625 0.696797 0.608520
C17   C     C_R   0.221065 0.431054 0.974031 0.019102
C18   C     C_R   0.015306 0.567303 0.970612 0.020754
C19   C     C_R   0.136872 0.498325 0.946823 0.051377
C20   C     C_R   0.340402 0.363779 0.948241 -0.094406
C21   C     C_R   0.374792 0.362492 0.897956 -0.046797
C22   C     C_R   0.293317 0.428496 0.870774 -0.038949
C23   C     C_3   0.539672 0.678341 0.630862 0.385442
C24   C     C_R   0.174819 0.496798 0.895239 -0.077095
C25   C     C_R   0.094353 0.563733 0.868124 -0.024180
C26   C     C_R   0.136337 0.563205 0.817741 0.582172
C27   C     C_R   0.328109 0.427325 0.819609 0.626045
C28   C     C_3   0.194257 0.255843 0.405873 0.821001
C29   C     C_2   0.451596 0.485487 0.727185 -0.076345
C30   C     C_3   0.493879 0.487599 0.673091 -0.111853
C31   C     C_1   0.203252 0.511634 0.654590 0.066673
C32   C     C_2   0.162808 0.509771 0.701569 0.041033
C33   C     C_2   0.293530 0.495733 0.741341 0.221152
C34   C     C_3   0.577777 0.700209 0.687255 -0.412366
C35   C     C_R   0.183444 0.433113 0.025654 0.019965
C36   C     C_R   0.063014 0.502643 0.049486 0.050062
C37   C     C_R   0.978783 0.569598 0.022160 0.020307
C38   C     C_R   0.262359 0.368170 0.054759 -0.097390
C39   C     C_R   0.830089 0.640757 0.098287 -0.058798
C40   C     C_3   0.131704 0.165249 0.394019 0.509668
C41   C     C_R   0.934753 0.632313 0.941739 -0.099863
C42   C     C_R   0.973945 0.630654 0.891997 -0.056754
C43   C     C_R   0.860768 0.637322 0.047794 -0.102164
C44   C     C_R   0.347621 0.175302 0.530445 0.032595
C45   C     C_3   0.018167 0.743546 0.343380 0.338507
C46   C     C_R   0.575285 0.209194 0.487736 0.117746
C47   C     C_R   0.736096 0.768294 0.473448 -0.186413
C48   C     C_R   0.832365 0.827180 0.458808 0.044459
C49   C     C_R   0.778266 0.920921 0.466525 -0.096138
C50   C     C_R   0.630667 0.957410 0.492001 0.029457
C51   C     C_R   0.546899 0.896722 0.512884 -0.018151
C52   C     C_3   0.097747 0.753735 0.621757 0.658084
C53   C     C_R   0.566625 0.052235 0.499236 0.023177
C54   C     C_R   0.417852 0.083081 0.525544 0.012239
C55   C     C_R   0.342133 0.021476 0.546455 -0.073485
C56   C     C_3   0.026992 0.773826 0.292707 -0.352079
C57   C     C_R   0.407288 0.930948 0.541262 -0.020986
C58   C     C_R   0.642162 0.117261 0.480037 -0.115385
C59   C     C_R   0.429811 0.237865 0.513102 -0.198019
C60   C     C_R   0.604503 0.802629 0.505117 0.101426
C61   C     C_3   0.166308 0.824771 0.660712 -0.314135
C62   C     C_3   0.720660 0.334506 0.371521 0.951444
C63   C     C_3   0.752936 0.302325 0.316141 -0.283508
C64   C     C_3   0.479627 0.784467 0.364999 0.364558
C65   C     C_3   0.428386 0.872825 0.344277 -0.321044
C66   C     C_R   0.062584 0.441221 0.179655 0.600392
F1    F     F_    0.185304 0.111270 0.429976 -0.718430
F2    F     F_    0.604300 0.410677 0.376633 -0.684908
F3    F     F_    0.182509 0.320857 0.665364 -0.711828
F4    F     F_    0.104886 0.196247 0.720638 -0.667618
F5    F     F_    0.359949 0.238902 0.406216 -0.730176
H1    H     H_    0.826889 0.231807 0.615798 0.111343
H2    H     H_    0.849562 0.242291 0.311268 0.038673
H3    H     H_    0.792512 0.357748 0.299116 0.055616
H4    H     H_    0.640617 0.282896 0.296320 0.127943
H5    H     H_    0.617310 0.226368 0.599348 -0.057525
H6    H     H_    0.600957 0.119411 0.657178 0.081055
H7    H     H_    0.420913 0.652028 0.625190 -0.139154
H8    H     H_    0.635625 0.623338 0.614943 0.082446
H9    H     H_    0.569879 0.774710 0.700117 0.148185
H10   H     H_    0.489853 0.673544 0.709216 0.073498
H11   H     H_    0.703854 0.667820 0.695695 0.112804
H12   H     H_    0.175923 0.129594 0.357082 0.024902
H13   H     H_    0.804032 0.132283 0.681551 0.191103
H14   H     H_    0.344978 0.210940 0.723308 0.031743
H15   H     H_    0.086114 0.673343 0.341586 0.054397
H16   H     H_    0.887467 0.743572 0.350981 -0.077968
H17   H     H_    0.155499 0.771280 0.282480 0.145921
H18   H     H_    0.968779 0.728043 0.263823 0.132521
H19   H     H_    0.962585 0.844269 0.293586 0.117788
H20   H     H_    0.615359 0.773039 0.366814 -0.106486
H21   H     H_    0.431355 0.792698 0.403597 0.055143
H22   H     H_    0.478597 0.929346 0.368572 0.092303
H23   H     H_    0.997967 0.175828 0.392703 -0.073469
H24   H     H_    0.293852 0.889668 0.342982 0.159234
H25   H     H_    0.475754 0.866007 0.305948 0.112715
H26   H     H_    0.161381 0.466948 0.286854 0.156261
H27   H     H_    0.287283 0.318821 0.124860 0.123027
H28   H     H_    0.549701 0.480176 0.754868 0.107148
H29   H     H_    0.467431 0.309190 0.880421 0.128111
H30   H     H_    0.410574 0.310467 0.965799 0.071353
H31   H     H_    0.355940 0.313788 0.040065 0.070994
H32   H     H_    0.658158 0.567439 0.248098 0.123050
H33   H     H_    0.739086 0.694798 0.115762 0.123702
H34   H     H_    0.189072 0.723254 0.593632 0.013956
H35   H     H_    0.840107 0.686389 0.956306 0.070037
H36   H     H_    0.358616 0.220215 0.633756 -0.339562
H37   H     H_    0.908312 0.682632 0.872117 0.123173
H38   H     H_    0.035707 0.521707 0.711857 0.129628
H39   H     H_    0.789146 0.689583 0.030159 0.070251
H40   H     H_    0.827488 0.546617 0.401751 0.080840
H41   H     H_    0.364580 0.439115 0.600063 0.053394
H42   H     H_    0.376265 0.308771 0.517127 0.040905
H43   H     H_    0.230906 0.041756 0.567272 0.102227
H44   H     H_    0.750988 0.098748 0.458085 0.083976
H45   H     H_    0.079164 0.849470 0.691974 0.138622
H46   H     H_    0.778799 0.695770 0.467126 0.057862
H47   H     H_    0.857314 0.963244 0.454294 0.089502
H48   H     H_    0.342022 0.888115 0.558775 0.108762
H49   H     H_    0.292571 0.108491 0.685553 -0.110842
H50   H     H_    0.150759 0.289803 0.443364 -0.042670
H51   H     H_    0.793007 0.808714 0.661381 0.335695
H52   H     H_    0.188935 0.883791 0.642997 0.115009
H53   H     H_    0.283146 0.794213 0.677375 0.072372
H54   H     H_    0.834206 0.352280 0.390454 -0.166397
H55   H     H_    0.776321 0.077875 0.617715 0.122763
N1    N     N_R   0.952299 0.512129 0.204032 -0.419700
N2    N     N_R   0.251927 0.495200 0.793611 -0.425042
O1    O     O_2   0.906490 0.548660 0.619040 -0.472651
O2    O     O_2   0.166085 0.827089 0.475182 -0.441275
O3    O     O_3   0.088722 0.803777 0.380160 -0.600649
O4    O     O_3   0.138490 0.548590 0.558860 -0.486776
O5    O     O_3   0.572560 0.389970 0.472910 -0.435720
O6    O     O_2   0.345680 0.723560 0.528460 -0.490631
O7    O     O_3   0.534097 0.756768 0.607878 -0.595878
O8    O     O_2   0.417814 0.536491 0.323876 -0.441140
O9    O     O_3   0.416823 0.712534 0.333833 -0.599885
O10   O     O_2   0.123095 0.379245 0.201676 -0.594642
O11   O     O_2   0.425257 0.365143 0.798172 -0.570792
O12   O     O_3   0.665490 0.264536 0.391519 -0.596497
O13   O     O_2   0.795381 0.647589 0.198454 -0.621156
O14   O     O_2   0.071379 0.624457 0.795704 -0.608118
O15   O     O_3   0.686290 0.382320 0.585720 -0.521991
O16   O     O_2   0.835330 0.425822 0.672491 -0.430751
O17   O     O_3   0.045627 0.687859 0.646140 -0.672701
O18   O     O_3   0.660536 0.294816 0.669434 -0.565415
O19   O     O_2   0.844020 0.276410 0.471510 -0.514414
O20   O     O_3   0.101490 0.335510 0.560360 -0.458891
O21   O     O_2   0.010481 0.175030 0.524961 -0.456654
O22   O     O_2   0.959586 0.879177 0.564546 -0.335991
O23   O     O_3   0.121697 0.191112 0.617055 -0.652300
O24   O     O_2   0.867885 0.728662 0.559506 -0.390130
O25   O     O_3   0.782715 0.852983 0.637464 -0.506974
O26   O     O_2   0.283210 0.451320 0.380930 -0.359416
O27   O     O_3   0.051220 0.451340 0.441130 -0.513062
O28   O     O_3   0.503420 0.617610 0.414270 -0.462999
O29   O     O_3   0.143885 0.306021 0.367207 -0.691218
O30   O     O_3   0.617160 0.609950 0.527080 -0.473526
O31   O     O_3   0.088220 0.664410 0.439630 -0.488684
P1    P     P_3+3 0.071960 0.575810 0.612130 1.041515
P2    P     P_3+3 0.664360 0.290070 0.457280 1.108421
P3    P     P_3+3 0.145081 0.218241 0.557408 1.018072
P4    P     P_3+3 0.117760 0.424110 0.387870 1.042806
P5    P     P_3+3 0.042953 0.781392 0.438938 1.028127
P6    P     P_3+3 0.670207 0.400187 0.650787 1.027460
P7    P     P_3+3 0.530027 0.724623 0.542496 1.050687
P8    P     P_3+3 0.518611 0.610035 0.349539 1.029071
S1    S     S_3+6 0.923397 0.806871 0.593537 -0.104789

loop_
_geom_bond_atom_site_label_1
_geom_bond_atom_site_label_2
_ccdc_geom_bond_type
C57   H48   S    
C60   P7    S    
C53   C54   A    
C23   H7    S    
C52   S1    S    
Ba1   O15   S    
O16   P6    D    
C1    H6    S    
C14   H40   S    
C2    O13   D    
C51   C57   A    
C43   H39   S    
C46   P2    S    
C3    H32   S    
C10   C66   A    
C24   C25   A    
Ba2   O4    S    
C63   H3    S    
C52   H34   S    
C40   H23   S    
C12   H1    S    
C17   C19   A    
C22   C24   A    
C32   C33   S    
C35   C38   A    
O15   P6    S    
C36   C37   A    
C55   C57   A    
C21   H29   S    
C52   C61   S    
C34   H10   S    
C12   O18   S    
C54   C55   A    
O24   S1    D    
Ba1   Ba2   S    
C6    C14   D    
C22   C27   A    
C11   C38   A    
C17   C35   A    
C65   H25   S    
C9    C13   A    
C25   C42   A    
C64   O9    S    
C29   C30   S    
C34   H9    S    
C6    C7    D    
C48   P5    S    
C21   C22   A    
Ba1   O19   S    
O19   P2    D    
C62   F2    S    
C7    C8    S    
O31   P5    S    
C50   C53   A    
C37   C43   A    
O30   P7    S    
C64   C65   S    
C7    H26   S    
C44   P3    S    
C53   C58   A    
C45   O3    S    
C1    H13   S    
C23   H8    S    
C32   H38   S    
C45   H16   S    
C4    F3    S    
C15   C31   D    
Ba2   O31   S    
C19   C24   A    
C49   H47   S    
C15   H41   S    
C46   C58   A    
C55   H43   S    
C16   F4    S    
C28   O29   S    
C4    C16   S    
C63   H4    S    
C39   H33   S    
O23   P3    S    
C49   C50   A    
C4    O23   S    
C58   H44   S    
C17   C20   A    
C13   C39   A    
O27   P4    S    
O12   P2    S    
C3    C5    S    
C61   H45   S    
C1    H55   S    
C44   C59   A    
O1    P1    D    
C48   C49   A    
C40   F1    S    
Ba2   O6    S    
C20   H30   S    
O4    P1    S    
C9    C36   A    
C23   O7    S    
C41   C42   A    
C59   H42   S    
C35   C36   A    
C38   H31   S    
O22   S1    D    
C51   C60   A    
C27   N2    Am   
Ba2   P4    S    
Ba2   O28   S    
C62   H54   S    
C27   O11   D    
C31   C32   D    
Ba1   O20   S    
C40   H12   S    
C10   C11   A    
C28   H50   S    
C56   H17   S    
C33   N2    S    
C61   H52   S    
C1    C12   S    
C16   H49   S    
C64   H20   S    
C26   O14   D    
C5    C14   S    
C65   H22   S    
Ba1   P1    S    
O21   P3    D    
C5    P8    S    
C2    C13   A    
C4    H36   S    
C29   C33   D    
C66   O10   D    
H51   O25   S    
Ba1   O4    S    
C29   H28   S    
C18   C41   A    
O20   P3    S    
C50   C51   A    
C56   H18   S    
C28   F5    S    
Ba2   O26   S    
C47   C60   A    
O5    P2    S    
Ba1   O30   S    
C16   H14   S    
O2    P5    D    
Ba1   O1    S    
O17   P1    S    
C9    C10   A    
O28   P8    S    
C2    N1    Am   
O18   P6    S    
O6    P7    D    
Ba2   O5    S    
C63   H2    S    
C64   H21   S    
C45   H15   S    
C11   H27   S    
Ba1   O27   S    
C31   P1    S    
C18   C37   A    
C8    N1    S    
C3    C8    D    
O3    P5    S    
C62   C63   S    
C45   C56   S    
O25   S1    S    
C46   C59   A    
C47   H46   S    
C62   O12   S    
O26   P4    D    
C34   H11   S    
Ba2   O27   S    
O9    P8    S    
C26   N2    Am   
C41   H35   S    
C12   H5    S    
C66   N1    Am   
C61   H53   S    
C6    P4    S    
C65   H24   S    
C23   C34   S    
O29   P4    S    
C18   C19   A    
Ba1   P2    S    
Ba2   O30   S    
C47   C48   A    
C30   P6    S    
C44   C54   A    
C25   C26   A    
C15   C30   S    
C39   C43   A    
C20   C21   A    
C28   C40   S    
Ba1   O5    S    
C56   H19   S    
O7    P7    S    
C52   O17   S    
O8    P8    D    
C42   H37   S    
