data_mof_unit_59468.cif
_audit_creation_date              2012-12-11T15:48:50-0500
_audit_creation_method            fapswitch 2.2
_symmetry_space_group_name_H-M    P1
_symmetry_Int_Tables_number       1
_space_group_crystal_system       triclinic
_cell_length_a                    11.075112
_cell_length_b                    11.22177
_cell_length_c                    18.756468
_cell_angle_alpha                 89.463399
_cell_angle_beta                  88.745541
_cell_angle_gamma                 60.206702
_cell_volume                      2022.49396874

loop_
_atom_site_label
_atom_site_type_symbol
_atom_type_description
_atom_site_fract_x
_atom_site_fract_y
_atom_site_fract_z
_atom_type_partial_charge
Br1   Br    Br    0.947332 0.912722 0.642852 -0.492722
Br2   Br    Br    0.919053 0.139586 0.313151 -0.563362
Br3   Br    Br    0.621727 0.903291 0.633272 -0.564471
C1    C     C_R   0.286893 0.625866 0.614916 0.548813
C2    C     C_R   0.561456 0.163740 0.713364 -0.116137
C3    C     C_R   0.561726 0.161555 0.786893 0.236798
C4    C     C_R   0.652828 0.616963 0.601693 0.576184
C5    C     C_3   0.934552 0.050077 0.776711 -0.223093
C6    C     C_3   0.923767 0.070571 0.696702 0.053391
C7    C     C_R   0.662785 0.175232 0.673721 0.052846
C8    C     C_R   0.172592 0.683955 0.834501 0.010154
C9    C     C_R   0.154212 0.592702 0.794191 -0.005870
C10   C     C_R   0.195209 0.571888 0.722987 0.008475
C11   C     C_R   0.250155 0.752603 0.728691 -0.136292
C12   C     C_3   0.655354 0.564550 0.803687 -0.256552
C13   C     C_R   0.221068 0.765426 0.801555 -0.174007
C14   C     C_3   0.228192 0.446326 0.810791 -0.218953
C15   C     C_3   0.285312 0.425009 0.735657 -0.254950
C16   C     C_R   0.626887 0.229500 0.602338 0.599779
C17   C     C_R   0.241656 0.650986 0.689169 0.055312
C18   C     C_R   0.712272 0.715794 0.181750 0.008913
C19   C     C_R   0.821823 0.616371 0.221174 0.016663
C20   C     C_R   0.798408 0.593722 0.291077 -0.005388
C21   C     C_R   0.571264 0.791477 0.291316 -0.164877
C22   C     C_R   0.586934 0.805784 0.217676 -0.168778
C23   C     C_3   0.706521 0.668891 0.811642 -0.001965
C24   C     C_3   0.895053 0.465155 0.207340 -0.235787
C25   C     C_3   0.863828 0.443426 0.281610 -0.217474
C26   C     C_R   0.674166 0.676767 0.327353 0.007848
C27   C     C_R   0.627639 0.203751 0.163532 -0.024300
C28   C     C_R   0.222303 0.649756 0.402512 0.555810
C29   C     C_R   0.505747 0.239266 0.202941 -0.037966
C30   C     C_R   0.507674 0.244028 0.276420 0.006108
C31   C     C_R   0.740642 0.208138 0.270888 0.127825
C32   C     C_R   0.729076 0.225192 0.195322 0.256384
C33   C     C_3   0.410855 0.180569 0.204956 -0.261820
C34   C     C_3   0.675702 0.637395 0.676610 0.099232
C35   C     C_3   0.420902 0.176983 0.285204 -0.247147
C36   C     C_R   0.627578 0.217133 0.312773 -0.014436
C37   C     C_R   0.118045 0.691021 0.189593 -0.043538
C38   C     C_R   0.115972 0.799044 0.226119 0.066823
C39   C     C_R   0.133926 0.792170 0.298108 0.045594
C40   C     C_R   0.644537 0.624750 0.393606 0.533552
C41   C     C_R   0.120632 0.582645 0.304052 0.237080
C42   C     C_R   0.121027 0.582885 0.228788 -0.125964
C43   C     C_3   0.210018 0.856506 0.211677 -0.255931
C44   C     C_3   0.237549 0.841460 0.290069 -0.247902
C45   C     C_3   0.831776 0.591726 0.690718 0.161021
C46   C     C_R   0.144480 0.681268 0.337787 0.009517
C47   C     C_R   0.702128 0.099138 0.895609 0.547319
C48   C     C_R   0.726513 0.688653 0.887818 0.544310
C49   C     C_R   0.114683 0.710832 0.905713 0.539139
C50   C     C_R   0.672142 0.108902 0.102947 0.539118
C51   C     C_R   0.731755 0.717407 0.104589 0.568052
C52   C     C_R   0.612388 0.239826 0.391053 0.595152
C53   C     C_R   0.086099 0.713332 0.114281 0.540817
C54   C     C_3   0.601764 0.805853 0.777340 -0.233438
C55   C     C_3   0.583465 0.788474 0.697700 -0.040433
C56   C     C_3   0.633909 0.548481 0.724229 -0.233522
C57   C     C_3   0.846415 0.616791 0.769852 -0.172289
C58   C     C_3   0.021845 0.425742 0.624333 -0.003076
C59   C     C_3   0.119274 0.271724 0.616132 -0.375548
C60   C     C_3   0.363869 0.127322 0.799196 -0.014401
C61   C     C_3   0.304840 0.083016 0.861407 -0.359931
C62   C     C_3   0.781337 0.310758 0.090650 0.008835
C63   C     C_3   0.903232 0.292900 0.043513 -0.327792
C64   C     C_3   0.054290 0.490344 0.401439 0.015292
C65   C     C_3   0.097776 0.352388 0.436775 -0.358657
C66   C     C_R   0.679811 0.151418 0.822630 0.018993
C67   C     C_R   0.784716 0.156099 0.782122 -0.090415
C68   C     C_R   0.773835 0.173212 0.708493 0.005528
Cr1   Cr    Cr6+3 0.392960 0.397920 0.502240 1.003456
Cr2   Cr    Cr6+3 0.398340 0.708480 0.501250 1.042013
Cr3   Cr    Cr6+3 0.708670 0.393570 0.496460 1.039103
Cr4   Cr    Cr6+3 0.937650 0.938540 0.007610 1.008570
Cr5   Cr    Cr6+3 0.625330 0.937370 0.994520 1.000925
Cr6   Cr    Cr6+3 0.937940 0.625230 0.001190 0.976251
H1    H     H_    0.637166 0.881892 0.784320 0.183029
H2    H     H_    0.231322 0.841742 0.831285 0.127433
H3    H     H_    0.154270 0.408675 0.821947 0.141133
H4    H     H_    0.307011 0.421711 0.852558 0.187271
H5    H     H_    0.393857 0.404636 0.733168 0.129475
H6    H     H_    0.261429 0.361206 0.701183 0.130471
H7    H     H_    0.473460 0.860270 0.317690 0.124653
H8    H     H_    0.497254 0.876442 0.188038 0.122910
H9    H     H_    0.006828 0.411866 0.193803 0.135858
H10   H     H_    0.836980 0.441022 0.171681 0.193289
H11   H     H_    0.782926 0.413202 0.285273 0.185939
H12   H     H_    0.697117 0.438760 0.709046 0.173827
H13   H     H_    0.472864 0.821120 0.689580 0.137585
H14   H     H_    0.958791 0.380035 0.311910 0.203095
H15   H     H_    0.456567 0.078856 0.180443 0.164061
H16   H     H_    0.305361 0.254881 0.185824 0.135678
H17   H     H_    0.320310 0.241453 0.312727 0.212812
H18   H     H_    0.481436 0.071702 0.307162 0.139422
H19   H     H_    0.133338 0.495404 0.200307 0.129058
H20   H     H_    0.152077 0.965245 0.193843 0.200119
H21   H     H_    0.303004 0.787960 0.178276 0.124855
H22   H     H_    0.344549 0.757654 0.301277 0.141572
H23   H     H_    0.927593 0.519862 0.793821 0.168158
H24   H     H_    0.205790 0.939900 0.317782 0.191807
H25   H     H_    0.881028 0.694081 0.773951 0.115797
H26   H     H_    0.861352 0.657475 0.658123 0.165780
H27   H     H_    0.732888 0.463281 0.825893 0.141256
H28   H     H_    0.555680 0.600131 0.833954 0.116733
H29   H     H_    0.523902 0.577803 0.715760 0.076139
H30   H     H_    0.081023 0.476433 0.638851 0.145328
H31   H     H_    0.975185 0.470523 0.572425 0.154708
H32   H     H_    0.067678 0.225714 0.585681 0.155858
H33   H     H_    0.216587 0.251355 0.587709 0.114233
H34   H     H_    0.472388 0.171161 0.687075 0.160534
H35   H     H_    0.146816 0.221981 0.669191 0.141808
H36   H     H_    0.419289 0.045083 0.760255 0.134160
H37   H     H_    0.273379 0.203944 0.770201 0.120236
H38   H     H_    0.236778 0.173195 0.895498 0.142782
H39   H     H_    0.241677 0.039716 0.840949 0.068072
H40   H     H_    0.389572 0.005467 0.894533 0.185145
H41   H     H_    0.708685 0.420469 0.103232 0.111174
H42   H     H_    0.717293 0.286351 0.056163 0.128512
H43   H     H_    0.963129 0.185191 0.024148 0.147630
H44   H     H_    0.863966 0.362192 0.996683 0.126089
H45   H     H_    0.951517 0.948311 0.794296 0.184205
H46   H     H_    0.974422 0.316068 0.073394 0.148588
H47   H     H_    0.944096 0.540802 0.390428 0.147115
H48   H     H_    0.057013 0.561199 0.440902 0.145404
H49   H     H_    0.191119 0.322100 0.469207 0.146908
H50   H     H_    0.011383 0.358317 0.470255 0.118555
H51   H     H_    0.124759 0.270890 0.396355 0.164523
H52   H     H_    0.002173 0.084587 0.801528 0.112344
H53   H     H_    0.983909 0.118131 0.675050 0.143759
H54   H     H_    0.279361 0.821446 0.703513 0.132554
H55   H     H_    0.500534 0.840594 0.805397 0.109157
O1    O     O_R   0.507380 0.255700 0.581440 -0.528013
O2    O     O_R   0.837170 0.593410 0.915250 -0.537247
O3    O     O_R   0.065200 0.635530 0.931570 -0.504243
O4    O     O_R   0.280320 0.527350 0.578930 -0.525456
O5    O     O_R   0.068260 0.828890 0.091840 -0.500055
O6    O     O_R   0.798870 0.057410 0.079340 -0.461774
O7    O     O_R   0.584930 0.080350 0.076780 -0.543178
O8    O     O_R   0.626960 0.809650 0.067060 -0.512382
O9    O     O_R   0.816040 0.596610 0.076510 -0.546573
O10   O     O_R   0.045610 0.638500 0.081060 -0.522707
O11   O     O_3   0.833640 0.833710 0.001100 -0.283954
O12   O     O_R   0.524480 0.695810 0.424040 -0.500989
O13   O     O_R   0.260510 0.739590 0.584590 -0.472948
O14   O     O_R   0.532300 0.695080 0.573820 -0.503289
O15   O     O_R   0.744840 0.503500 0.576370 -0.507187
O16   O     O_R   0.699120 0.276560 0.571960 -0.490997
O17   O     O_R   0.498940 0.256500 0.419860 -0.505166
O18   O     O_R   0.272500 0.528080 0.429150 -0.481527
O19   O     O_R   0.252060 0.740380 0.423010 -0.507279
O20   O     O_3   0.918449 0.449075 0.676441 -0.566419
O21   O     O_3   0.443222 0.183727 0.826462 -0.548246
O22   O     O_3   0.833965 0.228705 0.154025 -0.530733
O23   O     O_R   0.736390 0.504290 0.414790 -0.533538
O24   O     O_3   0.137488 0.465258 0.338371 -0.580857
O25   O     O_R   0.691300 0.277290 0.422170 -0.452621
O26   O     O_3   0.499990 0.499990 0.499980 -0.305957
O27   O     O_R   0.089400 0.825690 0.930570 -0.534035
O28   O     O_R   0.818460 0.054440 0.929850 -0.526221
O29   O     O_R   0.606060 0.077150 0.915510 -0.459328
O30   O     O_R   0.646550 0.806680 0.917570 -0.513490

loop_
_geom_bond_atom_site_label_1
_geom_bond_atom_site_label_2
_ccdc_geom_bond_type
Cr4   O28   S    
C41   C46   A    
C3    C66   A    
Cr5   O11   S    
C44   H24   S    
C38   C39   A    
C31   C36   A    
C54   H55   S    
Cr5   O30   S    
C32   O22   S    
C64   H47   S    
Cr5   O29   S    
Cr1   O26   S    
C6    H53   S    
C30   C36   A    
C10   C15   S    
C61   H39   S    
C20   C26   A    
Cr3   O16   S    
C47   C66   S    
C64   H48   S    
C2    C3    A    
C48   O2    A    
C40   O23   A    
Cr1   O4    S    
C44   H22   S    
C48   O30   A    
C14   C15   S    
C31   C32   A    
C56   H12   S    
C58   H31   S    
C21   C26   A    
C8    C49   S    
Cr6   O10   S    
C60   H37   S    
C33   H16   S    
C51   O8    A    
C5    C6    S    
C37   C53   S    
C9    C14   S    
C25   H11   S    
C38   C43   S    
C52   O17   A    
C67   C68   A    
C12   H27   S    
C65   H51   S    
C34   C55   S    
Cr3   O25   S    
C1    O4    A    
C4    O14   A    
C53   O10   A    
C7    C68   A    
Br2   C31   S    
C49   O27   A    
C43   H21   S    
C61   H38   S    
C63   H43   S    
C18   C19   A    
C26   C40   S    
C47   O29   A    
C40   O12   A    
C66   C67   A    
C28   C46   S    
C57   H25   S    
C58   O20   S    
C45   C57   S    
C4    O15   A    
C11   H54   S    
Cr5   O8    S    
C4    C34   S    
C37   C42   A    
C27   C50   S    
C36   C52   S    
C56   H29   S    
Cr3   O26   S    
C50   O6    A    
C41   O24   S    
C11   C17   A    
Cr3   O15   S    
Br1   C6    S    
C21   C22   A    
C60   O21   S    
Cr4   O5    S    
C28   O18   A    
C12   C23   S    
C2    H34   S    
C47   O28   A    
C45   H26   S    
Cr2   O26   S    
C14   H3    S    
C61   H40   S    
C64   C65   S    
Cr2   O13   S    
C64   O24   S    
C1    C17   S    
C35   H18   S    
C24   H9    S    
Cr6   O11   S    
C62   O22   S    
C28   O19   A    
C8    C13   A    
C59   H33   S    
C7    C16   S    
C62   H41   S    
C35   H17   S    
C22   H8    S    
C15   H6    S    
C62   H42   S    
C63   H44   S    
C20   C25   S    
C34   C45   S    
C24   H10   S    
C55   H13   S    
C65   H50   S    
C34   C56   S    
Cr4   O11   S    
C27   C32   A    
C37   C38   A    
C43   H20   S    
C62   C63   S    
Cr1   O18   S    
C19   C24   S    
C45   O20   S    
C11   C13   A    
Cr6   O2    S    
C65   H49   S    
C24   C25   S    
C41   C42   A    
Cr5   O7    S    
Cr4   O27   S    
C18   C22   A    
C43   C44   S    
C10   C17   A    
C50   O7    A    
C12   C56   S    
C54   H1    S    
C6    C68   S    
C57   H23   S    
Cr4   O6    S    
C8    C9    A    
C29   C33   S    
C16   O1    A    
C5    C67   S    
C16   O16   A    
Cr2   O14   S    
C13   H2    S    
C29   C30   A    
C12   H28   S    
C33   C35   S    
C21   H7    S    
C2    C7    A    
C23   C48   S    
C63   H46   S    
C27   C29   A    
C53   O5    A    
C5    H45   S    
Cr1   O1    S    
C18   C51   S    
C59   H32   S    
C1    O13   A    
C15   H5    S    
Cr3   O23   S    
C25   H14   S    
C14   H4    S    
C39   C44   S    
C58   C59   S    
C58   H30   S    
C23   C54   S    
Cr6   O9    S    
C3    O21   S    
C33   H15   S    
C39   C46   A    
C60   C61   S    
C60   H36   S    
Br3   C55   S    
C52   O25   A    
C51   O9    A    
C59   H35   S    
C9    C10   A    
Cr1   O17   S    
C5    H52   S    
C49   O3    A    
C19   C20   A    
C30   C35   S    
Cr6   O3    S    
C54   C55   S    
C42   H19   S    
C23   C57   S    
Cr2   O19   S    
Cr2   O12   S    
