data_mof_unit_52650.cif
_audit_creation_date              2012-12-11T14:27:21-0500
_audit_creation_method            fapswitch 2.2
_symmetry_space_group_name_H-M    P1
_symmetry_Int_Tables_number       1
_space_group_crystal_system       triclinic
_cell_length_a                    8.219407
_cell_length_b                    14.975273
_cell_length_c                    15.078756
_cell_angle_alpha                 97.325184
_cell_angle_beta                  98.680685
_cell_angle_gamma                 98.082588
_cell_volume                      1795.4310536

loop_
_atom_site_label
_atom_site_type_symbol
_atom_type_description
_atom_site_fract_x
_atom_site_fract_y
_atom_site_fract_z
_atom_type_partial_charge
Ba1   Ba    Ba6+2 0.154720 0.543770 0.458160 1.657259
Ba2   Ba    Ba6+2 0.655440 0.456220 0.541760 1.684302
C1    C     C_3   0.341916 0.758877 0.122763 -0.279842
C2    C     C_R   0.892730 0.791956 0.521896 0.060992
C3    C     C_R   0.074092 0.231944 0.527085 -0.311791
C4    C     C_3   0.906749 0.786177 0.266034 0.303616
C5    C     C_R   0.178253 0.170942 0.554786 -0.029801
C6    C     C_R   0.117023 0.077961 0.540381 -0.142394
C7    C     C_R   0.950389 0.043842 0.497406 0.010899
C8    C     C_R   0.852752 0.106742 0.459328 -0.010028
C9    C     C_R   0.878713 0.949137 0.490340 -0.001024
C10   C     C_R   0.711301 0.918958 0.444409 -0.023060
C11   C     C_R   0.622683 0.981406 0.404243 -0.099014
C12   C     C_3   0.380539 0.735167 0.217943 0.332778
C13   C     C_R   0.692777 0.072468 0.410044 -0.044693
C14   C     C_R   0.965477 0.884032 0.530358 -0.135668
C15   C     C_R   0.730369 0.764022 0.474883 -0.286477
C16   C     C_3   0.908096 0.879143 0.234236 -0.241419
C17   C     C_R   0.916639 0.202518 0.473509 -0.007545
C18   C     C_R   0.227093 0.479881 0.768903 -0.276789
C19   C     C_R   0.133609 0.436946 0.825494 0.011608
C20   C     C_R   0.204838 0.438292 0.916805 -0.128196
C21   C     C_R   0.366128 0.489650 0.953521 0.018615
C22   C     C_R   0.449093 0.538414 0.894110 -0.090230
C23   C     C_3   0.590776 0.737153 0.673640 0.296813
C24   C     C_R   0.386417 0.527071 0.801661 0.016402
C25   C     C_R   0.617338 0.532481 0.085385 -0.120090
C26   C     C_R   0.676563 0.557453 0.179084 -0.038076
C27   C     C_R   0.414548 0.484720 0.211085 0.050246
C28   C     C_3   0.713204 0.337591 0.262812 0.294248
C29   C     C_R   0.346431 0.471685 0.118339 -0.129391
C30   C     C_R   0.444175 0.497712 0.052994 -0.003667
C31   C     C_R   0.574238 0.533968 0.241276 -0.282579
C32   C     C_3   0.665230 0.307267 0.160822 -0.364397
C33   C     C_3   0.079512 0.662650 0.739130 0.267620
C34   C     C_3   0.636181 0.840340 0.698449 -0.375974
C35   C     C_3   0.088231 0.685258 0.841655 -0.239227
C36   C     C_3   0.222528 0.265437 0.333305 0.299752
C37   C     C_3   0.190839 0.162632 0.304823 -0.383730
C38   C     C_2   0.230586 0.760547 0.882288 0.540486
C39   C     C_2   0.129064 0.327413 0.561841 0.631000
C40   C     C_2   0.745048 0.527582 0.026117 0.534009
C41   C     C_2   0.083258 0.928075 0.242007 0.565761
C42   C     C_3   0.889005 0.209939 0.729903 0.347115
C43   C     C_3   0.853666 0.113796 0.752969 -0.343366
C44   C     C_3   0.425281 0.260347 0.779790 0.350231
C45   C     C_3   0.457858 0.234667 0.874462 -0.323524
C46   C     C_R   0.636702 0.826517 0.439089 -0.006273
H1    H     H_    0.300028 0.669781 0.220552 0.091718
H2    H     H_    0.205292 0.758657 0.103584 0.173434
H3    H     H_    0.084854 0.142849 0.247273 0.146816
H4    H     H_    0.159869 0.127853 0.361913 0.044872
H5    H     H_    0.304332 0.139734 0.284202 0.139181
H6    H     H_    0.513104 0.726074 0.230921 -0.063985
H7    H     H_    0.380955 0.707389 0.073657 0.028045
H8    H     H_    0.699692 0.709615 0.652642 0.015255
H9    H     H_    0.746461 0.858253 0.753740 0.144298
H10   H     H_    0.529108 0.869212 0.721137 0.133596
H11   H     H_    0.410773 0.827914 0.119570 0.150765
H12   H     H_    0.564775 0.246785 0.146176 0.133297
H13   H     H_    0.841131 0.921926 0.277281 0.002874
H14   H     H_    0.806001 0.212766 0.665302 0.084008
H15   H     H_    0.718312 0.094520 0.754583 0.149094
H16   H     H_    0.889683 0.064236 0.700794 0.070592
H17   H     H_    0.927125 0.110419 0.820296 0.131524
H18   H     H_    0.293782 0.271059 0.765197 -0.075990
H19   H     H_    0.508830 0.325268 0.779379 0.097637
H20   H     H_    0.417910 0.285519 0.923760 0.079181
H21   H     H_    0.593432 0.233683 0.895473 0.161330
H22   H     H_    0.999840 0.792341 0.329009 0.068367
H23   H     H_    0.618956 0.362086 0.127266 0.086185
H24   H     H_    0.386218 0.165947 0.875245 0.123773
H25   H     H_    0.673375 0.693562 0.470189 0.069940
H26   H     H_    0.496896 0.960868 0.367448 0.107086
H27   H     H_    0.088847 0.902797 0.570019 0.089619
H28   H     H_    0.617114 0.115909 0.376791 0.103670
H29   H     H_    0.131715 0.400422 0.957394 0.095347
H30   H     H_    0.218355 0.438876 0.098793 0.098540
H31   H     H_    0.781565 0.764818 0.282161 -0.055506
H32   H     H_    0.559825 0.588395 0.918015 0.031318
H33   H     H_    0.623954 0.547400 0.313226 0.069470
H34   H     H_    0.775738 0.289690 0.132223 0.141011
H35   H     H_    0.171457 0.483066 0.700143 0.069389
H36   H     H_    0.840754 0.870222 0.162791 0.133658
H37   H     H_    0.603280 0.356600 0.289978 0.009465
H38   H     H_    0.815667 0.397040 0.276268 0.058502
H39   H     H_    0.200826 0.647455 0.724061 -0.029471
H40   H     H_    0.358246 0.749202 0.882449 -0.004765
H41   H     H_    0.483810 0.721413 0.616395 0.063811
H42   H     H_    0.666313 0.871066 0.638905 0.057159
H43   H     H_    0.021029 0.223361 0.720586 -0.074086
H44   H     H_    0.136304 0.347637 0.632831 -0.123366
H45   H     H_    0.981349 0.602020 0.714114 0.065564
H46   H     H_    0.202549 0.034369 0.563506 0.084282
H47   H     H_    0.822424 0.589848 0.017161 -0.011917
H48   H     H_    0.161704 0.948248 0.308675 -0.008036
H49   H     H_    0.105940 0.624285 0.874446 -0.009293
H50   H     H_    0.967877 0.705134 0.855461 0.128405
H51   H     H_    0.107355 0.286979 0.351575 0.042830
H52   H     H_    0.325632 0.282622 0.392415 0.090495
O1    O     O_2   0.174040 0.723040 0.553850 -0.460745
O2    O     O_2   0.792414 0.438515 0.816983 -0.431883
O3    O     O_3   0.858812 0.272952 0.800531 -0.588933
O4    O     O_3   0.901550 0.609570 0.550800 -0.493957
O5    O     O_3   0.408230 0.452130 0.390190 -0.462489
O6    O     O_2   0.675480 0.547140 0.721810 -0.463283
O7    O     O_3   0.548420 0.700711 0.749552 -0.650162
O8    O     O_2   0.519939 0.174484 0.550883 -0.492752
O9    O     O_3   0.457102 0.190299 0.716431 -0.603262
O10   O     O_3   0.370320 0.665070 0.388210 -0.484773
O11   O     O_2   0.297821 0.825926 0.449007 -0.496282
O12   O     O_3   0.264709 0.306815 0.260320 -0.639820
O13   O     O_3   0.042590 0.737910 0.698652 -0.629962
O14   O     O_3   0.348930 0.805487 0.281015 -0.601446
O15   O     O_2   0.134800 0.452800 0.278160 -0.454055
O16   O     O_3   0.937630 0.618610 0.340820 -0.483126
O17   O     O_2   0.019938 0.559594 0.182900 -0.488943
O18   O     O_2   0.203681 0.834864 0.915142 -0.545449
O19   O     O_2   0.195620 0.378216 0.516421 -0.535569
O20   O     O_2   0.770311 0.453190 0.991313 -0.567780
O21   O     O_2   0.138160 0.946508 0.174230 -0.551206
O22   O     O_3   0.942452 0.722896 0.197249 -0.603976
O23   O     O_2   0.636250 0.276900 0.446120 -0.477857
O24   O     O_3   0.908740 0.390420 0.449120 -0.463476
O25   O     O_3   0.439970 0.334920 0.611710 -0.458667
O26   O     O_3   0.764917 0.264351 0.301346 -0.639953
O27   O     O_3   0.402050 0.547860 0.609740 -0.443583
O28   O     O_3   0.872650 0.381380 0.659100 -0.510082
P1    P     P_3+3 0.004160 0.709210 0.580280 0.993468
P2    P     P_3+3 0.305010 0.425580 0.290930 1.012054
P3    P     P_3+3 0.893886 0.612768 0.223832 0.946738
P4    P     P_3+3 0.806120 0.290780 0.419650 0.981320
P5    P     P_3+3 0.916297 0.383421 0.776737 0.982996
P6    P     P_3+3 0.414318 0.782532 0.390711 0.936286
P7    P     P_3+3 0.502992 0.581786 0.722888 0.952218
P8    P     P_3+3 0.399017 0.215925 0.607184 0.953913

loop_
_geom_bond_atom_site_label_1
_geom_bond_atom_site_label_2
_ccdc_geom_bond_type
C37   H3    S    
C28   O26   S    
O23   P4    D    
C14   H27   S    
C45   H20   S    
C38   O18   D    
C23   H8    S    
C10   C46   A    
C35   H49   S    
C5    C6    A    
Ba2   O23   S    
O13   P1    S    
C46   P6    S    
C33   C35   S    
O27   P7    S    
O8    P8    D    
C35   C38   S    
Ba1   P1    S    
C8    C13   A    
C36   C37   S    
C12   H1    S    
C27   C31   A    
O24   P4    S    
Ba1   Ba2   S    
C45   H21   S    
O7    P7    S    
C24   P7    S    
C1    H7    S    
C22   H32   S    
C29   C30   A    
C6    C7    A    
C16   H36   S    
C21   C22   A    
C15   C46   A    
Ba1   O16   S    
O26   P4    S    
C28   H38   S    
C7    C8    A    
C41   O21   D    
Ba2   O27   S    
C13   H28   S    
C19   C20   A    
O9    P8    S    
C32   H12   S    
C33   H39   S    
C19   P5    S    
C35   H50   S    
C1    H2    S    
C33   H45   S    
C4    C16   S    
C28   C32   S    
C40   H47   S    
C6    H46   S    
C36   H52   S    
Ba1   P2    S    
C15   H25   S    
C42   H14   S    
C12   O14   S    
Ba2   O6    S    
C39   O19   D    
C37   H4    S    
C2    C14   A    
Ba1   O10   S    
C9    C14   A    
Ba2   P4    S    
C27   P2    S    
Ba2   O4    S    
C8    C17   A    
C41   H48   S    
O14   P6    S    
O11   P6    D    
C10   C11   A    
C28   H37   S    
C7    C9    A    
Ba1   O4    S    
O5    P2    S    
C1    C12   S    
C2    C15   A    
O25   P8    S    
O6    P7    D    
C12   H6    S    
C26   C31   A    
C34   H9    S    
O4    P1    S    
C11   C13   A    
C43   H17   S    
O10   P6    S    
C4    O22   S    
C36   O12   S    
Ba1   O1    S    
O22   P3    S    
C42   C43   S    
C23   O7    S    
C29   H30   S    
C3    C5    A    
C34   H42   S    
C17   P4    S    
C4    H22   S    
C3    C39   S    
C44   C45   S    
Ba2   O5    S    
C25   C30   A    
C23   H41   S    
Ba1   O27   S    
C20   H29   S    
C22   C24   A    
C36   H51   S    
O1    P1    D    
C18   H35   S    
C9    C10   A    
C16   H13   S    
C44   H18   S    
C2    P1    S    
C3    C17   A    
Ba2   O24   S    
Ba1   O15   S    
C43   H16   S    
C34   H10   S    
Ba2   O28   S    
C26   P3    S    
C21   C30   S    
C38   H40   S    
C42   O3    S    
O3    P5    S    
O2    P5    D    
C44   H19   S    
C27   C29   A    
C16   C41   S    
C25   C40   S    
C40   O20   D    
C4    H31   S    
C37   H5    S    
O16   P3    S    
C18   C24   A    
C43   H15   S    
C33   O13   S    
O17   P3    D    
C42   H43   S    
C45   H24   S    
Ba1   O24   S    
C23   C34   S    
Ba2   O25   S    
C5    P8    S    
C39   H44   S    
C18   C19   A    
C44   O9    S    
C25   C26   A    
C20   C21   A    
C32   H34   S    
O12   P2    S    
O28   P5    S    
C31   H33   S    
C32   H23   S    
Ba1   O5    S    
C11   H26   S    
O15   P2    D    
C1    H11   S    
