data_mof_unit_21126.cif
_audit_creation_date              2012-12-10T19:23:28-0500
_audit_creation_method            fapswitch 2.2
_symmetry_space_group_name_H-M    P1
_symmetry_Int_Tables_number       1
_space_group_crystal_system       triclinic
_cell_length_a                    13.044855
_cell_length_b                    17.75503
_cell_length_c                    16.459228
_cell_angle_alpha                 91.355404
_cell_angle_beta                  94.30771
_cell_angle_gamma                 90.459734
_cell_volume                      3800.13483007

loop_
_atom_site_label
_atom_site_type_symbol
_atom_type_description
_atom_site_fract_x
_atom_site_fract_y
_atom_site_fract_z
_atom_type_partial_charge
C1    C     C_R   0.501499 0.355113 0.499023 0.887778
C2    C     C_R   0.499158 0.644666 0.501125 0.909882
C3    C     C_R   0.498950 0.727569 0.504687 -0.259084
C4    C     C_R   0.498404 0.271846 0.496247 -0.260356
C5    C     C_R   0.548333 0.766754 0.445922 -0.379321
C6    C     C_R   0.449605 0.234297 0.556765 -0.352488
C7    C     C_R   0.547174 0.845722 0.444987 0.480770
C8    C     C_R   0.442401 0.155774 0.556069 0.463408
C9    C     C_R   0.499134 0.885235 0.506322 -0.147716
C10   C     C_R   0.487380 0.113662 0.495274 -0.163479
C11   C     C_1   0.493787 0.965763 0.502814 0.094905
C12   C     C_1   0.490109 0.033156 0.499725 0.084326
C13   C     C_R   0.590839 0.525771 0.833881 0.305987
C14   C     C_R   0.433815 0.452820 0.164291 0.315354
C15   C     C_R   0.584906 0.526424 0.747456 -0.177658
C16   C     C_R   0.436360 0.452621 0.251343 -0.214302
C17   C     C_R   0.418091 0.472185 0.739832 0.540868
C18   C     C_R   0.563137 0.549781 0.263213 0.562277
C19   C     C_R   0.416545 0.479092 0.826165 0.213944
C20   C     C_R   0.558438 0.555147 0.176479 0.209588
C21   C     C_R   0.504722 0.503413 0.873940 -0.126088
C22   C     C_R   0.498940 0.503154 0.127198 -0.111081
C23   C     C_R   0.300982 0.502821 0.486421 0.891866
C24   C     C_R   0.699134 0.498057 0.513653 0.882109
C25   C     C_1   0.505483 0.503838 0.963599 0.109936
C26   C     C_1   0.502885 0.503318 0.037804 0.107709
C27   C     C_R   0.810035 0.505825 0.518941 -0.205721
C28   C     C_R   0.189873 0.497922 0.480716 -0.192783
C29   C     C_R   0.038201 0.434457 0.418640 0.542810
C30   C     C_R   0.959373 0.577719 0.573528 0.517136
C31   C     C_R   0.144466 0.442634 0.428816 -0.389196
C32   C     C_R   0.853303 0.565286 0.566129 -0.394678
C33   C     C_R   0.130562 0.545288 0.527785 0.461849
C34   C     C_R   0.870687 0.459054 0.472626 0.449367
C35   C     C_R   0.022595 0.533632 0.524618 -0.160925
C36   C     C_R   0.976861 0.475021 0.471846 -0.156128
C37   C     C_R   0.451467 0.846832 0.567874 0.355241
C38   C     C_R   0.534370 0.150070 0.432446 0.392466
C39   C     C_R   0.451225 0.767073 0.567005 0.398148
C40   C     C_R   0.541338 0.229395 0.433549 0.370041
Cu1   Cu    Cu3+1 0.500000 0.499980 0.580420 0.974051
Cu2   Cu    Cu3+1 0.500000 0.500020 0.419580 0.967036
H1    H     H_    0.803559 0.602337 0.598147 0.164871
H2    H     H_    0.192842 0.405191 0.395877 0.157970
H3    H     H_    0.588530 0.735433 0.401145 0.215343
H4    H     H_    0.416949 0.265876 0.605173 0.186098
H5    H     H_    0.649432 0.548510 0.717847 0.168603
H6    H     H_    0.389533 0.413504 0.281996 0.158855
N1    N     N_R   0.499970 0.499970 0.701220 -0.242205
N2    N     N_R   0.500030 0.500030 0.298780 -0.240920
O1    O     O_R   0.499990 0.391240 0.567930 -0.562279
O2    O     O_R   0.500010 0.608760 0.432070 -0.537817
O3    O     O_R   0.500000 0.391270 0.432120 -0.593363
O4    O     O_R   0.500000 0.608730 0.567880 -0.577718
O5    O     O_R   0.348990 0.499980 0.556880 -0.532952
O6    O     O_R   0.651010 0.500020 0.443120 -0.566741
O7    O     O_R   0.349000 0.500000 0.421060 -0.600138
O8    O     O_R   0.651000 0.500000 0.578940 -0.606060
O9    O     O_3   0.830722 0.390566 0.441631 -0.541633
C41   C     C_3   0.777802 0.399095 0.364349 -0.132746
H7    H     H_    0.785026 0.455908 0.338704 0.094512
H8    H     H_    0.695361 0.386241 0.368130 0.210303
H9    H     H_    0.806995 0.357289 0.320995 0.184245
O10   O     O_3   0.176633 0.608246 0.567283 -0.534034
C42   C     C_3   0.208501 0.592468 0.649132 -0.123394
H10   H     H_    0.292868 0.586290 0.656312 0.197222
H11   H     H_    0.169918 0.542425 0.673555 0.121058
H12   H     H_    0.192363 0.642251 0.687792 0.160026
O11   O     O_3   0.334155 0.441991 0.693570 -0.575151
C43   C     C_3   0.318357 0.365956 0.713014 -0.257753
H13   H     H_    0.267004 0.361906 0.763506 0.202960
H14   H     H_    0.391370 0.335417 0.728363 0.144228
H15   H     H_    0.278258 0.336843 0.659184 0.160122
O12   O     O_3   0.623551 0.598871 0.313777 -0.566019
C44   C     C_3   0.726732 0.601731 0.292950 -0.289901
H16   H     H_    0.741237 0.655798 0.263181 0.186683
H17   H     H_    0.749069 0.554110 0.252913 0.142891
H18   H     H_    0.777955 0.600676 0.349861 0.171945
O13   O     O_3   0.329072 0.460619 0.864065 -0.591588
C45   C     C_3   0.269255 0.526055 0.872853 0.066876
H19   H     H_    0.211510 0.528748 0.819869 0.139811
H20   H     H_    0.315325 0.579631 0.876574 0.108468
C46   C     C_3   0.213669 0.520870 0.950966 -0.307921
H21   H     H_    0.166992 0.468195 0.948761 0.224464
H22   H     H_    0.271197 0.518625 0.004183 0.231618
C47   C     C_3   0.144155 0.588526 0.962039 -0.967890
H23   H     H_    0.190392 0.641478 0.966646 0.259728
H24   H     H_    0.104394 0.582798 0.018929 0.267766
H25   H     H_    0.085343 0.591725 0.909829 0.257861
O14   O     O_3   0.615241 0.609037 0.139438 -0.602816
C48   C     C_3   0.566830 0.680007 0.144104 0.084181
H26   H     H_    0.628127 0.723938 0.145709 0.157694
H27   H     H_    0.526004 0.689000 0.200730 0.134923
C49   C     C_3   0.492887 0.691471 0.068633 -0.353228
H28   H     H_    0.533693 0.680457 0.012694 0.242767
H29   H     H_    0.427181 0.651294 0.068830 0.206803
C50   C     C_3   0.451135 0.771469 0.066883 -0.940720
H30   H     H_    0.409110 0.783472 0.121932 0.255468
H31   H     H_    0.397312 0.777674 0.011947 0.257904
H32   H     H_    0.514986 0.812941 0.064471 0.256593
O15   O     O_3   0.994125 0.383893 0.360106 -0.576964
C51   C     C_3   0.022645 0.400439 0.280635 0.034434
H33   H     H_    0.002895 0.350279 0.240796 0.166925
H34   H     H_    0.106486 0.409425 0.277932 0.137738
C52   C     C_3   0.964016 0.467785 0.243936 -0.376802
H35   H     H_    0.882498 0.451422 0.228689 0.199175
H36   H     H_    0.967182 0.516258 0.288026 0.214842
C53   C     C_3   0.009268 0.492308 0.165778 -0.921996
H37   H     H_    0.089221 0.513561 0.179238 0.255019
H38   H     H_    0.962127 0.538058 0.137789 0.262697
H39   H     H_    0.009662 0.444032 0.121683 0.250347
O16   O     O_3   0.000156 0.637082 0.622661 -0.562076
C54   C     C_3   0.968113 0.634475 0.703314 0.038660
H40   H     H_    0.037582 0.632064 0.746382 0.135618
H41   H     H_    0.921269 0.583787 0.716003 0.118531
C55   C     C_3   0.910026 0.706412 0.722744 -0.319935
H42   H     H_    0.961372 0.755988 0.717138 0.236018
H43   H     H_    0.842054 0.712199 0.678576 0.212052
C56   C     C_3   0.874111 0.705801 0.808819 -0.935466
H44   H     H_    0.818792 0.658717 0.814405 0.274485
H45   H     H_    0.835227 0.759652 0.821938 0.260645
H46   H     H_    0.940634 0.699463 0.854307 0.256455
O17   O     O_3   0.393537 0.885830 0.621993 -0.557814
C57   C     C_3   0.458801 0.926714 0.680248 -0.316543
H47   H     H_    0.471448 0.984838 0.660053 0.225884
H48   H     H_    0.534279 0.899381 0.694947 0.130984
H49   H     H_    0.419852 0.931486 0.737757 0.181914
O18   O     O_3   0.583240 0.109311 0.373961 -0.533540
C58   C     C_3   0.509475 0.072908 0.318603 -0.308524
H50   H     H_    0.435144 0.103359 0.310164 0.114088
H51   H     H_    0.494532 0.014798 0.338023 0.205457
H52   H     H_    0.541445 0.068400 0.258132 0.181212
O19   O     O_3   0.393239 0.725878 0.618394 -0.571956
C59   C     C_3   0.423393 0.737704 0.702479 0.118771
H53   H     H_    0.381348 0.694992 0.735742 0.125928
H54   H     H_    0.396313 0.792413 0.725506 0.181527
C60   C     C_3   0.539058 0.727254 0.725390 -0.426816
H55   H     H_    0.563961 0.672221 0.701432 0.246753
H56   H     H_    0.584947 0.771848 0.698435 0.196897
C61   C     C_3   0.561901 0.730367 0.817758 -0.883179
H57   H     H_    0.540774 0.786231 0.842958 0.248069
H58   H     H_    0.645099 0.721379 0.832968 0.278089
H59   H     H_    0.518065 0.685660 0.846622 0.254527
O20   O     O_3   0.601749 0.264413 0.379703 -0.581993
C62   C     C_3   0.550660 0.265067 0.300757 0.085372
H60   H     H_    0.525834 0.323310 0.288731 0.150273
H61   H     H_    0.480979 0.228207 0.292771 0.112130
C63   C     C_3   0.625037 0.242247 0.237204 -0.311702
H62   H     H_    0.690398 0.282754 0.239806 0.197688
H63   H     H_    0.656119 0.185453 0.250424 0.262059
C64   C     C_3   0.572021 0.241294 0.151316 -0.938733
H64   H     H_    0.507356 0.199944 0.146327 0.252675
H65   H     H_    0.627979 0.224852 0.106644 0.261050
H66   H     H_    0.542280 0.298109 0.136202 0.284629
O21   O     O_3   0.597440 0.886270 0.388190 -0.549746
C65   C     C_3   0.574115 0.857276 0.308172 -0.326462
H67   H     H_    0.491455 0.841236 0.296409 0.149857
H68   H     H_    0.624319 0.808882 0.295294 0.167205
H69   H     H_    0.590457 0.901774 0.264625 0.186006
O22   O     O_3   0.398675 0.120045 0.618873 -0.578955
C66   C     C_3   0.290992 0.120291 0.603073 -0.294177
H70   H     H_    0.267094 0.091293 0.543837 0.167065
H71   H     H_    0.260496 0.178640 0.604303 0.149673
H72   H     H_    0.256016 0.088884 0.651658 0.199328
O23   O     O_3   0.678596 0.550446 0.879542 -0.597705
C67   C     C_3   0.759685 0.500300 0.866581 0.059067
H73   H     H_    0.792415 0.512151 0.807632 0.131645
H74   H     H_    0.733359 0.440221 0.866211 0.144682
C68   C     C_3   0.843980 0.511375 0.935405 -0.306615
H75   H     H_    0.874028 0.570151 0.935825 0.224090
H76   H     H_    0.811366 0.501565 0.994805 0.235646
C69   C     C_3   0.932111 0.456862 0.925264 -0.956699
H77   H     H_    0.903713 0.397670 0.924039 0.260672
H78   H     H_    0.990245 0.464454 0.977442 0.263106
H79   H     H_    0.969020 0.467936 0.867988 0.258877
O24   O     O_3   0.375734 0.402585 0.112619 -0.600759
C70   C     C_3   0.282617 0.377911 0.142559 0.069061
H80   H     H_    0.222052 0.380194 0.091495 0.162432
H81   H     H_    0.254447 0.414603 0.191716 0.114739
C71   C     C_3   0.293551 0.295799 0.167729 -0.352783
H82   H     H_    0.312247 0.260753 0.114055 0.235164
H83   H     H_    0.357535 0.291369 0.215244 0.199688
C72   C     C_3   0.196092 0.264925 0.200813 -0.941911
H84   H     H_    0.184679 0.291918 0.260858 0.252495
H85   H     H_    0.203915 0.203359 0.209532 0.260767
H86   H     H_    0.128231 0.274759 0.157600 0.255245

loop_
_geom_bond_atom_site_label_1
_geom_bond_atom_site_label_2
_ccdc_geom_bond_type
C38   C40   A    
C17   O11   S    
O15   C51   S    
Cu1   Cu2   S    
C52   H35   S    
C35   C36   A    
C24   C27   S    
C15   H5    S    
C44   H16   S    
O18   C58   S    
C16   H6    S    
C59   C60   S    
C50   H30   S    
O17   C57   S    
C53   H37   S    
C52   H36   S    
C29   C36   A    
O23   C67   S    
C30   C35   A    
C41   H9    S    
C29   C31   A    
C65   H67   S    
C19   C21   A    
C61   H58   S    
Cu1   O8    S    
C58   H50   S    
C72   H85   S    
Cu2   O3    S    
C62   H60   S    
C69   H77   S    
C47   H24   S    
C55   H42   S    
C51   C52   S    
C41   H8    S    
C68   H75   S    
C64   H66   S    
C1    O3    A    
Cu1   O5    S    
C14   O24   S    
Cu2   O6    S    
C37   O17   S    
C4    C40   A    
C69   H78   S    
C42   H11   S    
C64   H64   S    
C63   C64   S    
C43   H13   S    
C18   C20   A    
C71   C72   S    
C58   H52   S    
C42   H12   S    
C15   N1    A    
C3    C39   A    
O9    C41   S    
C18   O12   S    
C67   H74   S    
C68   H76   S    
C51   H33   S    
C45   C46   S    
C10   C12   S    
Cu2   O7    S    
Cu1   N1    S    
O16   C54   S    
C66   H71   S    
C71   H83   S    
C66   H70   S    
C56   H45   S    
C27   C34   A    
C52   C53   S    
C31   H2    S    
C62   H61   S    
C29   O15   S    
C55   C56   S    
C61   H57   S    
C45   H20   S    
C50   H31   S    
C72   H86   S    
C17   N1    A    
C48   H26   S    
C5    C7    A    
C47   H23   S    
O20   C62   S    
C6    C8    A    
C49   C50   S    
C70   H81   S    
C25   C26   T    
C5    H3    S    
C30   O16   S    
C41   H7    S    
C49   H29   S    
C72   H84   S    
C28   C31   A    
C48   H27   S    
O19   C59   S    
C9    C11   S    
C13   O23   S    
C46   H21   S    
C11   C12   T    
C70   C71   S    
C43   H15   S    
C9    C37   A    
C13   C21   A    
C49   H28   S    
C23   C28   S    
C63   H62   S    
C61   H59   S    
C51   H34   S    
C38   O18   S    
C44   H17   S    
C2    O2    A    
Cu2   N2    S    
C57   H49   S    
C24   O8    A    
C4    C6    A    
O24   C70   S    
C46   H22   S    
C20   C22   A    
C28   C33   A    
C70   H80   S    
C40   O20   S    
C2    O4    A    
C34   O9    S    
C68   C69   S    
C14   C16   A    
C17   C19   A    
C8    O22   S    
C66   H72   S    
C62   C63   S    
C18   N2    A    
C57   H48   S    
C54   H40   S    
C39   O19   S    
C56   H46   S    
C23   O7    A    
C21   C25   S    
C50   H32   S    
C6    H4    S    
C27   C32   A    
C60   H56   S    
C65   H69   S    
C63   H63   S    
C45   H19   S    
C3    C5    A    
C47   H25   S    
C59   H54   S    
C56   H44   S    
C69   H79   S    
C23   O5    A    
C59   H53   S    
C24   O6    A    
C60   H55   S    
C1    O1    A    
C53   H39   S    
C10   C38   A    
C1    C4    S    
O10   C42   S    
C54   C55   S    
C13   C15   A    
C2    C3    S    
C37   C39   A    
O22   C66   S    
C48   C49   S    
C30   C32   A    
C14   C22   A    
O14   C48   S    
C67   H73   S    
C53   H38   S    
C20   O14   S    
C33   O10   S    
C60   C61   S    
C65   H68   S    
C33   C35   A    
C32   H1    S    
C55   H43   S    
C34   C36   A    
C64   H65   S    
O11   C43   S    
C16   N2    A    
C44   H18   S    
Cu1   O4    S    
O13   C45   S    
C7    C9    A    
C46   C47   S    
C7    O21   S    
O12   C44   S    
C67   C68   S    
C8    C10   A    
C42   H10   S    
C22   C26   S    
O21   C65   S    
C43   H14   S    
C54   H41   S    
Cu1   O1    S    
C71   H82   S    
C19   O13   S    
Cu2   O2    S    
C57   H47   S    
C58   H51   S    
