data_mof_unit_20891.cif
_audit_creation_date              2012-12-11T17:01:30-0500
_audit_creation_method            fapswitch 2.2
_symmetry_space_group_name_H-M    P1
_symmetry_Int_Tables_number       1
_space_group_crystal_system       triclinic
_cell_length_a                    15.027374
_cell_length_b                    15.010913
_cell_length_c                    14.922083
_cell_angle_alpha                 109.94151
_cell_angle_beta                  108.826707
_cell_angle_gamma                 109.743551
_cell_volume                      2587.83045542

loop_
_atom_site_label
_atom_site_type_symbol
_atom_type_description
_atom_site_fract_x
_atom_site_fract_y
_atom_site_fract_z
_atom_type_partial_charge
C1    C     C_R   0.009670 0.805638 0.102440 -0.132118
C2    C     C_R   0.226614 0.775810 0.315296 0.020517
C3    C     C_R   0.967908 0.409187 0.224471 -0.105071
C4    C     C_R   0.794707 0.198029 0.700020 -0.140115
C5    C     C_R   0.297858 0.590518 0.992771 -0.143351
C6    C     C_R   0.040843 0.501795 0.327547 0.053263
C7    C     C_R   0.300256 0.499192 0.932387 0.110880
C8    C     C_R   0.328316 0.799285 0.324405 0.036223
C9    C     C_R   0.987577 0.164641 0.987715 0.027921
C10   C     C_3   0.482279 0.429036 0.818738 -0.382548
C11   C     C_3   0.375784 0.427506 0.809847 -0.099145
C12   C     C_R   0.702324 0.133400 0.696460 0.022901
C13   C     C_3   0.543296 0.461266 0.012538 -0.508556
C14   C     C_3   0.592227 0.621345 0.980556 0.613965
C15   C     C_3   0.575338 0.503686 0.939932 0.108510
C16   C     C_R   0.095725 0.591768 0.792936 -0.115143
C17   C     C_3   0.397068 0.499795 0.927722 0.049479
C18   C     C_3   0.439187 0.458165 0.004653 -0.525360
C19   C     C_3   0.487654 0.619240 0.974116 0.548438
C20   C     C_R   0.624444 0.977858 0.512819 0.161504
C21   C     C_R   0.625476 0.019442 0.612838 0.019002
C22   C     C_R   0.537256 0.956993 0.620457 -0.158617
C23   C     C_R   0.065548 0.501345 0.698677 0.069011
C24   C     C_R   0.439804 0.873941 0.524303 -0.157629
C25   C     C_R   0.432405 0.855012 0.422663 0.012016
C26   C     C_R   0.528509 0.895882 0.418515 0.155803
C27   C     C_3   0.555059 0.943242 0.350963 -0.499333
C28   C     C_R   0.686379 0.409850 0.934241 0.678014
C29   C     C_3   0.660042 0.033963 0.454325 -0.505592
C30   C     C_R   0.147121 0.605423 0.531369 0.041145
C31   C     C_R   0.089923 0.506147 0.431772 -0.018031
C32   C     C_R   0.068291 0.409089 0.435697 -0.146415
C33   C     C_R   0.075395 0.408628 0.531299 -0.202966
C34   C     C_R   0.676233 0.502387 0.953126 -0.057930
C35   C     C_R   0.104577 0.505384 0.621954 0.067222
C36   C     C_R   0.154342 0.604799 0.625499 0.122023
C37   C     C_3   0.142878 0.704089 0.666073 -0.639861
C38   C     C_3   0.134802 0.705010 0.563587 0.624145
C39   C     C_R   0.048163 0.029498 0.151317 0.164295
C40   C     C_R   0.002767 0.409152 0.698585 -0.124845
C41   C     C_R   0.098721 0.981616 0.103778 0.031542
C42   C     C_R   0.149097 0.029936 0.055103 -0.197749
C43   C     C_R   0.116073 0.094119 0.020567 -0.180849
C44   C     C_R   0.036642 0.113830 0.039375 0.049617
C45   C     C_R   0.057681 0.591756 0.314904 -0.161606
C46   C     C_R   0.016488 0.094067 0.118067 0.135137
C47   C     C_3   0.915467 0.052897 0.125751 -0.459786
C48   C     C_3   0.949829 0.983212 0.163100 -0.527226
C49   C     C_R   0.779097 0.593307 0.026803 -0.224600
C50   C     C_R   0.701870 0.194428 0.789667 -0.004988
C51   C     C_R   0.094383 0.803849 0.004869 -0.113434
C52   C     C_R   0.069386 0.868628 0.072038 0.080061
C53   C     C_1   0.824482 0.150635 0.010012 -0.007212
C54   C     C_1   0.209310 0.848265 0.391475 0.071817
C55   C     C_1   0.286800 0.312681 0.750030 0.063976
C56   C     C_R   0.209401 0.408271 0.905583 -0.150490
C57   C     C_R   0.314188 0.756375 0.220319 -0.159352
C58   C     C_R   0.927686 0.209549 0.018674 0.042498
C59   C     C_R   0.029461 0.215686 0.936667 -0.153411
F1    F     F_    0.623102 0.663775 0.919311 -0.652653
F2    F     F_    0.452549 0.661742 0.909674 -0.659686
F3    F     F_    0.604411 0.304508 0.877368 -0.751776
F4    F     F_    0.223811 0.795607 0.586600 -0.703601
H1    H     H_    0.995788 0.834451 0.170672 0.099917
H2    H     H_    0.830487 0.171762 0.651565 0.107465
H3    H     H_    0.530323 0.377206 0.987319 0.260109
H4    H     H_    0.377453 0.372608 0.974066 0.217357
H5    H     H_    0.657257 0.677004 0.068013 -0.073420
H6    H     H_    0.507773 0.673450 0.058959 -0.059548
H7    H     H_    0.609706 0.515337 0.099722 0.168835
H8    H     H_    0.454898 0.509902 0.088344 0.181947
H9    H     H_    0.537943 0.980651 0.697833 0.156408
H10   H     H_    0.159681 0.674918 0.829710 0.118914
H11   H     H_    0.368647 0.834001 0.529813 0.209180
H12   H     H_    0.182193 0.322935 0.856271 0.108630
H13   H     H_    0.567686 0.890157 0.289104 0.193026
H14   H     H_    0.499643 0.972132 0.319015 0.205400
H15   H     H_    0.732889 0.033470 0.451414 0.189815
H16   H     H_    0.664394 0.114862 0.481083 0.208736
H17   H     H_    0.033035 0.331551 0.362573 0.119807
H18   H     H_    0.044622 0.330721 0.528330 0.124666
H19   H     H_    0.065864 0.686895 0.668377 0.162481
H20   H     H_    0.217921 0.775623 0.742088 0.242831
H21   H     H_    0.054744 0.691294 0.509195 0.004837
H22   H     H_    0.199347 0.004860 0.027465 0.133007
H23   H     H_    0.374583 0.759022 0.195792 0.114118
H24   H     H_    0.145819 0.118651 0.971165 0.131021
H25   H     H_    0.915507 0.117855 0.190264 0.186808
H26   H     H_    0.840153 0.000098 0.044461 0.229516
H27   H     H_    0.971343 0.008544 0.249854 0.195650
H28   H     H_    0.889724 0.894971 0.102857 0.224470
H29   H     H_    0.977880 0.325163 0.645206 0.089286
H30   H     H_    0.803137 0.679032 0.062337 0.164128
H31   H     H_    0.650801 0.163160 0.821000 0.159192
H32   H     H_    0.151207 0.829888 0.977084 0.090671
H33   H     H_    0.106991 0.675177 0.378024 0.143000
H34   H     H_    0.075575 0.199014 0.897440 0.103059
H35   H     H_    0.934991 0.325099 0.204989 0.100334
H36   H     H_    0.349720 0.674846 0.018381 0.140462
H37   H     H_    0.470469 0.344931 0.786260 0.228354
H38   H     H_    0.505313 0.460011 0.767084 0.198916
H39   H     H_    0.352298 0.463698 0.758827 0.177434
N1    N     N_R   0.995640 0.706130 0.053910 -0.036581
N2    N     N_R   0.054010 0.556790 0.847890 -0.043271
N3    N     N_R   0.789940 0.443190 0.997130 -0.105830
N4    N     N_R   0.997630 0.443170 0.791110 -0.039515
N5    N     N_R   0.846320 0.556810 0.053910 -0.082616
N6    N     N_R   0.791080 0.293860 0.847890 -0.054629
N7    N     N_R   0.052880 0.706130 0.997130 -0.041148
N8    N     N_R   0.002370 0.556830 0.208890 -0.044330
N9    N     N_1   0.740673 0.104555 0.002235 -0.066844
N10   N     N_1   0.195422 0.906705 0.452273 -0.039086
N11   N     N_1   0.217541 0.222260 0.702139 -0.087328
N12   N     N_R   0.153680 0.443190 0.946090 -0.039254
N13   N     N_R   0.208920 0.706140 0.152110 -0.048161
N14   N     N_R   0.947120 0.293870 0.002870 -0.061303
N15   N     N_R   0.004360 0.293870 0.946090 -0.048630
N16   N     N_R   0.151690 0.706140 0.208890 -0.059203
N17   N     N_R   0.945990 0.443210 0.152110 -0.045467
N18   N     N_R   0.210060 0.556810 0.002870 -0.045810
N19   N     N_R   0.848310 0.293860 0.791110 -0.048535
Ni1   Ni    Ni4+2 0.999010 0.630300 0.130220 0.207619
Ni2   Ni    Ni4+2 0.000990 0.369700 0.869780 0.205987
Ni3   Ni    Ni4+2 0.130280 0.630280 0.000000 0.213826
Ni4   Ni    Ni4+2 0.869720 0.369720 0.000000 0.243411

loop_
_geom_bond_atom_site_label_1
_geom_bond_atom_site_label_2
_ccdc_geom_bond_type
C50   N6    A    
C6    C45   A    
C27   C29   S    
C41   C42   A    
C35   C36   A    
N6    N19   A    
C3    C6    A    
N2    N4    A    
C2    N16   A    
C39   C41   A    
N14   N15   A    
N3    N5    A    
C26   C27   S    
C13   C18   S    
C36   C37   S    
C10   C15   S    
C30   C31   A    
C13   H7    S    
C23   C40   A    
C57   H23   S    
C30   C38   S    
C9    C58   A    
N16   Ni1   S    
C17   C19   S    
C16   N2    A    
C29   H15   S    
C5    H36   S    
C7    C17   S    
C48   H28   S    
N4    Ni2   S    
N6    Ni4   S    
C4    C12   A    
C1    N1    A    
C15   C34   S    
C20   C29   S    
C53   N9    T    
C6    C31   S    
C28   C34   A    
C51   N7    A    
C56   H12   S    
C48   H27   S    
C21   C22   A    
C58   N14   A    
C8    C25   S    
C47   H26   S    
C7    C56   A    
C22   H9    S    
C44   C46   A    
C13   H3    S    
C10   H38   S    
C5    N18   A    
C51   C52   A    
C24   C25   A    
C57   N13   A    
C2    C54   S    
C5    C7    A    
C45   N8    A    
C50   H31   S    
C55   N11   T    
C25   C26   A    
C49   N5    A    
C12   C21   S    
C16   H10   S    
C9    C59   A    
C43   C44   A    
C37   C38   S    
C8    C57   A    
C32   H17   S    
C47   C48   S    
C29   H16   S    
C28   N3    A    
N13   N16   A    
C17   C18   S    
C54   N10   T    
C42   H22   S    
C40   H29   S    
C10   H37   S    
C9    C44   S    
C3    N17   A    
C39   C46   A    
N12   Ni2   S    
N17   Ni4   S    
C16   C23   A    
C23   C35   S    
N14   Ni4   S    
C13   C15   S    
C59   H34   S    
C22   C24   A    
C37   H19   S    
C19   H6    S    
C42   C43   A    
C27   H13   S    
C1    H1    S    
C11   C55   S    
C40   N4    A    
C38   F4    S    
C18   H8    S    
C46   C47   S    
C11   C17   S    
C34   C49   A    
C14   H5    S    
N13   Ni3   S    
C41   C52   S    
C38   H21   S    
C14   C19   S    
C31   C32   A    
C2    C8    A    
C27   H14   S    
N8    N17   A    
C12   C50   A    
C53   C58   S    
N7    Ni3   S    
N2    Ni3   S    
C30   C36   A    
C14   F1    S    
N3    Ni4   S    
N1    N7    A    
C43   H24   S    
C47   H25   S    
C18   H4    S    
C32   C33   A    
N1    Ni1   S    
C3    H35   S    
C24   H11   S    
C4    H2    S    
C20   C26   A    
C19   F2    S    
C33   C35   A    
C4    N19   A    
C11   H39   S    
N15   Ni2   S    
C1    C52   A    
N12   N18   A    
N19   Ni2   S    
C10   C11   S    
C20   C21   A    
C59   N15   A    
C56   N12   A    
C14   C15   S    
C37   H20   S    
N5    Ni1   S    
C49   H30   S    
C45   H33   S    
C33   H18   S    
N8    Ni1   S    
N18   Ni3   S    
C51   H32   S    
C39   C48   S    
C28   F3    S    
