data_mof_unit_5265.cif
_audit_creation_date              2012-12-10T16:58:24-0500
_audit_creation_method            fapswitch 2.2
_symmetry_space_group_name_H-M    P1
_symmetry_Int_Tables_number       1
_space_group_crystal_system       triclinic
_cell_length_a                    15.873774
_cell_length_b                    10.941309
_cell_length_c                    9.774116
_cell_angle_alpha                 90.121014
_cell_angle_beta                  91.276718
_cell_angle_gamma                 89.513695
_cell_volume                      1697.08146189

loop_
_atom_site_label
_atom_site_type_symbol
_atom_type_description
_atom_site_fract_x
_atom_site_fract_y
_atom_site_fract_z
_atom_type_partial_charge
C1    C     C_R   0.504559 0.265518 0.499292 0.823850
C2    C     C_3   0.083982 0.505063 0.499614 0.103070
C3    C     C_3   0.971049 0.608454 0.542485 0.073320
C4    C     C_3   0.918238 0.493168 0.513295 0.086066
C5    C     C_3   0.022444 0.583748 0.411915 -0.266215
C6    C     C_3   0.969546 0.467869 0.385048 0.028563
C7    C     C_1   0.175331 0.505172 0.494398 -0.061996
C8    C     C_1   0.825976 0.491828 0.511438 -0.073113
C9    C     C_2   0.514469 0.931875 0.390456 -0.191636
C10   C     C_2   0.513266 0.865619 0.504964 -0.361712
C11   C     C_2   0.533859 0.063124 0.391558 0.131418
C12   C     C_R   0.340174 0.500916 0.498513 0.822499
C13   C     C_2   0.506490 0.132621 0.497380 -0.357628
C14   C     C_2   0.492503 0.404076 0.923053 -0.110173
C15   C     C_2   0.467703 0.415699 0.069691 0.147967
C16   C     C_R   0.502103 0.734380 0.500640 0.861881
C17   C     C_R   0.660156 0.498321 0.501616 0.818183
C18   C     C_3   0.980902 0.415109 0.599671 0.062030
C19   C     C_3   0.032390 0.389092 0.470097 -0.214758
C20   C     C_1   0.250712 0.503428 0.494992 -0.183515
C21   C     C_1   0.750229 0.494230 0.506513 -0.174338
C22   C     C_3   0.034091 0.531021 0.630173 0.022803
Cu1   Cu    Cu3+1 0.500020 0.500020 0.638630 0.940057
Cu2   Cu    Cu3+1 0.499980 0.499980 0.361370 0.922274
H1    H     H_    0.059589 0.299877 0.438300 0.127973
H2    H     H_    0.477220 0.090740 0.584625 0.131096
H3    H     H_    0.498226 0.313769 0.878241 0.157937
H4    H     H_    0.472406 0.577771 0.882944 0.217069
H5    H     H_    0.040979 0.652602 0.335194 0.131912
H6    H     H_    0.505037 0.888108 0.291702 0.174650
H7    H     H_    0.526543 0.906251 0.604426 0.151930
N1    N     N_2   0.499090 0.498660 0.846910 -0.286912
N2    N     N_2   0.499070 0.498630 0.153040 -0.238873
O1    O     O_R   0.500010 0.321960 0.617040 -0.581278
O2    O     O_R   0.499990 0.321920 0.382900 -0.607541
O3    O     O_R   0.379090 0.500010 0.617050 -0.568126
O4    O     O_R   0.379060 0.499970 0.382910 -0.591569
O5    O     O_R   0.500010 0.678080 0.617100 -0.579252
O6    O     O_R   0.499990 0.678040 0.382960 -0.580945
O7    O     O_R   0.620940 0.500030 0.617090 -0.562232
O8    O     O_R   0.620910 0.499990 0.382950 -0.579436
C23   C     C_3   0.400092 0.328838 0.114502 -0.366924
C24   C     C_3   0.316160 0.357572 0.039452 -0.357486
C25   C     C_3   0.245247 0.277162 0.090169 -0.864822
H8    H     H_    0.261191 0.179066 0.075060 0.250446
H9    H     H_    0.234506 0.294638 0.200478 0.254030
H10   H     H_    0.186115 0.298365 0.031706 0.250800
H11   H     H_    0.298606 0.454976 0.056365 0.232862
H12   H     H_    0.322638 0.342480 0.927659 0.228020
H13   H     H_    0.419728 0.233508 0.091630 0.156573
H14   H     H_    0.388992 0.335194 0.224736 0.262290
C26   C     C_R   0.551977 0.591938 0.102653 0.322242
C27   C     C_R   0.518274 0.709715 0.082677 -0.200950
C28   C     C_R   0.565338 0.799223 0.018669 -0.193259
C29   C     C_R   0.647533 0.773198 0.979123 -0.102892
C30   C     C_R   0.683018 0.658056 0.004966 -0.148962
C31   C     C_R   0.635606 0.567079 0.066875 -0.124943
H15   H     H_    0.453859 0.729665 0.110044 0.129403
H16   H     H_    0.537656 0.888277 0.998763 0.136803
H17   H     H_    0.683625 0.842168 0.928173 0.133016
H18   H     H_    0.746677 0.639360 0.974518 0.131956
H19   H     H_    0.662675 0.476936 0.083070 0.133662
C32   C     C_3   0.954320 0.312335 0.694140 -0.424563
C33   C     C_3   0.028850 0.228154 0.734155 -0.345238
C34   C     C_3   0.011061 0.155060 0.862933 -0.857572
H20   H     H_    0.010100 0.216669 0.953264 0.262400
H21   H     H_    0.949520 0.108169 0.852783 0.254601
H22   H     H_    0.061501 0.085451 0.879928 0.241029
H23   H     H_    0.040825 0.163634 0.648632 0.209005
H24   H     H_    0.087181 0.281815 0.752401 0.226017
H25   H     H_    0.925789 0.354477 0.784456 0.202972
H26   H     H_    0.904904 0.257175 0.641284 0.190948
C35   C     C_R   0.929756 0.423189 0.254227 0.126269
C36   C     C_R   0.914126 0.502377 0.143825 -0.145343
C37   C     C_R   0.872600 0.459330 0.025872 -0.164661
C38   C     C_R   0.846075 0.337920 0.018316 -0.136452
C39   C     C_R   0.864006 0.258217 0.126486 -0.150709
C40   C     C_R   0.904338 0.300941 0.244870 -0.148403
H27   H     H_    0.933348 0.596983 0.149149 0.123351
H28   H     H_    0.862167 0.519397 0.939372 0.115910
H29   H     H_    0.813297 0.304764 0.927513 0.130035
H30   H     H_    0.847368 0.163023 0.118831 0.140188
H31   H     H_    0.915733 0.238548 0.329280 0.117323
C41   C     C_3   0.934325 0.734442 0.576675 -0.403324
C42   C     C_3   0.891347 0.736352 0.715744 -0.334526
C43   C     C_3   0.849528 0.860001 0.741438 -0.873633
H32   H     H_    0.795778 0.874414 0.668355 0.255494
H33   H     H_    0.825809 0.863185 0.847334 0.231832
H34   H     H_    0.895632 0.934671 0.729326 0.257774
H35   H     H_    0.842683 0.664237 0.719872 0.219439
H36   H     H_    0.938571 0.718966 0.798983 0.226489
H37   H     H_    0.985947 0.802359 0.577078 0.188111
H38   H     H_    0.887970 0.760073 0.494559 0.203326
C44   C     C_R   0.077707 0.578285 0.759151 0.097980
C45   C     C_R   0.126446 0.684770 0.751800 -0.128482
C46   C     C_R   0.168113 0.730543 0.868300 -0.135853
C47   C     C_R   0.161518 0.670734 0.993591 -0.125862
C48   C     C_R   0.113024 0.565377 0.002488 -0.144085
C49   C     C_R   0.071213 0.519447 0.886145 -0.181147
H39   H     H_    0.132502 0.732201 0.655442 0.118277
H40   H     H_    0.205619 0.812355 0.861326 0.120514
H41   H     H_    0.193901 0.706011 0.083753 0.120975
H42   H     H_    0.107791 0.519146 0.099740 0.143851
H43   H     H_    0.034171 0.438653 0.897300 0.156879
C50   C     C_3   0.575993 0.113130 0.264715 -0.368692
C51   C     C_3   0.654832 0.040242 0.224832 -0.359244
C52   C     C_3   0.682993 0.078535 0.082919 -0.894983
H44   H     H_    0.632961 0.059648 0.004825 0.247291
H45   H     H_    0.696351 0.177902 0.081295 0.261328
H46   H     H_    0.740416 0.026307 0.055347 0.237183
H47   H     H_    0.706526 0.057612 0.300843 0.216904
H48   H     H_    0.642893 0.940594 0.223075 0.241290
H49   H     H_    0.529040 0.110419 0.178928 0.182965
H50   H     H_    0.598039 0.208015 0.277762 0.227655

loop_
_geom_bond_atom_site_label_1
_geom_bond_atom_site_label_2
_ccdc_geom_bond_type
C29   C30   A    
C52   H45   S    
C35   C36   A    
C45   C46   A    
C4    C8    S    
C47   C48   A    
C42   H36   S    
C31   H19   S    
C51   H48   S    
C27   C28   A    
C25   H8    S    
N2    C26   S    
C6    C19   S    
C39   H30   S    
C50   H49   S    
C5    C6    S    
C43   H33   S    
C18   C32   S    
C51   C52   S    
Cu1   O7    S    
C48   C49   A    
Cu2   O6    S    
C30   C31   A    
C18   C19   S    
C12   O4    A    
C10   H7    S    
C2    C7    S    
C34   H21   S    
C2    C22   S    
C52   H44   S    
C33   H24   S    
C14   H3    S    
C12   O3    A    
C9    C10   D    
C47   H41   S    
C25   H10   S    
C39   C40   A    
C23   H14   S    
C51   H47   S    
C4    C18   S    
Cu1   O1    S    
C49   H43   S    
C18   C22   S    
C46   H40   S    
Cu2   O8    S    
C22   C44   S    
C40   H31   S    
C25   H9    S    
C1    O1    A    
C8    C21   T    
C5    H5    S    
C28   H16   S    
C42   H35   S    
Cu2   O2    S    
C36   C37   A    
C50   H50   S    
H4    N1    S    
C38   C39   A    
C4    C6    S    
C43   H32   S    
C24   H12   S    
C42   C43   S    
C35   C40   A    
C7    C20   T    
C17   C21   S    
C17   O7    A    
C37   C38   A    
C11   C50   S    
Cu1   Cu2   S    
C34   H22   S    
C46   C47   A    
C12   C20   S    
Cu2   O4    S    
C30   H18   S    
C33   H23   S    
C41   C42   S    
C9    C11   S    
C9    H6    S    
C23   H13   S    
C32   H25   S    
Cu1   O3    S    
C36   H27   S    
C24   C25   S    
C52   H46   S    
C13   H2    S    
C2    C5    S    
C1    C13   S    
C23   C24   S    
C3    C4    S    
C26   C27   A    
C1    O2    A    
C6    C35   S    
C37   H28   S    
C28   C29   A    
C2    C19   S    
C45   H39   S    
C15   C23   S    
C14   N1    D    
C3    C5    S    
C43   H34   S    
C38   H29   S    
C27   H15   S    
Cu1   O5    S    
C50   C51   S    
Cu2   N2    S    
C24   H11   S    
C33   C34   S    
C10   C16   S    
Cu1   N1    S    
C11   C13   D    
C44   C49   A    
C41   H38   S    
C44   C45   A    
C19   H1    S    
C17   O8    A    
C26   C31   A    
C16   O6    A    
C32   C33   S    
C32   H26   S    
C34   H20   S    
C3    C41   S    
C14   C15   S    
C3    C22   S    
C41   H37   S    
C29   H17   S    
C15   N2    D    
C48   H42   S    
C16   O5    A    
