data_mof_unit_41919.cif
_audit_creation_date              2013-03-05T16:02:54-0500
_audit_creation_method            fapswitch 2.2
_symmetry_space_group_name_H-M    P1
_symmetry_Int_Tables_number       1
_space_group_crystal_system       triclinic
_cell_length_a                    8.259707
_cell_length_b                    14.413924
_cell_length_c                    17.247627
_cell_angle_alpha                 95.956538
_cell_angle_beta                  96.285461
_cell_angle_gamma                 92.038598
_cell_volume                      2027.76015703

loop_
_atom_site_label
_atom_site_type_symbol
_atom_site_description
_atom_site_fract_x
_atom_site_fract_y
_atom_site_fract_z
_atom_type_partial_charge
P1    P     P_3+3 0.017810 0.410420 0.324030 0.481263
O1    O     O_2   0.840370 0.437300 0.310630 -0.370908
O2    O     O_3   0.112450 0.444030 0.408320 -0.418419
O3    O     O_3   0.597270 0.610320 0.351390 -0.384829
O4    O     O_2   0.668558 0.534231 0.214371 -0.370016
O5    O     O_3   0.007572 0.288454 0.305810 -0.539331
O6    O     O_3   0.622552 0.715957 0.228428 -0.539815
H1    H     H_    0.617659 0.787096 0.338889 0.133882
C1    C     C_3   0.580577 0.880032 0.249753 -0.972239
H2    H     H_    0.712447 0.899887 0.253890 0.293720
H3    H     H_    0.525768 0.878947 0.187924 0.259811
P2    P     P_3+3 0.635890 0.718430 0.552520 0.503949
P3    P     P_3+3 0.046598 0.781839 0.387894 0.441167
O7    O     O_2   0.802370 0.730760 0.528330 -0.335770
O8    O     O_3   0.016680 0.660770 0.388810 -0.400359
O9    O     O_2   0.924940 0.830068 0.438968 -0.363813
O10   O     O_3   0.656738 0.745796 0.654376 -0.520319
O11   O     O_3   0.981266 0.812808 0.294509 -0.529001
C2    C     C_3   0.007174 0.739030 0.238233 0.491482
H4    H     H_    0.935276 0.674900 0.246567 0.148085
H5    H     H_    0.138478 0.724518 0.241560 -0.010910
C3    C     C_3   0.951661 0.766231 0.156938 -0.950012
H6    H     H_    0.826031 0.791058 0.153781 0.298169
H7    H     H_    0.033453 0.823342 0.142790 0.254923
C4    C     C_3   0.230296 0.749343 0.626281 0.450546
H8    H     H_    0.329575 0.710705 0.602072 0.081911
H9    H     H_    0.123943 0.746149 0.580658 0.135291
C5    C     C_3   0.289656 0.850802 0.650373 -0.861103
H10   H     H_    0.414138 0.853881 0.682250 0.273253
H11   H     H_    0.291051 0.889234 0.598047 0.216567
H12   H     H_    0.208522 0.886402 0.690005 0.291766
Ba1   Ba    Ba6+2 0.833220 0.541860 0.459910 1.582432
C6    C     C_3   0.985218 0.249247 0.374710 0.405658
H13   H     H_    0.868462 0.271004 0.394152 0.091198
H14   H     H_    0.086635 0.270879 0.421468 0.124948
C7    C     C_3   0.979948 0.143335 0.357661 -0.948993
H15   H     H_    0.874941 0.119385 0.313372 0.273637
H16   H     H_    0.966817 0.110105 0.411894 0.218743
H17   H     H_    0.094713 0.120892 0.334911 0.258600
C8    C     C_3   0.741748 0.678525 0.691937 0.474527
H18   H     H_    0.859654 0.668118 0.668176 0.095021
H19   H     H_    0.666387 0.612259 0.685029 0.081146
C9    C     C_3   0.774458 0.713945 0.778808 -0.932929
H20   H     H_    0.847192 0.781238 0.786459 0.297894
H21   H     H_    0.843299 0.663459 0.811905 0.191288
H22   H     H_    0.657175 0.724774 0.803643 0.259106
P4    P     P_3+3 0.171880 0.589650 0.675980 0.471071
O12   O     O_2   0.349330 0.562730 0.689420 -0.369195
O13   O     O_3   0.077250 0.556050 0.591680 -0.417988
O14   O     O_3   0.592420 0.389760 0.648620 -0.407931
O15   O     O_3   0.185069 0.711622 0.692477 -0.562407
P5    P     P_3+3 0.149695 0.216983 0.611190 0.468544
O16   O     O_3   0.628930 0.385070 0.464840 -0.376813
O17   O     O_3   0.173020 0.339310 0.611190 -0.355755
O18   O     O_2   0.272539 0.169683 0.560403 -0.416108
O19   O     O_3   0.201614 0.176131 0.703259 -0.615546
Ba2   Ba    Ba6+2 0.356600 0.458220 0.540090 1.577243
P6    P     P_3+3 0.556969 0.606385 0.251346 0.453001
C10   C     C_3   0.555673 0.784629 0.278118 0.477587
H23   H     H_    0.422299 0.771245 0.278439 0.008165
H24   H     H_    0.521196 0.933354 0.286807 0.228459
O20   O     O_3   0.560770 0.615000 0.535160 -0.407104
C11   C     C_3   0.470143 0.299543 0.299434 0.176687
H25   H     H_    0.337272 0.300625 0.304224 0.116874
H26   H     H_    0.528611 0.369905 0.319277 0.122055
C12   C     C_3   0.500024 0.273328 0.214073 -0.104052
H27   H     H_    0.477281 0.196841 0.198125 0.154867
H28   H     H_    0.629997 0.290466 0.207697 0.155046
P7    P     P_3+3 0.560813 0.268063 0.443514 0.432695
O21   O     O_2   0.387340 0.269270 0.471720 -0.368540
O22   O     O_3   0.537274 0.230648 0.343017 -0.597828
H29   H     H_    0.952516 0.704621 0.112820 0.215845
C13   C     C_3   0.195109 0.245085 0.766883 0.571211
H30   H     H_    0.264701 0.309572 0.757885 0.091859
C14   C     C_3   0.275141 0.206433 0.841051 -0.138084
H31   H     H_    0.198952 0.146502 0.855033 0.157887
H32   H     H_    0.394311 0.178924 0.830415 0.128849
P8    P     P_3+3 0.619997 0.400661 0.750329 0.523954
C15   C     C_3   0.603221 0.221235 0.714093 0.444388
H33   H     H_    0.682280 0.237186 0.669119 0.121749
O23   O     O_2   0.470502 0.447226 0.781453 -0.395403
O24   O     O_3   0.621383 0.287980 0.780623 -0.470952
H34   H     H_    0.477040 0.218815 0.686173 0.119342
H35   H     H_    0.777964 0.115196 0.734997 0.277631
C16   C     C_3   0.645704 0.125085 0.736941 -0.812420
H36   H     H_    0.575312 0.071188 0.694616 0.231554
H37   H     H_    0.617278 0.115304 0.796915 0.265736
C17   C     C_2   0.265328 0.507102 0.269741 -0.396693
C18   C     C_3   0.333954 0.579794 0.223187 0.075262
C19   C     C_2   0.277769 0.564568 0.135695 0.169988
C20   C     C_2   0.132081 0.515265 0.113253 0.102494
C21   C     C_2   0.046518 0.470663 0.174711 -0.199212
C22   C     C_1   0.117391 0.468514 0.248078 0.293692
C23   C     C_R   0.877689 0.468637 0.863251 -0.172029
C24   C     C_R   0.812422 0.465901 0.785013 0.324464
C25   C     C_R   0.065136 0.535141 0.751229 0.308908
C26   C     C_R   0.132575 0.535947 0.830163 -0.251595
C27   C     C_R   0.039619 0.500844 0.886184 0.046468
C28   C     C_2   0.044631 0.512692 0.032113 -0.184930
C29   C     C_2   0.116560 0.490295 0.966465 -0.035604
C30   C     C_R   0.907081 0.497045 0.729376 -0.431322
H38   H     H_    0.237964 0.464317 0.971391 0.202964
H39   H     H_    0.927891 0.435312 0.157196 0.184104
H40   H     H_    0.806785 0.438728 0.904561 0.179605
H41   H     H_    0.918704 0.532673 0.026978 0.135359
H42   H     H_    0.256159 0.563584 0.847970 0.165213
H43   H     H_    0.330666 0.495567 0.325738 0.156083
H44   H     H_    0.857243 0.491109 0.668321 0.159355
C31   C     C_R   0.701461 0.945274 0.550588 0.383507
C32   C     C_R   0.513812 0.803062 0.500819 0.256020
C33   C     C_R   0.365558 0.767910 0.458758 -0.533334
C34   C     C_R   0.255093 0.827122 0.425388 0.251381
C35   C     C_R   0.300403 0.921064 0.424802 -0.263220
C36   C     C_R   0.452486 0.957841 0.462293 0.032150
C37   C     C_R   0.558270 0.900925 0.505485 -0.172965
H45   H     H_    0.330418 0.694544 0.456643 0.172293
C38   C     C_R   0.641803 0.093676 0.498885 -0.035639
C39   C     C_R   0.748779 0.038160 0.541520 -0.087604
C40   C     C_R   0.684769 0.189803 0.498953 0.236468
C41   C     C_R   0.834120 0.227435 0.536997 -0.489107
C42   C     C_R   0.945653 0.170291 0.571353 0.319679
C43   C     C_R   0.902086 0.077406 0.576093 -0.251436
C44   C     C_R   0.494523 0.052458 0.459704 -0.119706
H46   H     H_    0.215216 0.965932 0.396453 0.154797
H47   H     H_    0.991124 0.036861 0.606222 0.211656
H48   H     H_    0.867651 0.300597 0.536154 0.175872
H49   H     H_    0.410479 0.093310 0.426474 0.171055
N1    N     N_R   0.393661 0.322050 0.160524 0.246509
O25   O     O_R   0.239567 0.296806 0.146826 -0.355400
O26   O     O_R   0.456356 0.378087 0.116155 -0.346626
N2    N     N_R   0.025999 0.266492 0.775357 0.207289
O27   O     O_R   0.943146 0.304395 0.719951 -0.480333
O28   O     O_R   0.957458 0.250581 0.837487 -0.369097
N3    N     N_R   0.299327 0.278192 0.907873 0.259664
O29   O     O_R   0.417974 0.341086 0.912530 -0.357999
O30   O     O_R   0.221262 0.270319 0.968579 -0.284510
C45   C     C_3   0.366343 0.621174 0.080878 -0.294252
C46   C     C_3   0.297055 0.716569 0.073420 -0.942375
H50   H     H_    0.172831 0.708696 0.041198 0.270593
H51   H     H_    0.295116 0.755274 0.132260 0.266138
H52   H     H_    0.375156 0.757635 0.039618 0.270232
H53   H     H_    0.497556 0.631675 0.101266 0.237326
H54   H     H_    0.370068 0.585287 0.021937 0.179270
N4    N     N_R   0.782603 0.905532 0.615997 0.247784
O31   O     O_R   0.929555 0.877475 0.612799 -0.418772
O32   O     O_R   0.733300 0.925016 0.684618 -0.417270

loop_
_geom_bond_atom_site_label_1
_geom_bond_atom_site_label_2
_geom_bond_distance
_ccdc_geom_bond_type
C12   H28   1.112757 S    
C45   H53   1.102260 S    
C13   N2    1.460693 S    
C13   H30   1.109037 S    
C2    H4    1.111306 S    
C9    H20   1.110750 S    
O16   P7    1.747749 S    
N1    O25   1.300581 A    
P2    C32   1.848353 S    
C36   C37   1.423632 A    
C14   N3    1.457923 S    
O12   Ba2   2.853339 S    
P4    O13   1.592985 S    
C16   H36   1.109822 S    
C4    C5    1.526435 S    
C7    H17   1.110899 S    
O4    P6    1.548263 D    
C1    H24   1.110507 S    
C5    H10   1.108758 S    
C2    H5    1.108269 S    
O11   C2    1.402225 S    
P3    C34   1.843496 S    
P1    O2    1.592901 S    
C38   C40   1.417855 A    
H1    C10   1.111529 S    
C11   H26   1.111693 S    
C41   H48   1.082708 S    
C23   C27   1.400978 A    
C6    C7    1.522559 S    
O13   Ba2   2.919700 S    
O1    Ba1   2.852782 S    
P1    O1    1.528508 D    
C39   C43   1.411638 A    
C3    H29   1.108629 S    
P7    O22   1.748673 S    
C32   C33   1.402696 A    
C21   H39   1.085664 S    
C8    C9    1.523616 S    
C28   C29   1.350661 D    
P2    O10   1.748313 S    
P4    C25   1.868705 S    
C33   H45   1.082457 S    
Ba2   O21   2.884570 S    
C1    H2    1.109030 S    
O6    P6    1.749188 S    
P5    O18   1.543228 D    
C30   H44   1.081469 S    
C8    H19   1.109866 S    
C12   H27   1.112388 S    
C45   H54   1.095813 S    
C11   C12   1.530360 S    
C23   H40   1.083347 S    
C10   H23   1.112331 S    
C25   C30   1.395050 A    
P2    Ba1   3.421509 S    
C13   C14   1.540363 S    
O2    Ba1   2.918866 S    
Ba1   Ba2   4.479315 S    
O14   P8    1.733974 S    
O6    C10   1.409212 S    
C34   C35   1.393308 A    
P6    C18   1.868456 S    
P5    O17   1.766881 S    
C31   C39   1.410442 A    
C26   C27   1.419637 A    
C16   H37   1.107284 S    
C28   H41   1.085847 S    
P1    O5    1.750838 S    
Ba2   O20   2.785324 S    
C2    C3    1.521859 S    
H35   C16   1.110379 S    
N4    O32   1.300068 A    
O7    Ba1   2.884344 S    
C20   C21   1.519714 S    
C17   H43   1.085023 S    
O16   Ba2   2.894793 S    
P4    O15   1.749140 S    
C4    H8    1.102784 S    
P7    C40   1.823920 S    
P1    Ba1   3.387156 S    
C11   H25   1.110100 S    
N1    O26   1.300570 A    
C1    C10   1.521239 S    
O10   C8    1.390002 S    
C14   H31   1.112738 S    
C4    O15   1.395161 S    
P4    Ba2   3.387788 S    
P2    O20   1.580531 S    
P5    C42   1.826236 S    
P8    O24   1.757052 S    
C44   H49   1.081248 S    
P4    O12   1.528810 D    
P8    C24   1.826739 S    
C25   C26   1.412124 A    
C29   H38   1.080570 S    
C6    H13   1.100602 S    
C23   C24   1.393299 A    
C14   H32   1.100884 S    
C42   C43   1.386911 A    
O3    Ba1   2.827825 S    
C46   H51   1.108197 S    
C26   H42   1.082594 S    
P3    O11   1.749503 S    
C8    H18   1.106297 S    
P2    O7    1.490007 D    
C27   C29   1.483966 S    
C1    H3    1.110292 S    
C3    H7    1.109881 S    
C36   C44   1.401740 A    
N2    O27   1.292961 A    
O2    Ba2   2.853843 S    
Ba1   O16   2.786014 S    
C15   C16   1.522109 S    
C19   C45   1.537508 S    
C41   C42   1.383475 A    
C35   C36   1.407378 A    
C17   C22   1.323097 D    
C7    H15   1.110794 S    
O19   C13   1.408993 S    
C33   C34   1.390870 A    
O14   Ba2   2.827256 S    
C5    H12   1.109778 S    
C11   O22   1.400537 S    
N4    O31   1.297998 A    
N2    O28   1.302318 A    
C46   H52   1.110509 S    
O8    Ba1   2.719566 S    
C15   O24   1.409856 S    
N3    O30   1.300844 A    
C40   C41   1.395646 A    
N3    O29   1.301193 A    
C4    H9    1.109610 S    
C45   C46   1.520311 S    
O5    C6    1.394864 S    
C43   H47   1.078121 S    
P3    O8    1.755712 S    
C38   C44   1.405256 A    
Ba1   O20   2.895576 S    
C5    H11   1.107738 S    
C9    H21   1.106030 S    
C38   C39   1.411366 A    
C15   H34   1.096981 S    
P8    O23   1.546827 D    
C19   C20   1.372205 D    
C35   H46   1.084003 S    
C7    H16   1.107985 S    
C21   C22   1.338695 D    
C6    H14   1.109325 S    
C12   N1    1.455638 S    
C31   N4    1.430367 S    
P7    O21   1.562894 D    
C9    H22   1.110861 S    
Ba1   O13   2.853231 S    
C46   H50   1.108285 S    
C31   C37   1.433231 A    
C15   H33   1.103739 S    
C24   C30   1.400842 A    
C17   C18   1.515217 S    
P1    C22   1.873067 S    
P3    O9    1.544483 D    
O3    P6    1.715809 S    
C3    H6    1.107196 S    
C20   C28   1.499213 S    
C18   C19   1.520326 S    
C32   C37   1.436723 A    
P5    O19   1.764998 S    
O17   Ba2   2.720146 S    
