data_mof_unit_23495.cif
_audit_creation_date              2012-12-11T16:53:53-0500
_audit_creation_method            fapswitch 2.2
_symmetry_space_group_name_H-M    P1
_symmetry_Int_Tables_number       1
_space_group_crystal_system       triclinic
_cell_length_a                    15.042028
_cell_length_b                    14.776349
_cell_length_c                    16.955035
_cell_angle_alpha                 108.685886
_cell_angle_beta                  106.702212
_cell_angle_gamma                 108.331538
_cell_volume                      3056.74444551

loop_
_atom_site_label
_atom_site_type_symbol
_atom_type_description
_atom_site_fract_x
_atom_site_fract_y
_atom_site_fract_z
_atom_type_partial_charge
C1    C     C_R   0.087249 0.285967 0.076719 -0.154671
C2    C     C_R   0.064596 0.548496 0.265422 -0.111961
C3    C     C_R   0.278529 0.786527 0.177599 -0.152868
C4    C     C_R   0.934904 0.519651 0.746592 -0.152333
C5    C     C_R   0.705752 0.422688 0.009914 0.490136
C6    C     C_R   0.334492 0.783260 0.256585 0.065285
C7    C     C_R   0.657369 0.473248 0.972667 -0.059823
C8    C     C_R   0.972983 0.533940 0.275114 0.061205
C9    C     C_R   0.996330 0.821826 0.982170 0.091183
C10   C     C_R   0.376519 0.395109 0.873634 0.144794
C11   C     C_R   0.365224 0.433719 0.954985 0.098526
C12   C     C_R   0.025095 0.580105 0.744599 0.047866
C13   C     C_R   0.447169 0.468579 0.040311 -0.249432
C14   C     C_R   0.543359 0.481861 0.044897 -0.135311
C15   C     C_R   0.557775 0.460475 0.964497 0.082743
C16   C     C_R   0.777235 0.201307 0.812745 -0.180552
C17   C     C_R   0.472740 0.407890 0.878701 0.152217
C18   C     C_3   0.455358 0.426585 0.795409 -0.519555
C19   C     C_3   0.347922 0.410465 0.788427 -0.475293
C20   C     C_R   0.963740 0.578752 0.361461 0.129725
C21   C     C_R   0.032937 0.621597 0.677706 0.129421
C22   C     C_R   0.137548 0.693672 0.607339 -0.224372
C23   C     C_R   0.759599 0.194857 0.725499 0.110663
C24   C     C_R   0.130600 0.677013 0.681842 -0.172172
C25   C     C_R   0.942555 0.595540 0.603202 -0.273215
C26   C     C_R   0.948897 0.606988 0.526514 0.184825
C27   C     C_R   0.047147 0.651788 0.527159 0.186993
C28   C     C_R   0.256716 0.530190 0.947758 0.615046
C29   C     C_R   0.053649 0.641456 0.444936 -0.277812
C30   C     C_R   0.865856 0.547208 0.362801 -0.176608
C31   C     C_R   0.858568 0.562565 0.445507 -0.222578
C32   C     C_R   0.719955 0.097108 0.639704 -0.036635
C33   C     C_R   0.443253 0.855261 0.323618 0.128782
C34   C     C_R   0.276925 0.448307 0.957880 -0.092640
C35   C     C_R   0.596783 0.023907 0.391667 -0.172507
C36   C     C_R   0.501789 0.946122 0.318002 -0.199389
C37   C     C_R   0.486404 0.837638 0.398956 -0.237322
C38   C     C_R   0.577363 0.917453 0.474804 0.135244
C39   C     C_R   0.631329 0.013605 0.473119 0.015435
C40   C     C_R   0.780153 0.297197 0.734563 -0.126282
C41   C     C_R   0.710700 0.101215 0.555616 0.458288
C42   C     C_R   0.676591 0.997292 0.638706 -0.239583
C43   C     C_R   0.607597 0.907065 0.556036 -0.223624
C44   C     C_R   0.080289 0.086412 0.112350 0.030767
C45   C     C_R   0.272736 0.689138 0.253482 -0.140680
C46   C     C_R   0.999045 0.114743 0.087690 -0.014654
C47   C     C_R   0.914600 0.070648 0.107339 -0.161801
C48   C     C_R   0.920553 0.016284 0.162182 -0.196449
C49   C     C_R   0.010527 0.005074 0.198588 0.052417
C50   C     C_R   0.085328 0.034208 0.166944 0.091603
C51   C     C_3   0.200345 0.086270 0.213395 -0.591803
C52   C     C_R   0.240012 0.427144 0.018702 -0.249276
C53   C     C_3   0.196968 0.142465 0.151716 0.503422
C54   C     C_R   0.106661 0.604049 0.823557 -0.093730
C55   C     C_R   0.916198 0.200729 0.999170 -0.137696
C56   C     C_R   0.714522 0.522478 0.935534 -0.223972
C57   C     C_R   0.001791 0.191298 0.048090 0.072094
C58   C     C_3   0.664292 0.248339 0.982329 0.165924
C59   C     C_3   0.588389 0.154877 0.986555 -0.238708
C60   C     C_3   0.591305 0.050545 0.936129 -1.063736
C61   C     C_3   0.859017 0.195575 0.548810 0.157932
C62   C     C_3   0.947798 0.247394 0.645542 -0.284102
C63   C     C_3   0.051653 0.265002 0.642004 -1.015453
C64   C     C_3   0.366086 0.701602 0.988670 -0.306999
C65   C     C_3   0.248394 0.167394 0.041238 -0.240064
C66   C     C_R   0.891509 0.463204 0.188640 -0.175907
C67   C     C_R   0.082942 0.806593 0.018858 -0.122503
C68   C     C_R   0.911195 0.722363 0.942179 -0.129552
H1    H     H_    0.163191 0.315861 0.130705 0.080129
H2    H     H_    0.506454 0.509481 0.811726 0.197584
H3    H     H_    0.856419 0.499934 0.703382 0.099841
H4    H     H_    0.453684 0.362340 0.737673 0.198183
H5    H     H_    0.336626 0.482975 0.797296 0.251512
H6    H     H_    0.285216 0.335959 0.727021 0.193128
H7    H     H_    0.129614 0.671616 0.445885 0.118105
H8    H     H_    0.794607 0.503801 0.300050 0.123024
H9    H     H_    0.213488 0.729948 0.609280 0.129462
H10   H     H_    0.782554 0.530432 0.444483 0.129693
H11   H     H_    0.202134 0.701256 0.739302 0.124339
H12   H     H_    0.692231 0.557615 0.891000 0.126885
H13   H     H_    0.866668 0.556214 0.599883 0.120623
H14   H     H_    0.769085 0.137609 0.832209 0.108999
H15   H     H_    0.687830 0.989284 0.701515 0.144305
H16   H     H_    0.637645 0.095954 0.387727 0.160747
H17   H     H_    0.568754 0.832482 0.557398 0.135320
H18   H     H_    0.472368 0.960285 0.259297 0.119959
H19   H     H_    0.444767 0.767160 0.404200 0.107929
H20   H     H_    0.847618 0.085560 0.087500 0.122495
H21   H     H_    0.858453 0.989922 0.181910 0.129883
H22   H     H_    0.231484 0.141734 0.287719 0.163532
H23   H     H_    0.810267 0.433584 0.171763 0.150980
H24   H     H_    0.232563 0.027891 0.198652 0.215116
H25   H     H_    0.234388 0.230808 0.193454 -0.000768
H26   H     H_    0.772138 0.323668 0.681872 0.162206
H27   H     H_    0.251223 0.374798 0.048372 0.132410
H28   H     H_    0.185130 0.664415 0.851688 0.134939
H29   H     H_    0.836261 0.149686 0.979480 0.084526
H30   H     H_    0.295619 0.650930 0.294762 0.084671
H31   H     H_    0.744070 0.258028 0.015897 0.110368
H32   H     H_    0.642844 0.229341 0.908265 0.107568
H33   H     H_    0.608225 0.171904 0.059852 0.201504
H34   H     H_    0.163081 0.864931 0.048901 0.125904
H35   H     H_    0.508362 0.145589 0.954339 0.204703
H36   H     H_    0.574245 0.033092 0.863160 0.271245
H37   H     H_    0.532022 0.983862 0.937129 0.275130
H38   H     H_    0.668685 0.055535 0.970796 0.261542
H39   H     H_    0.880285 0.244501 0.513211 0.142465
H40   H     H_    0.849378 0.114626 0.506448 0.084739
H41   H     H_    0.953670 0.325811 0.687696 0.223138
H42   H     H_    0.931939 0.195528 0.679844 0.194779
H43   H     H_    0.048810 0.187697 0.600963 0.267158
H44   H     H_    0.112885 0.301598 0.713373 0.271912
H45   H     H_    0.831935 0.702613 0.900900 0.096703
H46   H     H_    0.071694 0.319879 0.611037 0.272539
H47   H     H_    0.420816 0.704765 0.051022 0.154182
H48   H     H_    0.314997 0.736765 0.006419 0.135521
H49   H     H_    0.413083 0.751661 0.965071 0.176619
H50   H     H_    0.305805 0.251619 0.090800 0.124446
H51   H     H_    0.173382 0.162531 0.999751 0.142233
H52   H     H_    0.280036 0.136803 0.992693 0.174306
H53   H     H_    0.143138 0.597828 0.318214 0.091276
H54   H     H_    0.307435 0.840937 0.150894 0.085304
H55   H     H_    0.439889 0.495104 0.104571 0.140739
H56   H     H_    0.607699 0.514448 0.111611 0.134829
N1    N     N_R   0.055640 0.348550 0.045600 -0.027918
N2    N     N_R   0.811290 0.303400 0.871650 -0.055389
N3    N     N_R   0.205180 0.552990 0.997660 -0.103694
N4    N     N_R   0.814810 0.361830 0.823710 -0.049204
N5    N     N_R   0.201660 0.494570 0.045600 -0.062829
N6    N     N_R   0.068420 0.560530 0.871650 -0.052558
N7    N     N_R   0.948050 0.295860 0.997660 -0.040705
N8    N     N_R   0.185190 0.638170 0.176290 -0.035183
N9    N     N_R   0.798340 0.505430 0.954400 -0.057740
N10   N     N_R   0.931580 0.439470 0.128350 -0.046321
N11   N     N_R   0.051950 0.704140 0.002340 -0.046788
N12   N     N_R   0.944360 0.651450 0.954400 -0.034462
N13   N     N_R   0.039170 0.492150 0.176290 -0.037039
N14   N     N_R   0.188710 0.696600 0.128350 -0.039428
N15   N     N_R   0.794820 0.447010 0.002340 -0.102942
N16   N     N_R   0.960830 0.507850 0.823710 -0.046922
Ni1   Ni    Ni4+2 0.119330 0.493420 0.109950 0.201584
Ni2   Ni    Ni4+2 0.880670 0.506580 0.890050 0.198347
Ni3   Ni    Ni4+2 0.872590 0.372590 0.000000 0.200830
Ni4   Ni    Ni4+2 0.127410 0.627410 0.000000 0.203434
O1    O     O_3   0.657222 0.341645 0.029579 -0.690473
O2    O     O_3   0.766637 0.194677 0.554354 -0.693686
O3    O     O_3   0.307329 0.596367 0.916556 -0.651792
O4    O     O_3   0.233850 0.103179 0.086783 -0.598642

loop_
_geom_bond_atom_site_label_1
_geom_bond_atom_site_label_2
_ccdc_geom_bond_type
C18   H2    S    
C8    C66   A    
C64   H48   S    
C6    C45   A    
C27   C29   A    
C67   N11   A    
C35   C36   A    
C3    C6    A    
N6    N16   A    
N10   N13   A    
C9    C67   A    
C56   N9    A    
C58   O1    S    
C60   H38   S    
N11   N12   A    
C39   C41   A    
C20   C30   A    
N9    Ni2   S    
C62   C63   S    
C21   C25   A    
C52   N5    A    
N16   Ni2   S    
C45   H30   S    
C51   H22   S    
C30   C31   A    
C13   H55   S    
N5    Ni1   S    
C10   C17   A    
N8    N14   A    
C23   C40   A    
C40   N4    A    
N2    Ni3   S    
C33   C36   A    
C52   H27   S    
C18   C19   S    
C63   H44   S    
C61   H40   S    
N12   Ni2   S    
C1    N1    A    
N10   Ni3   S    
C66   N10   A    
C63   H46   S    
N15   Ni3   S    
C44   C53   S    
C41   O2    S    
N1    Ni1   S    
C65   H50   S    
C4    C12   A    
N6    Ni4   S    
C54   H28   S    
C28   N3    A    
C68   H45   S    
C7    C15   S    
C28   C34   A    
C59   C60   S    
C64   H47   S    
C13   C14   A    
C25   H13   S    
C7    C56   A    
C44   C46   A    
C5    N15   A    
C20   C29   A    
C11   C34   S    
C18   H4    S    
C54   N6    A    
C14   H56   S    
C58   H31   S    
C53   H25   S    
C43   H17   S    
C68   N12   A    
C5    O1    S    
C5    C7    A    
C36   H18   S    
C25   C26   A    
C12   C21   S    
C53   O4    S    
C33   C37   A    
C64   H49   S    
C51   C53   S    
C59   H33   S    
C35   C39   A    
C61   O2    S    
N3    N5    A    
C37   C38   A    
C1    C57   A    
C51   H24   S    
C4    N16   A    
C30   H8    S    
N1    N7    A    
C24   H11   S    
C47   C48   A    
C62   H42   S    
C19   H5    S    
C10   C19   S    
C32   C41   A    
C55   H29   S    
C16   H14   S    
C17   C18   S    
C26   C27   A    
C58   H32   S    
C50   C51   S    
C3    N14   A    
C8    C20   S    
C65   O4    S    
C48   C49   A    
N9    N15   A    
C16   C23   A    
C55   N7    A    
C48   H21   S    
C55   C57   A    
C64   O3    S    
C22   C24   A    
C42   C43   A    
N7    Ni3   S    
C31   H10   S    
C2    H53   S    
C44   C50   A    
N8    Ni1   S    
C15   C17   A    
N13   Ni1   S    
C46   C47   A    
N11   Ni4   S    
C28   O3    S    
N2    N4    A    
C2    N13   A    
C37   H19   S    
C19   H6    S    
C2    C8    A    
C42   H15   S    
C22   H9    S    
C40   H26   S    
C35   H16   S    
C3    H54   S    
C66   H23   S    
C29   H7    S    
C34   C52   A    
C56   H12   S    
C6    C33   S    
C22   C27   A    
C59   H35   S    
C47   H20   S    
C58   C59   S    
C9    C68   A    
C38   C43   A    
C46   C57   S    
N14   Ni4   S    
C23   C32   S    
C11   C13   A    
C38   C39   A    
C62   H41   S    
C16   N2    A    
C65   H52   S    
N3    Ni4   S    
C63   H43   S    
C61   C62   S    
C61   H39   S    
C1    H1    S    
C65   H51   S    
C10   C11   A    
C26   C31   A    
C45   N8    A    
C49   C50   A    
C21   C24   A    
C32   C42   A    
C14   C15   A    
C60   H36   S    
N4    Ni2   S    
C4    H3    S    
C12   C54   A    
C60   H37   S    
C67   H34   S    
