data_mof_unit_12889.cif
_audit_creation_date              2012-10-26T19:34:25-0400
_audit_creation_method            fapswitch 2.2
_symmetry_space_group_name_H-M    P1
_symmetry_Int_Tables_number       1
_space_group_crystal_system       triclinic
_cell_length_a                    19.428134
_cell_length_b                    18.116506
_cell_length_c                    14.971514
_cell_angle_alpha                 89.926461
_cell_angle_beta                  89.919694
_cell_angle_gamma                 90.058262
_cell_volume                      5269.51012754

loop_
_atom_site_label
_atom_site_type_symbol
_atom_type_description
_atom_site_fract_x
_atom_site_fract_y
_atom_site_fract_z
_atom_type_partial_charge
C1    C     C_R   0.367492 0.499949 0.500073 0.549765
C2    C     C_R   0.183837 0.566188 0.492937 0.326260
C3    C     C_R   0.184023 0.432845 0.510410 0.323604
C4    C     C_R   0.816209 0.566926 0.501427 0.325460
C5    C     C_R   0.852332 0.499998 0.507390 0.032108
C6    C     C_R   0.147592 0.499451 0.502217 0.031235
C7    C     C_R   0.708031 0.500048 0.503652 -0.110395
C8    C     C_R   0.291968 0.499778 0.500688 -0.111420
C9    C     C_R   0.963494 0.534050 0.436046 -0.055050
C10   C     C_R   0.036320 0.465195 0.573914 -0.054616
C11   C     C_R   0.035150 0.533719 0.434565 -0.059106
C12   C     C_R   0.632513 0.500024 0.500896 0.543605
C13   C     C_R   0.964619 0.465369 0.575272 -0.059739
C14   C     C_R   0.071958 0.499374 0.503540 0.092306
C15   C     C_R   0.927893 0.499895 0.506394 0.094142
C16   C     C_R   0.450317 0.720194 0.453922 0.067645
C17   C     C_R   0.550403 0.278190 0.543021 0.066809
C18   C     C_R   0.549064 0.721172 0.546044 0.066340
C19   C     C_R   0.449264 0.280077 0.455405 0.068250
C20   C     C_R   0.447438 0.798241 0.452978 0.013550
C21   C     C_R   0.551996 0.199927 0.541958 0.014741
C22   C     C_R   0.550636 0.799331 0.546719 0.013651
C23   C     C_R   0.388485 0.568478 0.040628 -0.002955
C24   C     C_R   0.446537 0.202001 0.452934 0.014885
C25   C     C_R   0.498906 0.838437 0.499368 0.120003
C26   C     C_R   0.498731 0.161357 0.497096 0.119916
C27   C     C_R   0.497319 0.500129 0.328667 0.549109
C28   C     C_R   0.502307 0.500185 0.671326 0.540634
C29   C     C_R   0.465400 0.961279 0.566745 0.334231
C30   C     C_R   0.530577 0.038484 0.428228 0.334145
C31   C     C_R   0.530946 0.960821 0.429092 0.336738
C32   C     C_R   0.465035 0.038931 0.565887 0.336895
C33   C     C_R   0.497708 0.078330 0.496699 -0.110287
C34   C     C_R   0.633290 0.507564 0.960705 -0.002439
C35   C     C_R   0.498491 0.921432 0.498462 -0.109137
C36   C     C_R   0.569826 0.490552 0.814107 -0.021038
C37   C     C_R   0.435774 0.516858 0.183694 -0.023418
C38   C     C_R   0.506830 0.502263 0.768091 0.007316
C39   C     C_R   0.496740 0.501519 0.231814 0.014058
C40   C     C_R   0.448020 0.525957 0.812567 -0.131220
C41   C     C_R   0.559966 0.495244 0.188569 -0.132743
C42   C     C_R   0.447842 0.533191 0.904497 -0.002452
C43   C     C_R   0.564011 0.501737 0.096230 -0.003557
C44   C     C_R   0.508306 0.519278 0.953091 0.032614
C45   C     C_R   0.744228 0.433265 0.510559 -0.122534
C46   C     C_R   0.504729 0.518871 0.047015 0.033507
C47   C     C_R   0.571791 0.505620 0.908228 0.031388
C48   C     C_R   0.441795 0.534989 0.091454 0.034733
C49   C     C_R   0.389006 0.559251 0.947882 -0.112180
C50   C     C_R   0.627673 0.497243 0.053443 -0.111838
C51   C     C_3   0.630609 0.456482 0.763335 -0.253716
C52   C     C_3   0.650340 0.380208 0.800062 -0.303953
C53   C     C_3   0.718822 0.354440 0.760912 -0.450777
C54   C     C_3   0.365800 0.503291 0.227865 -0.267686
C55   C     C_3   0.354615 0.421610 0.251994 -0.306452
C56   C     C_R   0.255508 0.566225 0.492160 -0.120287
C57   C     C_3   0.278726 0.405484 0.270836 -0.446765
C58   C     C_3   0.338271 0.624207 0.079809 -0.270056
C59   C     C_3   0.345428 0.700432 0.035322 -0.288652
C60   C     C_3   0.299451 0.757430 0.080695 -0.441097
C61   C     C_3   0.702268 0.532095 0.921962 -0.260116
C62   C     C_3   0.748341 0.576218 0.986431 -0.306121
C63   C     C_3   0.808851 0.611612 0.937128 -0.438300
C64   C     C_3   0.390734 0.840063 0.404139 -0.263755
C65   C     C_3   0.333874 0.792314 0.362269 -0.319193
C66   C     C_3   0.278255 0.840255 0.319719 -0.430192
C67   C     C_R   0.255701 0.433128 0.509778 -0.122516
C68   C     C_3   0.609240 0.155711 0.586397 -0.264785
C69   C     C_3   0.666148 0.200953 0.631378 -0.323117
C70   C     C_3   0.721571 0.150770 0.670458 -0.423200
C71   C     C_3   0.606001 0.842427 0.596531 -0.265324
C72   C     C_3   0.660851 0.795820 0.644359 -0.317828
C73   C     C_3   0.713816 0.844844 0.690651 -0.423873
C74   C     C_3   0.389489 0.160523 0.404340 -0.262527
C75   C     C_3   0.335343 0.208735 0.357664 -0.323500
C76   C     C_3   0.280974 0.161418 0.311557 -0.423423
C77   C     C_R   0.744548 0.566864 0.499836 -0.117289
C78   C     C_R   0.815892 0.433141 0.512660 0.326247
Cu1   Cu    Cu3+1 0.500000 0.573360 0.500000 0.943797
Cu2   Cu    Cu3+1 0.500000 0.426640 0.500000 0.938293
F1    F     F_    0.433468 0.924765 0.634337 -0.578169
F2    F     F_    0.562682 0.075010 0.360786 -0.576422
F3    F     F_    0.563237 0.923855 0.362323 -0.576337
F4    F     F_    0.433019 0.075894 0.632880 -0.574662
F5    F     F_    0.849658 0.367672 0.517311 -0.625887
F6    F     F_    0.149922 0.631476 0.486623 -0.626034
F7    F     F_    0.150262 0.367416 0.517147 -0.623063
F8    F     F_    0.850291 0.632350 0.498308 -0.623983
H1    H     H_    0.401639 0.538031 0.774870 0.117841
H2    H     H_    0.064033 0.439102 0.628145 0.153526
H3    H     H_    0.061909 0.559630 0.379263 0.146442
H4    H     H_    0.937760 0.439280 0.630375 0.142901
H5    H     H_    0.413003 0.687575 0.418110 0.119444
H6    H     H_    0.589326 0.309466 0.577772 0.115845
H7    H     H_    0.586856 0.689275 0.581971 0.121585
H8    H     H_    0.410917 0.312850 0.421938 0.114490
H9    H     H_    0.715536 0.351139 0.687009 0.159862
H10   H     H_    0.760768 0.393231 0.779210 0.158732
H11   H     H_    0.731699 0.299101 0.787940 0.155715
H12   H     H_    0.606185 0.485212 0.227395 0.115605
H13   H     H_    0.654914 0.380791 0.873858 0.180018
H14   H     H_    0.609379 0.339886 0.782572 0.169154
H15   H     H_    0.619146 0.448224 0.691724 0.157267
H16   H     H_    0.675148 0.494108 0.760601 0.124582
H17   H     H_    0.258214 0.444558 0.321236 0.164441
H18   H     H_    0.248156 0.410876 0.208536 0.161774
H19   H     H_    0.272740 0.348414 0.296564 0.153292
H20   H     H_    0.371987 0.385756 0.196120 0.175467
H21   H     H_    0.384427 0.407081 0.312291 0.183540
H22   H     H_    0.360478 0.538335 0.288380 0.136696
H23   H     H_    0.345233 0.577541 0.908853 0.115783
H24   H     H_    0.323055 0.517137 0.182526 0.150670
H25   H     H_    0.244699 0.739911 0.077585 0.161327
H26   H     H_    0.314810 0.764282 0.151510 0.152799
H27   H     H_    0.304864 0.811476 0.046328 0.166887
H28   H     H_    0.399824 0.719281 0.039540 0.184233
H29   H     H_    0.330701 0.697442 0.963768 0.171851
H30   H     H_    0.284780 0.603553 0.071276 0.140356
H31   H     H_    0.348434 0.632853 0.151975 0.146224
H32   H     H_    0.840219 0.568598 0.903432 0.159380
H33   H     H_    0.790047 0.651702 0.886550 0.159243
H34   H     H_    0.673379 0.490031 0.093706 0.114999
H35   H     H_    0.841978 0.641462 0.985512 0.159675
H36   H     H_    0.717805 0.620457 0.019239 0.181730
H37   H     H_    0.769752 0.539104 0.038521 0.161849
H38   H     H_    0.731540 0.483383 0.898271 0.148636
H39   H     H_    0.691487 0.570315 0.865689 0.151848
H40   H     H_    0.253717 0.875993 0.370879 0.178185
H41   H     H_    0.300781 0.875456 0.266333 0.154767
H42   H     H_    0.238060 0.804427 0.289748 0.161835
H43   H     H_    0.356312 0.756235 0.309792 0.150835
H44   H     H_    0.309428 0.757348 0.414543 0.182599
H45   H     H_    0.717180 0.381020 0.513925 0.153960
H46   H     H_    0.365956 0.878252 0.452550 0.177016
H47   H     H_    0.414851 0.873961 0.350611 0.179178
H48   H     H_    0.699079 0.113931 0.722222 0.159855
H49   H     H_    0.745267 0.116658 0.617047 0.176470
H50   H     H_    0.762493 0.184819 0.701691 0.162929
H51   H     H_    0.690689 0.238427 0.581805 0.179524
H52   H     H_    0.643340 0.233908 0.686354 0.161237
H53   H     H_    0.585701 0.118988 0.637597 0.175544
H54   H     H_    0.633574 0.120249 0.534680 0.181659
H55   H     H_    0.740617 0.880343 0.641008 0.172878
H56   H     H_    0.282371 0.618329 0.485033 0.156270
H57   H     H_    0.688368 0.880306 0.741349 0.161867
H58   H     H_    0.752632 0.809794 0.724715 0.161574
H59   H     H_    0.635989 0.760265 0.695705 0.162344
H60   H     H_    0.688152 0.760418 0.595134 0.179614
H61   H     H_    0.632572 0.879079 0.547799 0.175158
H62   H     H_    0.580305 0.877969 0.647020 0.181463
H63   H     H_    0.305236 0.125737 0.260115 0.163106
H64   H     H_    0.253800 0.126221 0.361171 0.174981
H65   H     H_    0.242674 0.197707 0.278424 0.161388
H66   H     H_    0.309172 0.244443 0.407589 0.177133
H67   H     H_    0.282715 0.381087 0.515828 0.166584
H68   H     H_    0.360709 0.243931 0.306370 0.160139
H69   H     H_    0.413661 0.124374 0.353209 0.179196
H70   H     H_    0.362665 0.124542 0.453562 0.178874
H71   H     H_    0.717760 0.619143 0.495267 0.163144
H72   H     H_    0.935750 0.560229 0.381893 0.148278
N1    N     N_R   0.500000 0.683620 0.500000 -0.244117
N2    N     N_R   0.500000 0.316380 0.500000 -0.241947
O1    O     O_R   0.400190 0.561980 0.499990 -0.510246
O2    O     O_R   0.599810 0.438020 0.500010 -0.511564
O3    O     O_R   0.599810 0.561980 0.500010 -0.507166
O4    O     O_R   0.400190 0.438020 0.499990 -0.512049
O5    O     O_R   0.499980 0.561960 0.370260 -0.494392
O6    O     O_R   0.500020 0.438040 0.629740 -0.496015
O7    O     O_R   0.500020 0.561960 0.629740 -0.496645
O8    O     O_R   0.499980 0.438040 0.370260 -0.503948

loop_
_geom_bond_atom_site_label_1
_geom_bond_atom_site_label_2
_ccdc_geom_bond_type
C69   H51   S    
C23   C58   S    
C57   H17   S    
C21   C26   A    
C30   F2    S    
C1    C8    S    
C60   H26   S    
C50   H34   S    
Cu2   O8    S    
C3    C6    A    
C8    C56   A    
C62   H36   S    
C39   C41   A    
C53   H11   S    
C52   H14   S    
C16   H5    S    
C70   H49   S    
C7    C45   A    
C24   C26   A    
C29   C32   A    
C30   C31   A    
C18   N1    A    
C23   C49   A    
C71   H62   S    
C6    C14   S    
C20   C25   A    
C76   H64   S    
C51   H15   S    
C76   H65   S    
C58   H30   S    
C1    O1    A    
C31   F3    S    
C54   H22   S    
C36   C47   A    
C67   H67   S    
Cu2   O2    S    
C65   H43   S    
C75   H68   S    
C27   C39   S    
C59   H28   S    
C22   C25   A    
C68   H54   S    
C61   H38   S    
C40   H1    S    
C61   C62   S    
C30   C33   A    
C44   C47   A    
C7    C77   A    
C66   H41   S    
C69   H52   S    
C40   C42   A    
C57   H18   S    
C64   H47   S    
C59   C60   S    
C59   H29   S    
C55   H21   S    
C70   H48   S    
C18   H7    S    
C41   C43   A    
C60   H25   S    
C2    C6    A    
C42   C44   A    
Cu1   N1    S    
Cu2   O4    S    
C63   H33   S    
C44   C46   A    
C64   H46   S    
C7    C12   S    
C32   F4    S    
C46   C48   A    
C52   H13   S    
C34   C50   A    
C74   C75   S    
C74   H70   S    
C3    F7    S    
C51   C52   S    
C10   C14   A    
C12   O3    A    
C68   C69   S    
C17   H6    S    
C76   H63   S    
C53   H9    S    
C58   C59   S    
C72   H60   S    
C34   C61   S    
C17   C21   A    
C73   H57   S    
C19   N2    A    
C20   C64   S    
C75   C76   S    
C29   F1    S    
C62   C63   S    
C12   O2    A    
C26   C33   S    
C28   C38   S    
C16   C20   A    
C41   H12   S    
C54   H24   S    
C68   H53   S    
C61   H39   S    
Cu1   O3    S    
C37   C48   A    
C9    C11   A    
C27   O8    A    
Cu2   N2    S    
C45   C78   A    
C36   C51   S    
C77   H71   S    
C37   C54   S    
C78   F5    S    
C57   H19   S    
C25   C35   S    
C70   H50   S    
C13   C15   A    
C21   C68   S    
C16   N1    A    
C31   C35   A    
C22   C71   S    
C65   H44   S    
C52   C53   S    
C73   H55   S    
C54   C55   S    
C23   C48   A    
C74   H69   S    
C18   C22   A    
C3    C67   A    
Cu1   O1    S    
C72   C73   S    
C10   C13   A    
C62   H37   S    
C63   H35   S    
C43   C50   A    
C4    F8    S    
C53   H10   S    
C72   H59   S    
C29   C35   A    
C73   H58   S    
C45   H45   S    
C9    H72   S    
C49   H23   S    
C55   H20   S    
C64   C65   S    
Cu1   O7    S    
C55   C57   S    
C19   C24   A    
C51   H16   S    
C4    C77   A    
C13   H4    S    
C2    C56   A    
C32   C33   A    
C38   C40   A    
C63   H32   S    
C75   H66   S    
C24   C74   S    
C71   H61   S    
C1    O4    A    
C36   C38   A    
C58   H31   S    
C11   C14   A    
C66   H40   S    
C2    F6    S    
C9    C15   A    
C69   C70   S    
C43   C46   A    
C5    C15   S    
C17   N2    A    
C28   O6    A    
C42   C49   A    
Cu1   Cu2   S    
C56   H56   S    
C11   H3    S    
C28   O7    A    
C4    C5    A    
C71   C72   S    
C10   H2    S    
C8    C67   A    
C37   C39   A    
C65   C66   S    
C60   H27   S    
C34   C47   A    
Cu1   O5    S    
C5    C78   A    
Cu2   O6    S    
C19   H8    S    
C27   O5    A    
C66   H42   S    
