data_mof_unit_64794.cif
_audit_creation_date              2012-12-10T21:06:18-0500
_audit_creation_method            fapswitch 2.2
_symmetry_space_group_name_H-M    P1
_symmetry_Int_Tables_number       1
_space_group_crystal_system       triclinic
_cell_length_a                    15.072169
_cell_length_b                    15.858613
_cell_length_c                    16.882536
_cell_angle_alpha                 89.458305
_cell_angle_beta                  95.301267
_cell_angle_gamma                 90.041039
_cell_volume                      4017.88603292

loop_
_atom_site_label
_atom_site_type_symbol
_atom_type_description
_atom_site_fract_x
_atom_site_fract_y
_atom_site_fract_z
_atom_type_partial_charge
C1    C     C_R   0.499965 0.338923 0.500001 0.917420
C2    C     C_1   0.499975 0.749353 0.499236 -0.162672
C3    C     C_R   0.958005 0.442529 0.547579 -0.156634
C4    C     C_R   0.041995 0.557471 0.452421 -0.156637
C5    C     C_R   0.905035 0.499966 0.499960 0.077315
C6    C     C_R   0.094965 0.500034 0.500040 0.077316
C7    C     C_R   0.948240 0.557438 0.452381 -0.152130
C8    C     C_R   0.051760 0.442562 0.547619 -0.152129
C9    C     C_1   0.807166 0.499966 0.499960 0.065129
C10   C     C_1   0.192834 0.500033 0.500040 0.065123
C11   C     C_R   0.512106 0.501342 0.653352 0.897103
C12   C     C_R   0.500035 0.661077 0.499999 0.917420
C13   C     C_R   0.487894 0.498655 0.346648 0.897091
C14   C     C_R   0.521349 0.505055 0.738927 -0.077418
C15   C     C_R   0.478646 0.494913 0.261073 -0.077427
C16   C     C_R   0.467343 0.559080 0.779259 0.120420
C17   C     C_R   0.532654 0.440878 0.220754 0.120429
C18   C     C_R   0.473830 0.556536 0.861568 -0.177114
C19   C     C_R   0.526147 0.443381 0.138444 -0.177114
C20   C     C_R   0.533371 0.500167 0.903774 0.288429
C21   C     C_R   0.466581 0.499716 0.096223 0.288419
C22   C     C_R   0.590986 0.451241 0.863453 -0.178807
C23   C     C_R   0.500185 0.913019 0.497474 0.033325
C24   C     C_R   0.408963 0.548649 0.136535 -0.178809
C25   C     C_R   0.584974 0.453416 0.781074 -0.251412
C26   C     C_R   0.414996 0.546516 0.218914 -0.251407
C27   C     C_R   0.564809 0.958138 0.459471 0.223017
C28   C     C_R   0.435186 0.041862 0.540536 0.223045
C29   C     C_3   0.719368 0.919225 0.455561 -0.759955
C30   C     C_3   0.280603 0.080691 0.544485 -0.759965
C31   C     C_R   0.499812 0.086980 0.502535 0.033307
C32   C     C_R   0.436308 0.954269 0.537733 -0.215010
C33   C     C_R   0.563691 0.045730 0.462279 -0.215020
C34   C     C_1   0.499985 0.824116 0.498359 -0.047292
C35   C     C_1   0.500013 0.175884 0.501647 -0.047308
C36   C     C_1   0.500025 0.250647 0.500767 -0.162669
H1    H     H_    0.568262 0.402037 0.107570 0.172026
H2    H     H_    0.909417 0.602462 0.415063 0.137639
H3    H     H_    0.926836 0.397488 0.584878 0.136200
H4    H     H_    0.073164 0.602512 0.415122 0.136199
H5    H     H_    0.611779 0.858050 0.395570 0.234028
H6    H     H_    0.765540 0.888814 0.416909 0.240864
H7    H     H_    0.722641 0.884566 0.513295 0.242994
H8    H     H_    0.741529 0.985365 0.465795 0.246482
H9    H     H_    0.388176 0.141979 0.604383 0.234033
H10   H     H_    0.234440 0.111141 0.583121 0.240859
H11   H     H_    0.258471 0.014528 0.534348 0.246473
H12   H     H_    0.431721 0.597876 0.892451 0.172025
H13   H     H_    0.277278 0.115266 0.486705 0.242995
H14   H     H_    0.638061 0.409016 0.895876 0.153141
H15   H     H_    0.361871 0.590848 0.104103 0.153142
H16   H     H_    0.627796 0.412737 0.750148 0.165011
H17   H     H_    0.372169 0.587200 0.249831 0.165014
H18   H     H_    0.612093 0.081741 0.432300 0.176078
H19   H     H_    0.387911 0.918256 0.567715 0.176059
H20   H     H_    0.090583 0.397538 0.584937 0.137639
I1    I     I_    0.622017 0.351192 0.278758 -0.357115
I2    I     I_    0.378011 0.648807 0.721275 -0.357129
N1    N     N_2   0.535557 0.489796 0.986667 -0.189210
N2    N     N_2   0.464390 0.510068 0.013328 -0.189210
N3    N     N_1   0.270550 0.500020 0.500020 -0.079210
N4    N     N_1   0.729450 0.499980 0.499980 -0.079206
N5    N     N_2   0.629616 0.916894 0.417066 -0.302687
N6    N     N_2   0.370372 0.083108 0.582936 -0.302681
O1    O     O_R   0.573650 0.378020 0.500000 -0.597256
O2    O     O_R   0.426350 0.621980 0.500000 -0.597262
O3    O     O_R   0.426310 0.378020 0.499960 -0.614989
O4    O     O_R   0.573690 0.621980 0.500040 -0.614989
O5    O     O_R   0.581880 0.499230 0.616150 -0.622050
O6    O     O_R   0.418120 0.500770 0.383850 -0.622050
O7    O     O_R   0.434550 0.499230 0.616110 -0.587240
O8    O     O_R   0.565450 0.500770 0.383890 -0.587236
Zn1   Zn    Zn3+2 0.598370 0.500000 0.500020 1.001623
Zn2   Zn    Zn3+2 0.401630 0.500000 0.499980 1.001619

loop_
_geom_bond_atom_site_label_1
_geom_bond_atom_site_label_2
_ccdc_geom_bond_type
C6    C10   S    
O7    Zn2   S    
C1    O1    A    
C31   C33   A    
N4    Zn1   S    
C5    C9    S    
C1    O3    A    
C13   O8    A    
C23   C27   A    
C29   H6    S    
C19   H1    S    
C32   H19   S    
C35   C36   T    
C30   H10   S    
C22   H14   S    
C23   C34   S    
C2    C12   S    
C23   C32   A    
C2    C34   T    
C24   H15   S    
C29   N5    S    
C25   H16   S    
C3    H3    S    
N1    N2    D    
C29   H8    S    
O3    Zn2   S    
C16   I2    S    
C27   C33   A    
C20   N1    S    
O5    Zn1   S    
C12   O4    A    
C8    H20   S    
C30   N6    S    
C11   O7    A    
C27   N5    S    
C4    C7    A    
C28   N6    S    
C31   C35   S    
C4    C6    A    
C19   C21   A    
C7    H2    S    
C24   C26   A    
C18   C20   A    
C13   C15   S    
C14   C25   A    
C11   O5    A    
N3    Zn2   S    
C11   C14   S    
C14   C16   A    
C10   N3    T    
C13   O6    A    
H5    N5    S    
C9    N4    T    
O2    Zn2   S    
C26   H17   S    
C30   H11   S    
C28   C32   A    
O1    Zn1   S    
C21   N2    S    
C16   C18   A    
C3    C8    A    
C21   C24   A    
C17   I1    S    
C33   H18   S    
C5    C7    A    
O6    Zn2   S    
C15   C26   A    
C6    C8    A    
H9    N6    S    
C17   C19   A    
O4    Zn1   S    
C15   C17   A    
C12   O2    A    
C30   H13   S    
C28   C31   A    
C29   H7    S    
C4    H4    S    
C1    C36   S    
C20   C22   A    
O8    Zn1   S    
C3    C5    A    
C22   C25   A    
C18   H12   S    
