data_mof_unit_66329.cif
_audit_creation_date              2012-10-26T18:16:51-0400
_audit_creation_method            fapswitch 2.2
_symmetry_space_group_name_H-M    P1
_symmetry_Int_Tables_number       1
_space_group_crystal_system       triclinic
_cell_length_a                    44.043257
_cell_length_b                    30.374096
_cell_length_c                    30.394254
_cell_angle_alpha                 89.99991
_cell_angle_beta                  133.36984
_cell_angle_gamma                 90.002577
_cell_volume                      29557.6975641

loop_
_atom_site_label
_atom_site_type_symbol
_atom_type_description
_atom_site_fract_x
_atom_site_fract_y
_atom_site_fract_z
_atom_type_partial_charge
Br1   Br    Br    0.050990 0.233435 0.971624 -0.451316
Br2   Br    Br    0.703639 0.946957 0.784589 -0.537979
Br3   Br    Br    0.796341 0.445933 0.216077 -0.537889
Br4   Br    Br    0.203637 0.447075 0.784664 -0.538000
Br5   Br    Br    0.948911 0.233397 0.028267 -0.451776
Br6   Br    Br    0.551265 0.733414 0.972072 -0.451342
Br7   Br    Br    0.448697 0.733396 0.027885 -0.451416
Br8   Br    Br    0.202549 0.096791 0.187866 -0.533322
Br9   Br    Br    0.797493 0.097424 0.806925 -0.532389
Br10  Br    Br    0.702529 0.597304 0.191908 -0.532757
Br11  Br    Br    0.297490 0.597438 0.806782 -0.532475
Br12  Br    Br    0.296305 0.942551 0.218454 -0.537423
C1    C     C_R   0.499839 0.000019 0.585008 0.552928
C2    C     C_3   0.725785 0.997769 0.774707 0.059919
C3    C     C_R   0.513086 0.297487 0.050453 -0.117456
C4    C     C_R   0.987244 0.843368 0.949735 -0.124548
C5    C     C_R   0.012762 0.843369 0.050270 -0.124511
C6    C     C_R   0.487242 0.343368 0.949734 -0.124596
C7    C     C_R   0.512763 0.343369 0.050270 -0.124585
C8    C     C_R   0.000002 0.866654 0.000002 0.018596
C9    C     C_R   0.500002 0.366654 0.000001 0.018580
C10   C     C_R   0.000005 0.774303 0.000004 0.030711
C11   C     C_R   0.500005 0.274303 0.000003 0.030701
C12   C     C_R   0.535831 0.202756 0.048572 -0.120312
C13   C     C_3   0.774214 0.497151 0.225333 0.059899
C14   C     C_R   0.464178 0.202753 0.951433 -0.120339
C15   C     C_R   0.035830 0.702756 0.048573 -0.120255
C16   C     C_R   0.964178 0.702753 0.951433 -0.120332
C17   C     C_R   0.535952 0.156877 0.048353 -0.134605
C18   C     C_R   0.464055 0.156874 0.951650 -0.134622
C19   C     C_R   0.035952 0.656877 0.048355 -0.134582
C20   C     C_R   0.964055 0.656874 0.951650 -0.134606
C21   C     C_R   0.500003 0.133601 0.000002 0.006733
C22   C     C_R   0.000003 0.633601 0.000002 0.006717
C23   C     C_3   0.274864 0.045572 0.292566 0.187559
C24   C     C_3   0.225784 0.497840 0.774709 0.059928
C25   C     C_3   0.725166 0.044514 0.705011 0.187386
C26   C     C_3   0.774847 0.544761 0.294451 0.187443
C27   C     C_3   0.225166 0.544484 0.704945 0.187394
C28   C     C_R   0.500005 0.225937 0.000003 0.030371
C29   C     C_R   0.000005 0.725937 0.000003 0.030360
C30   C     C_R   0.022377 0.202834 0.989813 0.145078
C31   C     C_R   0.977551 0.202818 0.010112 0.145098
C32   C     C_R   0.522501 0.702823 0.990014 0.145174
C33   C     C_R   0.477472 0.702816 0.009957 0.145177
C34   C     C_R   0.023644 0.156753 0.991977 0.233289
C35   C     C_1   0.162493 0.001047 0.161915 -0.027021
C36   C     C_R   0.976288 0.156736 0.007936 0.233367
C37   C     C_R   0.523765 0.656741 0.992187 0.233404
C38   C     C_R   0.476212 0.656733 0.007784 0.233425
C39   C     C_R   0.999978 0.133539 0.999973 -0.040565
C40   C     C_R   0.499993 0.633534 0.999991 -0.040388
C41   C     C_R   0.999969 0.225932 0.999976 -0.060394
C42   C     C_R   0.499987 0.725927 0.999989 -0.060343
C43   C     C_R   0.463468 0.797247 0.953069 -0.058890
C44   C     C_R   0.536513 0.797246 0.046921 -0.058954
C45   C     C_R   0.963432 0.297251 0.953134 -0.058844
C46   C     C_1   0.837508 0.001053 0.838077 -0.027048
C47   C     C_R   0.036525 0.297244 0.046852 -0.059065
C48   C     C_R   0.463377 0.843101 0.953231 -0.111267
C49   C     C_R   0.536611 0.843101 0.046763 -0.111275
C50   C     C_R   0.963348 0.343106 0.953297 -0.111283
C51   C     C_R   0.036627 0.343098 0.046697 -0.111321
C52   C     C_R   0.499996 0.866378 0.999998 0.017340
C53   C     C_R   0.999992 0.366378 0.999998 0.017343
C54   C     C_R   0.499989 0.774215 0.999994 0.095177
C55   C     C_R   0.999974 0.274218 0.999991 0.095252
C56   C     C_3   0.225824 0.046162 0.242889 0.100052
C57   C     C_1   0.662492 0.501052 0.161923 -0.027066
C58   C     C_3   0.774206 0.045139 0.754683 0.100230
C59   C     C_3   0.725807 0.545380 0.244779 0.100183
C60   C     C_3   0.274205 0.545111 0.754617 0.100220
C61   C     C_1   0.124809 0.000608 0.124480 -0.004076
C62   C     C_1   0.875192 0.000607 0.875521 -0.004023
C63   C     C_1   0.624809 0.500608 0.124480 -0.004077
C64   C     C_1   0.375192 0.500609 0.875521 -0.004076
C65   C     C_3   0.291308 0.000958 0.290274 0.069421
C66   C     C_3   0.708695 0.001007 0.709708 0.069393
C67   C     C_3   0.791306 0.500990 0.290290 0.069400
C68   C     C_1   0.337508 0.501055 0.838076 -0.027080
C69   C     C_3   0.208694 0.501008 0.709705 0.069399
C70   C     C_3   0.225378 0.964017 0.254025 -0.274760
C71   C     C_3   0.774609 0.962480 0.748027 -0.274830
C72   C     C_3   0.725383 0.462816 0.252443 -0.274807
C73   C     C_3   0.274610 0.462442 0.748082 -0.274829
C74   C     C_3   0.208620 0.001657 0.207716 0.013485
C75   C     C_3   0.791383 0.001684 0.792243 0.013348
C76   C     C_3   0.708618 0.501676 0.207750 0.013387
C77   C     C_3   0.291382 0.501686 0.792240 0.013355
C78   C     C_3   0.462018 0.097248 0.691916 -0.127516
C79   C     C_1   0.337475 0.000355 0.336895 0.011165
C80   C     C_3   0.538006 0.097273 0.308150 -0.127555
C81   C     C_3   0.962045 0.597259 0.691945 -0.127499
C82   C     C_3   0.037955 0.597270 0.308063 -0.127506
C83   C     C_3   0.559094 0.083812 0.929844 -0.073120
C84   C     C_3   0.440847 0.083761 0.070114 -0.073139
C85   C     C_3   0.059115 0.583796 0.929861 -0.073065
C86   C     C_3   0.940899 0.583800 0.070153 -0.073117
C87   C     C_3   0.598192 0.001539 0.865759 -0.076859
C88   C     C_3   0.401819 0.001459 0.134264 -0.077341
C89   C     C_3   0.098189 0.501512 0.865753 -0.076816
C90   C     C_1   0.662527 0.000385 0.663106 0.011338
C91   C     C_3   0.901816 0.501504 0.134259 -0.076967
C92   C     C_3   0.086885 0.126050 0.041182 -0.035154
C93   C     C_3   0.913028 0.126016 0.958598 -0.035510
C94   C     C_3   0.587056 0.626031 0.041712 -0.035474
C95   C     C_3   0.412918 0.626007 0.958224 -0.035556
C96   C     C_3   0.306785 0.114601 0.326738 -0.080287
C97   C     C_3   0.693305 0.113326 0.667051 -0.080546
C98   C     C_3   0.806738 0.613636 0.331564 -0.080455
C99   C     C_3   0.193303 0.613285 0.666883 -0.080514
C100  C     C_1   0.837474 0.500371 0.336896 0.011287
C101  C     C_R   0.500163 0.000019 0.414993 0.552706
C102  C     C_1   0.162527 0.500385 0.663104 0.011336
C103  C     C_1   0.375162 0.000082 0.374906 0.009973
C104  C     C_1   0.624839 0.000096 0.625099 0.010079
C105  C     C_1   0.875161 0.500087 0.374903 0.010048
C106  C     C_1   0.124839 0.500096 0.625098 0.010077
C107  C     C_R   0.500386 0.040910 0.702923 0.320698
C108  C     C_R   0.499636 0.040910 0.297096 0.320627
C109  C     C_R   0.000396 0.540910 0.702933 0.320698
C110  C     C_R   0.999605 0.540911 0.297068 0.320673
C111  C     C_R   0.501155 0.040305 0.657726 -0.105745
C112  C     C_R   0.999838 0.500019 0.585007 0.552894
C113  C     C_R   0.498864 0.040305 0.342292 -0.106017
C114  C     C_R   0.001165 0.540305 0.657735 -0.105756
C115  C     C_R   0.998835 0.540305 0.342265 -0.105830
C116  C     C_R   0.499361 0.000243 0.632930 -0.030889
C117  C     C_R   0.500644 0.000243 0.367074 -0.031068
C118  C     C_R   0.999360 0.500243 0.632928 -0.030906
C119  C     C_R   0.000641 0.500244 0.367072 -0.030949
C120  C     C_R   0.496958 0.960588 0.654131 -0.142483
C121  C     C_R   0.503037 0.960588 0.345864 -0.142664
C122  C     C_R   0.996943 0.460589 0.654116 -0.142553
C123  C     C_R   0.000162 0.500019 0.414993 0.552834
C124  C     C_R   0.003059 0.460590 0.345886 -0.142617
C125  C     C_R   0.496801 0.960958 0.699800 -0.180730
C126  C     C_R   0.503197 0.960957 0.300198 -0.180846
C127  C     C_R   0.996786 0.460959 0.699784 -0.180762
C128  C     C_R   0.003216 0.460960 0.300218 -0.180816
C129  C     C_R   0.420013 0.000005 0.420011 0.554153
C130  C     C_R   0.579987 0.000008 0.579992 0.554239
C131  C     C_R   0.920013 0.500006 0.420009 0.554218
C132  C     C_R   0.079987 0.500008 0.579992 0.554241
C133  C     C_R   0.499132 0.000902 0.725004 0.051034
C134  C     C_3   0.225640 0.994104 0.177468 -0.179506
C135  C     C_R   0.500880 0.000901 0.275008 0.051096
C136  C     C_R   0.999129 0.500903 0.725000 0.051027
C137  C     C_R   0.000872 0.500904 0.275001 0.051034
C138  C     C_R   0.466533 0.983056 0.764211 -0.201485
C139  C     C_R   0.533487 0.983083 0.235807 -0.201474
C140  C     C_R   0.966526 0.483066 0.764205 -0.201493
C141  C     C_R   0.033472 0.483067 0.235794 -0.201518
C142  C     C_R   0.466600 0.983353 0.810040 -0.192496
C143  C     C_R   0.533416 0.983379 0.189974 -0.192509
C144  C     C_R   0.966595 0.483362 0.810035 -0.192481
C145  C     C_3   0.774352 0.996742 0.822823 -0.179654
C146  C     C_R   0.033404 0.483363 0.189964 -0.192515
C147  C     C_R   0.500448 0.001267 0.866893 -0.023513
C148  C     C_R   0.499554 0.001265 0.133109 -0.023516
C149  C     C_R   0.000448 0.501267 0.866893 -0.023515
C150  C     C_R   0.999553 0.501268 0.133108 -0.023515
C151  C     C_R   0.534289 0.019848 0.877201 0.266840
C152  C     C_R   0.465703 0.019817 0.122796 0.266845
C153  C     C_R   0.034293 0.519838 0.877203 0.266824
C154  C     C_R   0.965711 0.519841 0.122799 0.266842
C155  C     C_R   0.534902 0.017915 0.831658 0.323800
C156  C     C_3   0.725646 0.496139 0.177232 -0.179606
C157  C     C_R   0.465097 0.017887 0.168345 0.323863
C158  C     C_R   0.034904 0.517906 0.831659 0.323797
C159  C     C_R   0.965098 0.517907 0.168343 0.323821
C160  C     C_R   0.500320 0.000570 0.774479 0.007834
C161  C     C_R   0.499690 0.000570 0.225533 0.007937
C162  C     C_R   0.000318 0.500571 0.774476 0.007833
C163  C     C_R   0.999683 0.500572 0.225525 0.007843
C164  C     C_R   0.000000 0.915004 0.000000 0.539768
C165  C     C_R   0.500000 0.415004 0.000000 0.539718
C166  C     C_R   0.079971 0.000218 0.079889 0.539159
C167  C     C_3   0.274352 0.496812 0.822826 -0.179643
C168  C     C_R   0.920030 0.000215 0.920111 0.539224
C169  C     C_R   0.579970 0.500216 0.079889 0.539202
C170  C     C_R   0.420030 0.500216 0.920111 0.539211
C171  C     C_R   0.999993 0.085191 0.999992 0.570195
C172  C     C_R   0.499998 0.585190 0.999998 0.570375
C173  C     C_3   0.273797 0.963442 0.302244 -0.268547
C174  C     C_3   0.726191 0.961916 0.699846 -0.268493
C175  C     C_3   0.773802 0.462247 0.300634 -0.268506
C176  C     C_3   0.226191 0.461877 0.699901 -0.268502
C177  C     C_R   0.500001 0.085273 0.000001 0.531136
C178  C     C_3   0.274208 0.995077 0.225520 0.059819
C179  C     C_R   0.000001 0.585273 0.000001 0.531141
C180  C     C_R   0.500121 0.000450 0.914898 0.564987
C181  C     C_R   0.499879 0.000450 0.085103 0.564978
C182  C     C_R   0.000121 0.500450 0.914898 0.564995
C183  C     C_R   0.999879 0.500450 0.085102 0.564983
C184  C     C_R   0.499999 0.914699 0.999999 0.549172
C185  C     C_R   0.999998 0.414699 1.000000 0.549184
C186  C     C_R   0.986924 0.797485 0.949554 -0.117400
C187  C     C_R   0.013085 0.797487 0.050453 -0.117396
C188  C     C_R   0.486923 0.297485 0.949553 -0.117459
Cu1   Cu    Cu3+1 0.500000 0.955930 0.500000 0.982289
Cu2   Cu    Cu3+1 0.541320 0.999980 0.041310 0.970621
Cu3   Cu    Cu3+1 0.958680 0.499980 0.958690 0.970592
Cu4   Cu    Cu3+1 0.041320 0.499980 0.041310 0.970569
Cu5   Cu    Cu3+1 0.000000 0.455930 0.500000 0.981386
Cu6   Cu    Cu3+1 0.500000 0.044060 0.500000 0.952108
Cu7   Cu    Cu3+1 0.000000 0.544060 0.500000 0.952916
Cu8   Cu    Cu3+1 0.000000 0.000140 0.044060 0.992637
Cu9   Cu    Cu3+1 0.000000 0.000140 0.955940 0.993737
Cu10  Cu    Cu3+1 0.500000 0.500140 0.044060 0.993115
Cu11  Cu    Cu3+1 0.500000 0.500140 0.955940 0.993377
Cu12  Cu    Cu3+1 0.458680 0.999980 0.958690 0.970591
H1    H     H_    0.213825 0.968336 0.276799 0.119917
H2    H     H_    0.786467 0.930868 0.773520 0.151032
H3    H     H_    0.055927 0.601101 0.894574 0.155763
H4    H     H_    0.085710 0.598958 0.974142 0.147273
H5    H     H_    0.969401 0.588907 0.078146 0.098724
H6    H     H_    0.944092 0.601105 0.105444 0.155724
H7    H     H_    0.914307 0.598966 0.025875 0.147186
H8    H     H_    0.610199 0.989123 0.909762 0.148515
H9    H     H_    0.625090 0.015258 0.874058 0.162882
H10   H     H_    0.585154 0.973922 0.833001 0.113608
H11   H     H_    0.414881 0.973840 0.167024 0.113346
H12   H     H_    0.389803 0.989051 0.090252 0.148632
H13   H     H_    0.713520 0.431038 0.227338 0.151017
H14   H     H_    0.374925 0.015150 0.125993 0.162248
H15   H     H_    0.110193 0.489092 0.909753 0.148505
H16   H     H_    0.125090 0.515223 0.874054 0.162930
H17   H     H_    0.085143 0.473899 0.832988 0.113605
H18   H     H_    0.914867 0.473895 0.167028 0.113541
H19   H     H_    0.889807 0.489082 0.090256 0.148506
H20   H     H_    0.874917 0.515212 0.125964 0.162742
H21   H     H_    0.105573 0.108256 0.034715 0.180761
H22   H     H_    0.085227 0.104709 0.069241 0.108406
H23   H     H_    0.103612 0.157195 0.065703 0.166119
H24   H     H_    0.286468 0.430851 0.773620 0.151020
H25   H     H_    0.894302 0.108205 0.964985 0.178186
H26   H     H_    0.914732 0.104691 0.930576 0.109562
H27   H     H_    0.896312 0.157162 0.934074 0.166475
H28   H     H_    0.605838 0.608227 0.035424 0.179022
H29   H     H_    0.585285 0.604701 0.069659 0.109158
H30   H     H_    0.603754 0.657178 0.066265 0.166448
H31   H     H_    0.394126 0.608197 0.964490 0.178385
H32   H     H_    0.414704 0.604680 0.930291 0.109436
H33   H     H_    0.396220 0.657151 0.933665 0.166532
H34   H     H_    0.334301 0.103047 0.373246 0.097662
H35   H     H_    0.213486 0.019735 0.142603 0.167134
H36   H     H_    0.281921 0.126792 0.324501 0.140187
H37   H     H_    0.317006 0.142608 0.316116 0.165953
H38   H     H_    0.665795 0.100755 0.621189 0.097197
H39   H     H_    0.718200 0.124230 0.668708 0.140176
H40   H     H_    0.683091 0.142450 0.676089 0.165706
H41   H     H_    0.834248 0.601287 0.377573 0.097312
H42   H     H_    0.781856 0.624839 0.329792 0.140171
H43   H     H_    0.816959 0.642513 0.322165 0.165793
H44   H     H_    0.165794 0.600685 0.621039 0.097190
H45   H     H_    0.218198 0.624156 0.668524 0.140181
H46   H     H_    0.786527 0.023570 0.856274 0.166669
H47   H     H_    0.183087 0.642436 0.675877 0.165743
H48   H     H_    0.713480 0.522704 0.143459 0.166804
H49   H     H_    0.286526 0.523672 0.856239 0.166693
H50   H     H_    0.503068 0.071311 0.642141 0.146268
H51   H     H_    0.496958 0.071312 0.357883 0.146149
H52   H     H_    0.003088 0.571310 0.642161 0.146298
H53   H     H_    0.786161 0.964911 0.725065 0.119841
H54   H     H_    0.996911 0.571310 0.357838 0.146269
H55   H     H_    0.495401 0.929249 0.635676 0.152569
H56   H     H_    0.504582 0.929249 0.364307 0.152597
H57   H     H_    0.995377 0.429250 0.635652 0.152489
H58   H     H_    0.004626 0.429252 0.364351 0.152471
H59   H     H_    0.495509 0.930029 0.716217 0.129127
H60   H     H_    0.504481 0.930028 0.283772 0.129104
H61   H     H_    0.995483 0.430030 0.716191 0.129106
H62   H     H_    0.004519 0.430032 0.283811 0.129050
H63   H     H_    0.439925 0.969433 0.720419 0.130851
H64   H     H_    0.713831 0.465676 0.275371 0.119849
H65   H     H_    0.560104 0.969481 0.279605 0.130787
H66   H     H_    0.939915 0.469450 0.720411 0.130811
H67   H     H_    0.060083 0.469452 0.279587 0.130754
H68   H     H_    0.440255 0.969212 0.801156 0.150666
H69   H     H_    0.559768 0.969260 0.198863 0.150659
H70   H     H_    0.940247 0.469228 0.801149 0.150675
H71   H     H_    0.059751 0.469228 0.198849 0.150621
H72   H     H_    0.285336 0.967324 0.348053 0.101137
H73   H     H_    0.714650 0.963888 0.653873 0.101316
H74   H     H_    0.785341 0.464655 0.346579 0.101266
H75   H     H_    0.286161 0.464824 0.725116 0.119814
H76   H     H_    0.214651 0.463799 0.653925 0.101294
H77   H     H_    0.976955 0.780046 0.910371 0.111503
H78   H     H_    0.023055 0.780049 0.089636 0.111503
H79   H     H_    0.476953 0.280046 0.910370 0.111463
H80   H     H_    0.523056 0.280049 0.089636 0.111473
H81   H     H_    0.977127 0.860600 0.910348 0.130878
H82   H     H_    0.022878 0.860604 0.089655 0.130891
H83   H     H_    0.477125 0.360601 0.910347 0.130853
H84   H     H_    0.522879 0.360603 0.089656 0.130862
H85   H     H_    0.563833 0.220194 0.086262 0.113286
H86   H     H_    0.285090 0.930891 0.301707 0.186791
H87   H     H_    0.436176 0.220189 0.913743 0.113228
H88   H     H_    0.063833 0.720194 0.086264 0.113422
H89   H     H_    0.936177 0.720189 0.913743 0.113247
H90   H     H_    0.564013 0.139639 0.086238 0.130238
H91   H     H_    0.435994 0.139634 0.913765 0.130210
H92   H     H_    0.064012 0.639639 0.086240 0.130288
H93   H     H_    0.935994 0.639634 0.913764 0.130229
H94   H     H_    0.435122 0.779649 0.916509 0.137527
H95   H     H_    0.564857 0.779648 0.083479 0.137399
H96   H     H_    0.935066 0.279656 0.916626 0.137529
H97   H     H_    0.714890 0.930071 0.702163 0.186904
H98   H     H_    0.064886 0.279642 0.083354 0.137062
H99   H     H_    0.434806 0.860302 0.916536 0.134068
H100  H     H_    0.565184 0.860301 0.083460 0.134035
H101  H     H_    0.934760 0.360307 0.916654 0.134098
H102  H     H_    0.065221 0.360294 0.083342 0.133967
H103  H     H_    0.284816 0.046911 0.337790 0.059653
H104  H     H_    0.715232 0.043894 0.659779 0.059636
H105  H     H_    0.784785 0.544586 0.339691 0.059629
H106  H     H_    0.215232 0.543811 0.659714 0.059625
H107  H     H_    0.214602 0.050213 0.266154 0.100787
H108  H     H_    0.785098 0.430233 0.298716 0.186869
H109  H     H_    0.785446 0.047297 0.731272 0.101146
H110  H     H_    0.714572 0.547968 0.268168 0.101052
H111  H     H_    0.285446 0.547220 0.731204 0.101136
H112  H     H_    0.284668 0.023341 0.215422 0.199635
H113  H     H_    0.715347 0.027138 0.783228 0.199807
H114  H     H_    0.784661 0.526275 0.216453 0.199778
H115  H     H_    0.215346 0.527236 0.783186 0.199835
H116  H     H_    0.213975 0.961973 0.153305 0.164012
H117  H     H_    0.785988 0.965336 0.848696 0.164182
H118  H     H_    0.713999 0.464562 0.151738 0.164147
H119  H     H_    0.214891 0.430052 0.702264 0.186886
H120  H     H_    0.285987 0.465428 0.848744 0.164190
H121  H     H_    0.442194 0.074380 0.691790 0.111586
H122  H     H_    0.447218 0.104122 0.644764 0.106144
H123  H     H_    0.463789 0.128814 0.711933 0.147770
H124  H     H_    0.557868 0.074411 0.308353 0.111573
H125  H     H_    0.552760 0.104177 0.355274 0.106082
H126  H     H_    0.536241 0.128829 0.288121 0.147776
H127  H     H_    0.942218 0.574399 0.691820 0.111558
H128  H     H_    0.947243 0.604133 0.644792 0.106092
H129  H     H_    0.963826 0.628827 0.711968 0.147823
H130  H     H_    0.213512 0.931705 0.230273 0.150973
H131  H     H_    0.057788 0.574415 0.308198 0.111566
H132  H     H_    0.052750 0.604150 0.355211 0.106079
H133  H     H_    0.036173 0.628837 0.288037 0.147822
H134  H     H_    0.530592 0.088912 0.921850 0.098713
H135  H     H_    0.555900 0.101117 0.894553 0.155726
H136  H     H_    0.585685 0.098982 0.974121 0.147204
H137  H     H_    0.469347 0.088893 0.078109 0.098747
H138  H     H_    0.444025 0.101065 0.105393 0.155740
H139  H     H_    0.414245 0.098907 0.025827 0.147165
H140  H     H_    0.030614 0.588905 0.921867 0.098712
O1    O     O_R   0.500000 0.962790 0.564270 -0.506181
O2    O     O_R   0.465110 0.999980 0.029370 -0.453692
O3    O     O_R   0.034890 0.499980 0.970630 -0.453697
O4    O     O_R   0.965110 0.499980 0.029370 -0.453705
O5    O     O_R   0.465110 0.935690 0.965100 -0.512299
O6    O     O_R   0.534890 0.935690 0.034900 -0.512306
O7    O     O_R   0.965110 0.435690 0.965100 -0.512332
O8    O     O_R   0.034890 0.435690 0.034900 -0.512348
O9    O     O_R   0.499990 0.037210 0.564290 -0.515490
O10   O     O_R   0.500010 0.037210 0.435710 -0.515613
O11   O     O_R   0.999990 0.537210 0.564290 -0.515478
O12   O     O_R   0.500000 0.962790 0.435730 -0.506171
O13   O     O_R   0.000010 0.537210 0.435710 -0.515510
O14   O     O_R   0.439720 0.962790 0.439720 -0.493986
O15   O     O_R   0.560280 0.962790 0.560280 -0.494944
O16   O     O_R   0.939720 0.462790 0.439720 -0.494728
O17   O     O_R   0.060280 0.462790 0.560280 -0.494978
O18   O     O_R   0.439710 0.037210 0.439740 -0.505195
O19   O     O_R   0.560290 0.037210 0.560260 -0.504329
O20   O     O_R   0.939710 0.537210 0.439740 -0.504533
O21   O     O_R   0.060290 0.537210 0.560260 -0.504304
O22   O     O_R   0.000000 0.935850 0.037210 -0.514883
O23   O     O_R   0.000000 0.462790 0.564270 -0.506246
O24   O     O_R   0.000000 0.935850 0.962790 -0.514883
O25   O     O_R   0.500000 0.435850 0.037210 -0.514917
O26   O     O_R   0.500000 0.435850 0.962790 -0.514919
O27   O     O_R   0.060280 0.000140 0.097490 -0.509245
O28   O     O_R   0.939720 0.000140 0.902510 -0.508702
O29   O     O_R   0.560280 0.500140 0.097490 -0.508881
O30   O     O_R   0.439720 0.500140 0.902510 -0.508743
O31   O     O_R   0.060280 0.000120 0.023100 -0.498462
O32   O     O_R   0.939720 0.000120 0.976900 -0.498960
O33   O     O_R   0.560280 0.500120 0.023100 -0.498781
O34   O     O_R   0.000000 0.462790 0.435730 -0.506251
O35   O     O_R   0.439720 0.500120 0.976900 -0.498900
O36   O     O_R   0.999990 0.064430 0.037200 -0.468096
O37   O     O_R   0.000010 0.064430 0.962800 -0.467734
O38   O     O_R   0.499990 0.564430 0.037200 -0.467991
O39   O     O_R   0.500010 0.564430 0.962800 -0.467898
O40   O     O_R   0.465110 0.064280 0.965140 -0.515199
O41   O     O_R   0.534890 0.064280 0.034860 -0.515169
O42   O     O_R   0.965110 0.564280 0.965140 -0.515180
O43   O     O_R   0.034890 0.564280 0.034860 -0.515159
O44   O     O_3   0.502822 0.080634 0.727355 -0.528153
O45   O     O_R   0.465110 0.999980 0.900850 -0.526293
O46   O     O_3   0.497205 0.080632 0.272665 -0.528268
O47   O     O_3   0.002844 0.580634 0.727376 -0.528113
O48   O     O_3   0.997157 0.580634 0.272625 -0.528145
O49   O     O_3   0.567630 0.038655 0.932354 -0.538675
O50   O     O_3   0.432347 0.038595 0.067631 -0.538699
O51   O     O_3   0.067639 0.538637 0.932361 -0.538677
O52   O     O_3   0.932367 0.538642 0.067645 -0.538665
O53   O     O_3   0.568479 0.035229 0.842290 -0.517300
O54   O     O_3   0.431511 0.035173 0.157711 -0.517338
O55   O     O_3   0.068486 0.535210 0.842294 -0.517273
O56   O     O_R   0.534890 0.999980 0.099150 -0.526296
O57   O     O_3   0.931517 0.535208 0.157707 -0.517268
O58   O     O_3   0.046852 0.134430 0.983814 -0.510363
O59   O     O_3   0.953036 0.134397 0.016011 -0.510558
O60   O     O_3   0.547089 0.634409 0.984240 -0.510489
O61   O     O_3   0.452877 0.634394 0.015707 -0.510526
O62   O     O_3   0.291707 0.080815 0.284125 -0.525743
O63   O     O_3   0.708324 0.081107 0.711448 -0.525737
O64   O     O_3   0.791693 0.581056 0.287554 -0.525721
O65   O     O_3   0.208322 0.581110 0.711327 -0.525720
O66   O     O_R   0.965110 0.499980 0.900850 -0.526280
O67   O     O_R   0.034890 0.499980 0.099150 -0.526293
O68   O     O_R   0.534890 0.999980 0.970630 -0.453694

loop_
_geom_bond_atom_site_label_1
_geom_bond_atom_site_label_2
_ccdc_geom_bond_type
C6    H83   S    
Br4   C24   S    
C6    C9    A    
C178  H112  S    
C124  C128  A    
Cu12  O2    S    
C51   C53   A    
C152  C157  A    
C126  H60   S    
C122  H57   S    
C168  O28   A    
C65   C178  S    
Cu3   O4    S    
C93   O59   S    
C156  H118  S    
C94   O60   S    
C72   H13   S    
C96   H34   S    
C3    H80   S    
C99   H44   S    
C21   C177  S    
C84   H137  S    
C92   H23   S    
C138  C160  A    
C140  C144  A    
C76   C156  S    
Cu8   O27   S    
C101  O12   A    
C38   C40   A    
Cu1   Cu6   S    
C66   C174  S    
C139  C143  A    
C84   O50   S    
Cu6   O10   S    
C132  O17   A    
C25   O63   S    
C91   H18   S    
C9    C165  S    
Br5   C31   S    
C23   O62   S    
C26   O64   S    
C164  O24   A    
Br6   C32   S    
C95   H31   S    
C118  C122  A    
C24   C167  S    
C179  O42   A    
C20   H93   S    
C70   C173  S    
C15   C19   A    
C35   C74   S    
C72   C76   S    
C10   C187  A    
C71   H53   S    
Br9   C58   S    
Br11  C60   S    
Cu12  O40   S    
C13   H114  S    
C120  C125  A    
C134  H35   S    
C136  C162  S    
C137  C163  S    
C20   C22   A    
C155  O53   S    
C82   H132  S    
C4    C8    A    
C112  C118  S    
Cu3   O7    S    
C177  O41   A    
C129  O14   A    
C57   C76   S    
Cu12  O45   S    
C104  C130  S    
C117  C121  A    
Cu5   O34   S    
C72   H64   S    
C101  O10   A    
C165  O26   A    
C94   H29   S    
C81   H129  S    
C148  C152  A    
C4    C186  A    
C184  O5    A    
C158  C162  A    
C96   H36   S    
C97   H39   S    
Cu1   O12   S    
Cu8   O32   S    
C159  O57   S    
C47   C51   A    
C147  C180  S    
C91   O57   S    
C40   C172  S    
C177  O40   A    
Cu10  O29   S    
Cu8   O36   S    
C107  C111  A    
C80   O46   S    
C25   C66   S    
C141  C163  A    
C39   C171  S    
C81   O47   S    
C141  H67   S    
C89   H15   S    
C84   H139  S    
C25   C58   S    
C81   H128  S    
C167  H49   S    
C169  O29   A    
C33   C38   A    
C98   H42   S    
C44   C54   A    
C34   C39   A    
C188  H79   S    
C14   H87   S    
C5    C187  A    
C38   O61   S    
Br2   C2    S    
C173  H72   S    
C115  C119  A    
C16   H89   S    
Cu11  O30   S    
C59   C76   S    
C113  C117  A    
C108  O46   S    
C87   H8    S    
C182  O66   A    
C1    O9    A    
C93   H25   S    
C72   C175  S    
C70   H130  S    
C112  O11   A    
C149  C153  A    
C83   H135  S    
C17   C21   A    
C151  C155  A    
C125  H59   S    
C183  O4    A    
C7    C9    A    
C30   C41   A    
C53   C185  S    
C186  H77   S    
C2    C66   S    
C173  H86   S    
C141  C146  A    
C27   H106  S    
C157  O54   S    
C47   C55   A    
C171  O37   A    
C85   H4    S    
C69   C102  S    
C17   H90   S    
C92   H22   S    
C168  O32   A    
C133  C160  S    
Cu1   O14   S    
C153  O51   S    
C170  O30   A    
C154  O52   S    
C86   O52   S    
C34   O58   S    
C58   C75   S    
C152  O50   S    
Cu5   Cu7   S    
C13   C156  S    
C91   H19   S    
C127  C136  A    
C119  C124  A    
C122  C127  A    
C88   H11   S    
C92   O58   S    
C179  O43   A    
C11   C188  A    
C75   C145  S    
C143  H69   S    
C70   H1    S    
C109  O47   S    
C37   O60   S    
C129  O18   A    
C99   O65   S    
C110  O48   S    
C24   C69   S    
C112  O23   A    
C93   H27   S    
C19   C22   A    
Cu9   O31   S    
C88   H14   S    
C80   H125  S    
Cu6   O18   S    
C58   H109  S    
C61   C166  S    
C144  C149  A    
C14   C18   A    
C6    C188  A    
Cu8   O22   S    
C185  O8    A    
C96   O62   S    
C78   H123  S    
C71   H2    S    
C167  H120  S    
C46   C62   T    
C171  O36   A    
Cu2   O41   S    
C64   C68   T    
C44   H95   S    
Br8   C56   S    
C42   C54   S    
C27   O65   S    
C24   H115  S    
C26   H105  S    
C165  O25   A    
Cu7   O11   S    
C142  C147  A    
Br10  C59   S    
C120  H55   S    
C144  H70   S    
C12   H85   S    
C8    C164  S    
C73   C176  S    
Cu3   O66   S    
C52   C184  S    
C84   H138  S    
C41   C55   S    
C87   H10   S    
C32   C42   A    
C18   H91   S    
C151  O49   S    
C185  O7    A    
C157  C161  A    
C127  H61   S    
C88   O54   S    
C86   H7    S    
C131  O16   A    
C89   O55   S    
C148  C181  S    
C71   C75   S    
C87   H9    S    
C66   C90   S    
C176  H119  S    
Cu11  O39   S    
C85   H140  S    
C3    C7    A    
Cu2   O56   S    
C67   C100  S    
C174  H97   S    
Cu7   O21   S    
C125  C133  A    
C115  H54   S    
Cu11  O26   S    
C100  C105  T    
C175  H74   S    
C10   C29   S    
C26   C67   S    
C114  C118  A    
C111  H50   S    
C11   C28   S    
C16   C29   A    
C5    C8    A    
C56   C74   S    
C30   C34   A    
C68   C77   S    
C12   C17   A    
C150  C154  A    
C31   C41   A    
C82   H133  S    
C176  H76   S    
Cu8   Cu9   S    
C59   H110  S    
Cu4   O8    S    
C71   C174  S    
C78   H121  S    
C69   C176  S    
C50   C53   A    
C82   O48   S    
C60   H111  S    
Cu10  O35   S    
C121  C126  A    
C94   H28   S    
C43   C48   A    
Cu9   O24   S    
C94   H30   S    
Cu6   O9    S    
C74   C134  S    
C99   H47   S    
C184  O6    A    
C181  O2    A    
C97   H38   S    
C25   H104  S    
C145  H117  S    
C2    C145  S    
C130  O19   A    
Br3   C13   S    
C172  O39   A    
C103  C129  S    
C35   C61   T    
C73   C77   S    
C49   H100  S    
C70   C74   S    
C23   C65   S    
Cu3   O42   S    
C81   H127  S    
C45   H96   S    
C110  C137  A    
Cu9   O37   S    
C16   C20   A    
C98   H43   S    
Cu2   O6    S    
C37   C40   A    
C113  H51   S    
C181  O56   A    
C109  C136  A    
C114  H52   S    
Cu7   O20   S    
C138  H63   S    
C87   O53   S    
C67   C175  S    
C80   H124  S    
C107  O44   S    
C146  H71   S    
C134  H116  S    
C95   H32   S    
Cu9   O28   S    
C43   C54   A    
C153  C158  A    
C108  C113  A    
C15   H88   S    
C10   C186  A    
Cu2   Cu12  S    
C174  H73   S    
C47   H98   S    
C135  C161  S    
C155  C160  A    
C107  C133  A    
C106  C132  S    
C96   H37   S    
C180  O68   A    
C142  H68   S    
C156  H48   S    
C82   H131  S    
C50   H101  S    
C95   O61   S    
C79   C103  T    
C57   C63   T    
Br1   C30   S    
C108  C135  A    
C85   H3    S    
C86   H5    S    
C44   C49   A    
C89   H17   S    
C99   H45   S    
Cu5   O23   S    
C32   C37   A    
Cu3   Cu4   S    
C97   H40   S    
C139  C161  A    
C187  H78   S    
C49   C52   A    
C73   H24   S    
C65   C173  S    
C46   C75   S    
C48   H99   S    
C45   C50   A    
C132  O21   A    
C101  C117  S    
C89   H16   S    
Br7   C33   S    
C22   C179  S    
C105  C131  S    
C36   O59   S    
C119  C123  S    
C19   H92   S    
C2    H113  S    
C88   H12   S    
C98   H41   S    
C97   O63   S    
C110  C115  A    
C98   O64   S    
C128  H62   S    
C131  O20   A    
C1    C116  S    
C36   C39   A    
Cu10  O38   S    
C78   O44   S    
C93   H26   S    
C166  O31   A    
C31   C36   A    
C80   H126  S    
Cu6   O19   S    
C140  C162  A    
C65   C79   S    
C83   H136  S    
C154  C159  A    
Cu4   O3    S    
Cu1   O1    S    
C158  O55   S    
C175  H108  S    
C45   C55   A    
C64   C170  S    
C116  C120  A    
C48   C52   A    
C5    H82   S    
C1    O1    A    
C169  O33   A    
C7    H84   S    
C27   C69   S    
Cu4   O43   S    
C159  C163  A    
C150  C183  S    
C172  O38   A    
C18   C21   A    
C15   C29   A    
Cu10  O25   S    
C145  H46   S    
C83   O49   S    
C126  C135  A    
C27   C60   S    
Cu2   O68   S    
Cu12  O5    S    
C102  C106  T    
C140  H66   S    
Cu5   O17   S    
C92   H21   S    
C33   C42   A    
Cu1   O15   S    
C130  O15   A    
C147  C151  A    
Cu7   O13   S    
C63   C169  S    
C183  O67   A    
C121  H56   S    
C23   H103  S    
C91   H20   S    
C26   C59   S    
Cu4   O67   S    
C164  O22   A    
C73   H75   S    
C56   H107  S    
C143  C148  A    
C13   C67   S    
C95   H33   S    
C123  O13   A    
C182  O3    A    
Cu5   O16   S    
C124  H58   S    
Br12  C178  S    
C4    H81   S    
C51   H102  S    
C86   H6    S    
C139  H65   S    
C109  C114  A    
C170  O35   A    
C85   O51   S    
C14   C28   A    
C111  C116  A    
C23   C56   S    
C128  C137  A    
C3    C11   A    
C12   C28   A    
C149  C182  S    
Cu11  O33   S    
C77   C167  S    
C43   H94   S    
C90   C104  T    
C180  O45   A    
C146  C150  A    
C83   H134  S    
C62   C168  S    
Cu10  Cu11  S    
C138  C142  A    
C134  C178  S    
C123  O34   A    
C60   C77   S    
C78   H122  S    
C166  O27   A    
