data_mof_unit_29774.cif
_audit_creation_date              2012-12-11T14:31:10-0500
_audit_creation_method            fapswitch 2.2
_symmetry_space_group_name_H-M    P1
_symmetry_Int_Tables_number       1
_space_group_crystal_system       triclinic
_cell_length_a                    8.163706
_cell_length_b                    14.943755
_cell_length_c                    15.066861
_cell_angle_alpha                 97.446018
_cell_angle_beta                  99.354019
_cell_angle_gamma                 97.694394
_cell_volume                      1775.67039709

loop_
_atom_site_label
_atom_site_type_symbol
_atom_type_description
_atom_site_fract_x
_atom_site_fract_y
_atom_site_fract_z
_atom_type_partial_charge
Ba1   Ba    Ba6+2 0.154730 0.543770 0.458180 1.689341
Ba2   Ba    Ba6+2 0.655430 0.456220 0.541750 1.674865
C1    C     C_3   0.337316 0.757737 0.123031 -0.295817
C2    C     C_R   0.104831 0.078934 0.554898 -0.011719
C3    C     C_R   0.962374 0.891236 0.539664 0.001428
C4    C     C_3   0.832367 0.780654 0.213889 0.279767
C5    C     C_R   0.124517 0.925364 0.589708 -0.037200
C6    C     C_R   0.195395 0.016594 0.595545 -0.084601
C7    C     C_R   0.892807 0.796759 0.527918 0.058178
C8    C     C_R   0.728841 0.768039 0.479989 -0.284070
C9    C     C_R   0.913874 0.204358 0.476593 0.022846
C10   C     C_R   0.843556 0.110064 0.466298 -0.055236
C11   C     C_R   0.938040 0.047835 0.507531 0.040762
C12   C     C_3   0.370820 0.733749 0.218726 0.450288
C13   C     C_R   0.681755 0.075761 0.416200 0.052470
C14   C     C_R   0.609873 0.984931 0.411373 -0.016260
C15   C     C_R   0.700326 0.922593 0.451921 -0.043956
C16   C     C_3   0.901031 0.880158 0.211056 0.612595
C17   C     C_R   0.866965 0.953759 0.499591 0.060762
C18   C     C_R   0.630260 0.829586 0.444784 -0.030754
C19   C     C_R   0.076894 0.233312 0.525737 -0.311458
C20   C     C_R   0.232657 0.466426 0.765695 -0.286612
C21   C     C_R   0.133071 0.433818 0.824819 0.009153
C22   C     C_R   0.196752 0.446523 0.918593 -0.136522
C23   C     C_3   0.589963 0.736676 0.679783 0.309828
C24   C     C_R   0.361440 0.494767 0.954896 0.010905
C25   C     C_R   0.454470 0.531581 0.892693 -0.095221
C26   C     C_R   0.389931 0.518073 0.799786 0.029096
C27   C     C_R   0.599047 0.557508 0.090382 -0.056145
C28   C     C_3   0.750269 0.329285 0.251843 0.289390
C29   C     C_R   0.669212 0.567480 0.182465 0.022305
C30   C     C_R   0.414770 0.483892 0.211906 0.058719
C31   C     C_R   0.344675 0.471698 0.119019 -0.096308
C32   C     C_R   0.434404 0.509082 0.055734 0.030426
C33   C     C_R   0.575485 0.532982 0.243353 -0.274413
C34   C     C_3   0.626378 0.840187 0.705647 -0.380751
C35   C     C_3   0.776638 0.292348 0.156365 0.580895
C36   C     C_3   0.082479 0.657601 0.737122 0.305373
C37   C     C_3   0.126223 0.683918 0.840189 -0.386527
C38   C     C_3   0.219090 0.266976 0.335703 0.317983
C39   C     C_3   0.157348 0.165053 0.304611 0.251654
C40   C     C_3   0.885897 0.208586 0.728721 0.356226
C41   C     C_3   0.857377 0.112761 0.753060 -0.338462
C42   C     C_3   0.426716 0.263233 0.782385 0.288673
C43   C     C_3   0.462460 0.238366 0.877495 -0.246184
C44   C     C_R   0.175315 0.171768 0.561055 -0.005179
Cl1   Cl    Cl    0.612033 0.200999 0.103540 -0.529037
Cl2   Cl    Cl    0.783213 0.377439 0.084609 -0.733849
Cl3   Cl    Cl    0.306673 0.112550 0.250441 -0.516082
Cl4   Cl    Cl    0.736346 0.947367 0.205921 -0.648379
Cl5   Cl    Cl    0.055073 0.925571 0.310053 -0.607945
H1    H     H_    0.281198 0.671789 0.220969 0.074241
H2    H     H_    0.036165 0.154667 0.256011 0.105400
H3    H     H_    0.137528 0.131051 0.363941 0.027976
H4    H     H_    0.500688 0.718473 0.233257 -0.153849
H5    H     H_    0.426119 0.819088 0.117934 0.177659
H6    H     H_    0.705569 0.712351 0.663349 0.009212
H7    H     H_    0.488293 0.719532 0.618784 0.054909
H8    H     H_    0.731099 0.859915 0.765012 0.137183
H9    H     H_    0.662569 0.872185 0.647771 0.039107
H10   H     H_    0.512590 0.866139 0.723278 0.126607
H11   H     H_    0.206684 0.771863 0.106185 0.141845
H12   H     H_    0.898148 0.265920 0.161757 0.051656
H13   H     H_    0.796250 0.210500 0.665481 0.090234
H14   H     H_    0.016181 0.222873 0.716125 -0.071984
H15   H     H_    0.727454 0.096087 0.765903 0.153422
H16   H     H_    0.875242 0.062104 0.696150 0.048559
H17   H     H_    0.948345 0.108146 0.815034 0.134530
H18   H     H_    0.292056 0.270361 0.766639 -0.058350
H19   H     H_    0.433436 0.292683 0.927497 0.121846
H20   H     H_    0.597068 0.231576 0.895935 0.200020
H21   H     H_    0.790026 0.776530 0.280102 0.013205
H22   H     H_    0.383282 0.172666 0.880328 0.131226
H23   H     H_    0.188328 0.630928 0.711669 0.002147
H24   H     H_    0.200259 0.882239 0.624638 0.094865
H25   H     H_    0.322017 0.037477 0.633293 0.099913
H26   H     H_    0.483232 0.964163 0.373628 0.169530
H27   H     H_    0.606986 0.118501 0.380466 0.169432
H28   H     H_    0.674760 0.696774 0.473015 0.064929
H29   H     H_    0.131480 0.304442 0.532245 0.078507
H30   H     H_    0.680052 0.585471 0.047951 0.068282
H31   H     H_    0.113689 0.420147 0.961032 0.119276
H32   H     H_    0.221824 0.431043 0.098245 0.108815
H33   H     H_    0.724691 0.757366 0.156453 -0.056180
H34   H     H_    0.969965 0.603997 0.719932 0.072824
H35   H     H_    0.575795 0.573448 0.913619 0.071347
H36   H     H_    0.182986 0.457358 0.693452 0.065785
H37   H     H_    0.625897 0.351946 0.247546 0.015503
H38   H     H_    0.849788 0.387843 0.282348 0.019010
H39   H     H_    0.246402 0.732348 0.859636 0.136762
H40   H     H_    0.505369 0.329774 0.782213 0.101384
H41   H     H_    0.631123 0.539883 0.314624 0.066423
H42   H     H_    0.959398 0.884848 0.149822 0.071070
H43   H     H_    0.139345 0.622622 0.873132 0.063816
H44   H     H_    0.024773 0.716746 0.865429 0.131626
H45   H     H_    0.117343 0.298235 0.361533 -0.113350
H46   H     H_    0.329886 0.276087 0.391242 0.058387
H47   H     H_    0.354026 0.699819 0.072974 0.032300
O1    O     O_2   0.174080 0.723060 0.553930 -0.468968
O2    O     O_2   0.792109 0.438245 0.819377 -0.464534
O3    O     O_3   0.859249 0.271728 0.800519 -0.578511
O4    O     O_3   0.901570 0.609580 0.550840 -0.499337
O5    O     O_3   0.408220 0.452130 0.390170 -0.495113
O6    O     O_2   0.675490 0.547140 0.721820 -0.465652
O7    O     O_3   0.540973 0.697994 0.753321 -0.638361
O8    O     O_2   0.515334 0.174060 0.551617 -0.501132
O9    O     O_3   0.466088 0.194819 0.719754 -0.606448
O10   O     O_3   0.370350 0.665080 0.388270 -0.505237
O11   O     O_2   0.285945 0.824183 0.446946 -0.433775
O12   O     O_3   0.261480 0.306551 0.261630 -0.588145
O13   O     O_3   0.052190 0.735562 0.699254 -0.643094
O14   O     O_3   0.348580 0.807150 0.281572 -0.529261
O15   O     O_2   0.134790 0.452800 0.278150 -0.466999
O16   O     O_3   0.937650 0.618620 0.340860 -0.465678
O17   O     O_2   0.007558 0.557880 0.180882 -0.447395
O18   O     O_3   0.958855 0.727243 0.203415 -0.604927
O19   O     O_2   0.636200 0.276890 0.446040 -0.459699
O20   O     O_3   0.908720 0.390410 0.449080 -0.500626
O21   O     O_3   0.439930 0.334910 0.611650 -0.481537
O22   O     O_3   0.752809 0.256486 0.301513 -0.612680
O23   O     O_3   0.402060 0.547860 0.609750 -0.482684
O24   O     O_3   0.872630 0.381370 0.659060 -0.498912
P1    P     P_3+3 0.004200 0.709230 0.580350 0.975533
P2    P     P_3+3 0.305000 0.425570 0.290900 1.021960
P3    P     P_3+3 0.891002 0.617058 0.224010 0.999220
P4    P     P_3+3 0.806080 0.290760 0.419570 0.995497
P5    P     P_3+3 0.914229 0.382372 0.776943 0.981441
P6    P     P_3+3 0.409299 0.782983 0.391830 1.017503
P7    P     P_3+3 0.500569 0.578864 0.723573 0.945180
P8    P     P_3+3 0.398373 0.217357 0.609712 0.940073

loop_
_geom_bond_atom_site_label_1
_geom_bond_atom_site_label_2
_ccdc_geom_bond_type
C5    H24   S    
C43   H20   S    
O2    P5    D    
C30   P2    S    
C2    C6    A    
C34   H8    S    
Ba1   O1    S    
Ba2   O20   S    
C23   O7    S    
C5    C6    A    
C2    C44   A    
C8    H28   S    
C4    H21   S    
C24   C25   A    
Ba1   O15   S    
C26   P7    S    
C21   P5    S    
C22   C24   A    
C18   P6    S    
O9    P8    S    
C36   C37   S    
O22   P4    S    
Ba2   O23   S    
C13   H27   S    
Ba1   O16   S    
Ba2   O4    S    
C13   C14   A    
C6    H25   S    
O21   P8    S    
C43   H22   S    
Ba1   Ba2   S    
C2    C11   A    
C22   H31   S    
O12   P2    S    
C24   C32   S    
C12   H1    S    
C8    C18   A    
C14   C15   A    
C40   H14   S    
C21   C22   A    
C35   Cl1   S    
C7    C8    A    
Ba1   O5    S    
C37   H39   S    
C33   H41   S    
C12   H4    S    
C20   C26   A    
C23   H6    S    
C38   H45   S    
C28   H38   S    
O5    P2    S    
C39   Cl3   S    
C35   H12   S    
Ba2   O19   S    
C16   Cl5   S    
Ba2   O24   S    
C4    C16   S    
C4    H33   S    
C11   C17   A    
C36   H34   S    
O13   P1    S    
C30   C33   A    
C9    P4    S    
C38   H46   S    
C3    C5    A    
O16   P3    S    
O24   P5    S    
C41   H17   S    
O7    P7    S    
Ba1   O10   S    
C27   C32   A    
C9    C19   A    
C28   C35   S    
C25   H35   S    
C12   O14   S    
Ba1   P1    S    
C37   H43   S    
C3    C7    A    
O3    P5    S    
C1    H5    S    
O11   P6    D    
C10   C13   A    
Ba2   O6    S    
C9    C10   A    
C39   H2    S    
C42   O9    S    
C31   C32   A    
C42   H18   S    
C20   H36   S    
O10   P6    S    
C35   Cl2   S    
C31   H32   S    
C4    O18   S    
C42   H40   S    
Ba2   P4    S    
C38   C39   S    
C27   H30   S    
O6    P7    D    
C29   C33   A    
C40   C41   S    
C29   P3    S    
C28   H37   S    
C34   H10   S    
C40   O3    S    
C40   H13   S    
C42   C43   S    
C16   Cl4   S    
O1    P1    D    
C19   C44   A    
C36   H23   S    
C1    H11   S    
O8    P8    D    
C43   H19   S    
C15   C18   A    
O23   P7    S    
C34   H9    S    
C44   P8    S    
C38   O12   S    
Ba2   O21   S    
C3    C17   A    
C1    C12   S    
O17   P3    D    
O18   P3    S    
C30   C31   A    
C37   H44   S    
Ba1   P2    S    
C27   C29   A    
C1    H47   S    
O15   P2    D    
C28   O22   S    
Ba2   O5    S    
C41   H15   S    
C19   H29   S    
C7    P1    S    
Ba1   O20   S    
Ba1   O23   S    
C39   H3    S    
O14   P6    S    
C23   C34   S    
C15   C17   A    
C10   C11   A    
C41   H16   S    
C23   H7    S    
C25   C26   A    
C16   H42   S    
C20   C21   A    
C14   H26   S    
O19   P4    D    
O20   P4    S    
C36   O13   S    
Ba1   O4    S    
O4    P1    S    
