data_mof_unit_14203.cif
_audit_creation_date              2012-12-11T14:17:56-0500
_audit_creation_method            fapswitch 2.2
_symmetry_space_group_name_H-M    P1
_symmetry_Int_Tables_number       1
_space_group_crystal_system       triclinic
_cell_length_a                    11.19224
_cell_length_b                    11.19207
_cell_length_c                    18.706152
_cell_angle_alpha                 90.001192
_cell_angle_beta                  90.002154
_cell_angle_gamma                 120.00107
_cell_volume                      2029.26067523

loop_
_atom_site_label
_atom_site_type_symbol
_atom_type_description
_atom_site_fract_x
_atom_site_fract_y
_atom_site_fract_z
_atom_type_partial_charge
C1    C     C_R   0.518181 0.456709 0.147564 0.549539
C2    C     C_R   0.007988 0.397513 0.537042 -0.149678
C3    C     C_R   0.389513 0.991992 0.537043 -0.149685
C4    C     C_R   0.602480 0.610469 0.537052 -0.149672
C5    C     C_R   0.748661 0.067565 0.566410 0.023866
C6    C     C_R   0.932469 0.681124 0.566407 0.023872
C7    C     C_R   0.318829 0.251317 0.566365 0.023835
C8    C     C_R   0.067600 0.748711 0.433571 0.023852
C9    C     C_R   0.681081 0.932410 0.433574 0.023866
C10   C     C_R   0.251308 0.318971 0.433537 0.023871
C11   C     C_R   0.839890 0.037428 0.531976 -0.166728
C12   C     C_R   0.543293 0.061486 0.147557 0.549530
C13   C     C_R   0.962552 0.802462 0.531963 -0.166769
C14   C     C_R   0.197500 0.160096 0.531898 -0.166763
C15   C     C_R   0.037355 0.839886 0.467978 -0.166681
C16   C     C_R   0.802465 0.962566 0.468008 -0.166744
C17   C     C_R   0.160092 0.197577 0.467937 -0.166667
C18   C     C_R   0.518568 0.457807 0.353533 0.567643
C19   C     C_R   0.542200 0.060769 0.353536 0.567635
C20   C     C_R   0.939244 0.481441 0.353533 0.567650
C21   C     C_R   0.457787 0.518568 0.646459 0.567650
C22   C     C_R   0.060774 0.542202 0.646462 0.567650
C23   C     C_R   0.938518 0.481811 0.147560 0.549546
C24   C     C_R   0.481426 0.939219 0.646460 0.567628
C25   C     C_R   0.506436 0.995614 0.924987 -0.002262
C26   C     C_R   0.004420 0.510832 0.924994 -0.002253
C27   C     C_R   0.489160 0.493621 0.925007 -0.002263
C28   C     C_R   0.995572 0.506407 0.075003 -0.002249
C29   C     C_R   0.510836 0.004449 0.074995 -0.002262
C30   C     C_R   0.493564 0.489182 0.075015 -0.002254
C31   C     C_R   0.403982 0.007335 0.962406 0.029580
C32   C     C_R   0.992726 0.396670 0.962420 0.029579
C33   C     C_R   0.603306 0.596106 0.962444 0.029588
C34   C     C_R   0.456706 0.518195 0.852444 0.549535
C35   C     C_R   0.007260 0.403935 0.037575 0.029582
C36   C     C_R   0.396695 0.992789 0.037559 0.029587
C37   C     C_R   0.596021 0.603360 0.037598 0.029580
C38   C     C_R   0.617734 0.002844 0.036699 -0.138226
C39   C     C_R   0.997165 0.614903 0.036701 -0.138230
C40   C     C_R   0.385080 0.382279 0.036705 -0.138229
C41   C     C_R   0.002821 0.617732 0.963298 -0.138234
C42   C     C_R   0.614914 0.997188 0.963296 -0.138229
C43   C     C_R   0.382258 0.385118 0.963303 -0.138230
C44   C     C_R   0.307851 0.032075 0.927260 -0.084897
C45   C     C_R   0.061482 0.543294 0.852439 0.549540
C46   C     C_R   0.967998 0.275794 0.927282 -0.084920
C47   C     C_R   0.724196 0.692267 0.927324 -0.084935
C48   C     C_R   0.031989 0.307786 0.072708 -0.084925
C49   C     C_R   0.275808 0.968057 0.072681 -0.084922
C50   C     C_R   0.692158 0.724229 0.072748 -0.084900
C51   C     C_R   0.195546 0.020295 0.964230 -0.142383
C52   C     C_R   0.979757 0.175264 0.964265 -0.142384
C53   C     C_R   0.824735 0.804524 0.964332 -0.142428
C54   C     C_R   0.020245 0.195507 0.035717 -0.142395
C55   C     C_R   0.175277 0.979788 0.035678 -0.142424
C56   C     C_R   0.481820 0.938529 0.852436 0.549525
C57   C     C_R   0.804469 0.824757 0.035782 -0.142381
C58   C     C_R   0.502391 0.001406 0.574945 0.006544
C59   C     C_R   0.998593 0.500989 0.574943 0.006540
C60   C     C_R   0.498989 0.497592 0.574941 0.006538
C61   C     C_R   0.001496 0.502443 0.425040 0.006533
C62   C     C_R   0.500953 0.998540 0.425041 0.006524
C63   C     C_R   0.497582 0.499066 0.425037 0.006539
C64   C     C_R   0.617930 0.021374 0.535799 0.009487
C65   C     C_R   0.978665 0.596590 0.535797 0.009496
C66   C     C_R   0.403393 0.382068 0.535780 0.009491
C67   C     C_R   0.397468 0.007913 0.462943 -0.149684
C68   C     C_R   0.021484 0.617998 0.464190 0.009475
C69   C     C_R   0.596524 0.978571 0.464188 0.009479
C70   C     C_R   0.382017 0.403504 0.464170 0.009494
C71   C     C_1   0.791693 0.148146 0.631675 0.206603
C72   C     C_1   0.851882 0.643576 0.631666 0.206603
C73   C     C_1   0.356315 0.208252 0.631639 0.206613
C74   C     C_1   0.148110 0.791751 0.368283 0.206601
C75   C     C_1   0.643562 0.851861 0.368298 0.206600
C76   C     C_1   0.208297 0.356521 0.368267 0.206579
C77   C     C_R   0.992086 0.389565 0.462940 -0.149680
C78   C     C_R   0.610451 0.602533 0.462950 -0.149676
Cr1   Cr    Cr6+3 0.768550 0.541320 0.250660 1.042957
Cr2   Cr    Cr6+3 0.458680 0.227230 0.250660 1.042952
Cr3   Cr    Cr6+3 0.772770 0.231450 0.250660 1.042932
Cr4   Cr    Cr6+3 0.541320 0.768550 0.749340 1.042929
Cr5   Cr    Cr6+3 0.227230 0.458680 0.749340 1.042944
Cr6   Cr    Cr6+3 0.231450 0.772770 0.749340 1.042958
H1    H     H_    0.707402 0.010885 0.063181 0.157077
H2    H     H_    0.062780 0.319858 0.128286 0.142200
H3    H     H_    0.257071 0.937254 0.128255 0.142196
H4    H     H_    0.680064 0.742931 0.128326 0.142196
H5    H     H_    0.125293 0.041513 0.936049 0.099075
H6    H     H_    0.958530 0.083783 0.936092 0.099083
H7    H     H_    0.916249 0.874761 0.936183 0.099083
H8    H     H_    0.041490 0.125261 0.063882 0.099082
H9    H     H_    0.083764 0.958513 0.063828 0.099081
H10   H     H_    0.874727 0.916223 0.063970 0.099076
H11   H     H_    0.323734 0.027362 0.435727 0.151919
H12   H     H_    0.989110 0.696528 0.063179 0.157055
H13   H     H_    0.972606 0.296373 0.435719 0.151881
H14   H     H_    0.703636 0.676267 0.435740 0.151894
H15   H     H_    0.027426 0.323778 0.564264 0.151889
H16   H     H_    0.296331 0.972520 0.564262 0.151919
H17   H     H_    0.676201 0.703640 0.564288 0.151914
H18   H     H_    0.937246 0.068723 0.556919 0.108080
H19   H     H_    0.931261 0.868507 0.556915 0.108091
H20   H     H_    0.131435 0.062730 0.556823 0.108093
H21   H     H_    0.068456 0.937180 0.442969 0.108010
H22   H     H_    0.868559 0.931354 0.443037 0.108030
H23   H     H_    0.303465 0.292588 0.063177 0.157066
H24   H     H_    0.062769 0.131532 0.442954 0.108042
H25   H     H_    0.010876 0.707411 0.936822 0.157052
H26   H     H_    0.696526 0.989111 0.936824 0.157073
H27   H     H_    0.292587 0.303491 0.936819 0.157074
H28   H     H_    0.319945 0.062874 0.871684 0.142187
H29   H     H_    0.937204 0.257076 0.871704 0.142191
H30   H     H_    0.742932 0.680208 0.871748 0.142181
N1    N     N_1   0.825171 0.211626 0.684072 -0.293557
N2    N     N_1   0.788399 0.613573 0.684059 -0.293543
N3    N     N_1   0.386247 0.174736 0.684045 -0.293549
N4    N     N_1   0.211529 0.825244 0.315869 -0.293545
N5    N     N_1   0.613593 0.788411 0.315892 -0.293576
N6    N     N_1   0.174837 0.386519 0.315866 -0.293569
O1    O     O_R   0.910960 0.572410 0.171010 -0.519012
O2    O     O_R   0.528530 0.639750 0.824400 -0.503002
O3    O     O_R   0.111220 0.471470 0.824400 -0.503006
O4    O     O_R   0.360250 0.888780 0.824400 -0.502990
O5    O     O_R   0.909330 0.572400 0.331540 -0.511516
O6    O     O_R   0.427600 0.336930 0.331540 -0.511525
O7    O     O_R   0.663070 0.090670 0.331540 -0.511525
O8    O     O_R   0.572400 0.909330 0.668460 -0.511536
O9    O     O_R   0.336930 0.427600 0.668460 -0.511525
O10   O     O_R   0.090670 0.663070 0.668460 -0.511533
O11   O     O_R   0.638240 0.528520 0.324410 -0.492714
O12   O     O_R   0.427590 0.338550 0.171010 -0.519031
O13   O     O_R   0.471480 0.109720 0.324410 -0.492700
O14   O     O_R   0.890280 0.361760 0.324410 -0.492718
O15   O     O_R   0.528520 0.638240 0.675590 -0.492719
O16   O     O_R   0.109720 0.471480 0.675590 -0.492723
O17   O     O_R   0.361760 0.890280 0.675590 -0.492710
O18   O     O_3   0.666667 0.333333 0.250630 -0.271382
O19   O     O_3   0.333333 0.666667 0.749370 -0.271392
O20   O     O_R   0.661450 0.089040 0.171010 -0.519024
O21   O     O_R   0.572410 0.910960 0.828990 -0.519032
O22   O     O_R   0.338550 0.427590 0.828990 -0.519022
O23   O     O_R   0.089040 0.661450 0.828990 -0.519011
O24   O     O_R   0.639750 0.528530 0.175600 -0.502999
O25   O     O_R   0.471470 0.111220 0.175600 -0.502998
O26   O     O_R   0.888780 0.360250 0.175600 -0.503003

loop_
_geom_bond_atom_site_label_1
_geom_bond_atom_site_label_2
_ccdc_geom_bond_type
C25   C31   A    
C47   H30   S    
C26   C32   A    
Cr2   O12   S    
C12   C29   S    
Cr3   O20   S    
C49   H3    S    
C52   H6    S    
C25   C56   S    
C55   H9    S    
C1    O12   A    
Cr5   O19   S    
C54   H8    S    
Cr3   O14   S    
C39   C41   A    
C45   O3    A    
C6    C72   S    
Cr1   O1    S    
C29   C36   A    
C76   N6    T    
C62   C67   A    
C56   O4    A    
C9    C16   A    
C9    C69   A    
C38   C42   A    
Cr2   O18   S    
C18   C63   S    
C19   C62   S    
C46   C52   A    
Cr4   O15   S    
C62   C69   A    
C4    C78   A    
C19   O7    A    
C20   C61   S    
C26   C45   S    
C10   C76   S    
C3    H16   S    
C7    C14   A    
C28   C35   A    
C61   C77   A    
C21   O9    A    
C29   C38   A    
C78   H14   S    
C12   O20   A    
C77   H13   S    
C13   H19   S    
C16   H22   S    
C47   C53   A    
Cr1   O5    S    
C60   C66   A    
C34   O2    A    
C41   H25   S    
C22   O10   A    
C67   H11   S    
C14   C17   A    
C18   O11   A    
C43   H27   S    
Cr4   O21   S    
C35   C48   A    
C52   C54   A    
C6    C65   A    
C27   C34   S    
C58   C64   A    
Cr3   O18   S    
C74   N4    T    
C23   O26   A    
C73   N3    T    
C31   C44   A    
C38   H1    S    
C71   N1    T    
C32   C35   A    
C7    C73   S    
C75   N5    T    
Cr6   O19   S    
C21   C60   S    
C23   O1    A    
C17   H24   S    
C22   C59   S    
C53   C57   A    
C2    C59   A    
Cr6   O23   S    
C49   C55   A    
C33   C37   A    
Cr2   O13   S    
C30   C37   A    
C22   O16   A    
C12   O25   A    
C48   C54   A    
C53   H7    S    
Cr4   O19   S    
C11   C16   A    
C14   H20   S    
Cr1   O24   S    
C63   C70   A    
C65   C68   A    
Cr1   O11   S    
C4    H17   S    
C4    C60   A    
C8    C74   S    
C30   C40   A    
C23   C28   S    
Cr4   O8    S    
Cr5   O16   S    
C40   H23   S    
C56   O21   A    
C10   C70   A    
C44   C51   A    
Cr2   O25   S    
C2    H15   S    
C8    C68   A    
C8    C15   A    
C57   H10   S    
C13   C15   A    
C33   C47   A    
C48   H2    S    
C19   O13   A    
C10   C17   A    
C44   H28   S    
C24   O8    A    
C34   O22   A    
C46   H29   S    
C50   C57   A    
C32   C46   A    
C3    C67   A    
C25   C42   A    
Cr6   O17   S    
Cr5   O22   S    
C5    C11   A    
C50   H4    S    
C24   O17   A    
Cr6   O4    S    
C64   C69   A    
C72   N2    T    
C28   C39   A    
C20   O14   A    
C40   C43   A    
C15   H21   S    
C42   H26   S    
C20   O5    A    
C5    C71   S    
C1    O24   A    
C59   C65   A    
C7    C66   A    
C37   C50   A    
C61   C68   A    
C66   C70   A    
Cr2   O6    S    
Cr5   O9    S    
Cr6   O10   S    
C1    C30   S    
Cr4   O2    S    
C51   H5    S    
C11   H18   S    
C51   C55   A    
C39   H12   S    
C3    C58   A    
C27   C43   A    
Cr1   O18   S    
C5    C64   A    
C24   C58   S    
Cr3   O26   S    
C27   C33   A    
C45   O23   A    
C2    C77   A    
C31   C36   A    
C9    C75   S    
Cr5   O3    S    
C21   O15   A    
C18   O6    A    
C36   C49   A    
Cr3   O7    S    
C26   C41   A    
C6    C13   A    
C63   C78   A    
