data_mof_unit_34908.cif
_audit_creation_date              2012-10-26T19:09:57-0400
_audit_creation_method            fapswitch 2.2
_symmetry_space_group_name_H-M    P1
_symmetry_Int_Tables_number       1
_space_group_crystal_system       triclinic
_cell_length_a                    14.964568
_cell_length_b                    15.631246
_cell_length_c                    9.40201
_cell_angle_alpha                 89.790067
_cell_angle_beta                  90.000886
_cell_angle_gamma                 90.000471
_cell_volume                      2199.25493656

loop_
_atom_site_label
_atom_site_type_symbol
_atom_type_description
_atom_site_fract_x
_atom_site_fract_y
_atom_site_fract_z
_atom_type_partial_charge
C1    C     C_R   0.120621 0.380623 0.500576 0.556718
C2    C     C_R   0.877435 0.618409 0.499808 0.647689
C3    C     C_R   0.377424 0.881604 0.500190 0.647710
C4    C     C_R   0.380657 0.121206 0.499409 0.658857
C5    C     C_3   0.856564 0.217853 0.498174 0.066376
C6    C     C_3   0.755099 0.312424 0.360848 0.047474
C7    C     C_3   0.850587 0.773762 0.556376 0.050826
C8    C     C_3   0.777710 0.710843 0.342507 0.064785
C9    C     C_3   0.277621 0.789239 0.657471 0.064853
C10   C     C_3   0.350596 0.726239 0.443774 0.050755
C11   C     C_3   0.255078 0.187554 0.639129 0.047468
C12   C     C_R   0.122308 0.617570 0.500311 0.539635
C13   C     C_3   0.356557 0.282139 0.501854 0.066380
C14   C     C_3   0.200441 0.724490 0.652982 -0.208256
C15   C     C_3   0.282222 0.651642 0.452528 -0.227374
C16   C     C_3   0.190626 0.264416 0.646757 -0.226494
C17   C     C_3   0.283790 0.351577 0.476970 -0.210495
C18   C     C_3   0.783793 0.148417 0.523051 -0.210501
C19   C     C_3   0.690636 0.235569 0.353234 -0.226484
C20   C     C_3   0.782197 0.848349 0.547737 -0.227263
C21   C     C_3   0.700568 0.775631 0.346957 -0.208290
C22   C     C_3   0.747847 0.313473 0.637958 0.427968
C23   C     C_R   0.622315 0.882439 0.499690 0.539625
C24   C     C_3   0.721485 0.664314 0.591073 0.443366
C25   C     C_3   0.221509 0.835664 0.408800 0.443374
C26   C     C_3   0.247849 0.186530 0.362023 0.427968
C27   C     C_3   0.811733 0.308821 0.502404 0.044295
C28   C     C_3   0.807696 0.688003 0.499427 0.037062
C29   C     C_3   0.307680 0.812017 0.500570 0.037095
C30   C     C_3   0.311727 0.191172 0.497592 0.044296
C31   C     C_3   0.190452 0.686105 0.501197 -0.099079
C32   C     C_3   0.189403 0.312451 0.501988 -0.094694
C33   C     C_3   0.689408 0.187543 0.498011 -0.094700
C34   C     C_R   0.620624 0.119374 0.499424 0.556723
C35   C     C_3   0.690464 0.813910 0.498806 -0.099048
C36   C     C_3   0.160877 0.756404 0.395790 -0.167396
C37   C     C_3   0.167554 0.246306 0.384721 -0.161340
C38   C     C_3   0.667554 0.253694 0.615262 -0.161338
C39   C     C_3   0.660796 0.743537 0.604017 -0.167384
C40   C     C_3   0.989432 0.587462 0.083284 -0.104251
C41   C     C_3   0.986998 0.587042 0.915893 -0.088259
C42   C     C_3   0.928679 0.446015 0.083861 -0.093422
C43   C     C_3   0.930262 0.444428 0.916729 -0.083535
C44   C     C_3   0.430215 0.055525 0.083267 -0.083526
C45   C     C_3   0.086785 0.467014 0.084115 -0.104402
C46   C     C_3   0.428641 0.053946 0.916135 -0.093410
C47   C     C_3   0.487068 0.912940 0.084107 -0.088269
C48   C     C_3   0.489478 0.912526 0.916714 -0.104248
C49   C     C_3   0.087539 0.468809 0.916370 -0.113473
C50   C     C_3   0.587520 0.031256 0.083633 -0.113451
C51   C     C_3   0.586770 0.033036 0.915890 -0.104387
C52   C     C_R   0.880662 0.378790 0.500589 0.658858
Cl1   Cl    Cl    0.949622 0.202216 0.615039 -0.537139
Cl2   Cl    Cl    0.707144 0.417712 0.675844 -0.372539
Cl3   Cl    Cl    0.745093 0.625966 0.767508 -0.439778
Cl4   Cl    Cl    0.654921 0.582916 0.510804 -0.340802
Cl5   Cl    Cl    0.154858 0.917032 0.488975 -0.341007
Cl6   Cl    Cl    0.245171 0.874019 0.232392 -0.439899
Cl7   Cl    Cl    0.207155 0.082291 0.324099 -0.372558
Cl8   Cl    Cl    0.300958 0.218517 0.198798 -0.571414
Cl9   Cl    Cl    0.695792 0.410168 0.333030 -0.368244
Cl10  Cl    Cl    0.897234 0.768306 0.731870 -0.570840
Cl11  Cl    Cl    0.747895 0.623710 0.226903 -0.446335
Cl12  Cl    Cl    0.247826 0.876417 0.772978 -0.446235
Cl13  Cl    Cl    0.397233 0.731620 0.268272 -0.570777
Cl14  Cl    Cl    0.195750 0.089814 0.666866 -0.368213
Cl15  Cl    Cl    0.449628 0.297785 0.385019 -0.537115
Cl16  Cl    Cl    0.800947 0.281507 0.801204 -0.571405
Cu1   Cu    Cu3+1 0.000100 0.500000 0.642410 1.002139
Cu2   Cu    Cu3+1 0.000100 0.500000 0.357590 0.946365
Cu3   Cu    Cu3+1 0.500100 1.000000 0.642410 0.946338
Cu4   Cu    Cu3+1 0.500100 1.000000 0.357590 1.002150
H1    H     H_    0.885692 0.207636 0.390558 0.128975
H2    H     H_    0.306328 0.602570 0.529607 0.120051
H3    H     H_    0.213375 0.308666 0.732004 0.116020
H4    H     H_    0.295465 0.405908 0.550903 0.120945
H5    H     H_    0.795471 0.094083 0.449127 0.120931
H6    H     H_    0.713378 0.191311 0.267994 0.116019
H7    H     H_    0.806345 0.897528 0.470845 0.120083
H8    H     H_    0.714473 0.826946 0.267484 0.131299
H9    H     H_    0.136305 0.755466 0.683704 0.229431
H10   H     H_    0.275424 0.619050 0.348020 0.195851
H11   H     H_    0.122516 0.243333 0.676946 0.245231
H12   H     H_    0.800720 0.307622 0.267643 0.136636
H13   H     H_    0.287811 0.377562 0.366835 0.212537
H14   H     H_    0.787808 0.122437 0.633191 0.212526
H15   H     H_    0.622528 0.256659 0.323044 0.245225
H16   H     H_    0.775314 0.880820 0.652363 0.195874
H17   H     H_    0.636439 0.744707 0.316018 0.229383
H18   H     H_    0.089276 0.772800 0.413745 0.149503
H19   H     H_    0.163944 0.730320 0.285777 0.170922
H20   H     H_    0.107379 0.209281 0.417409 0.202217
H21   H     H_    0.149196 0.277775 0.282592 0.163891
H22   H     H_    0.649195 0.222231 0.717394 0.163891
H23   H     H_    0.908460 0.790579 0.487250 0.136736
H24   H     H_    0.607379 0.290714 0.582560 0.202234
H25   H     H_    0.663698 0.769558 0.714104 0.170837
H26   H     H_    0.589217 0.727116 0.585777 0.149561
H27   H     H_    0.044333 0.629951 0.119962 0.130918
H28   H     H_    0.038265 0.631957 0.873844 0.157610
H29   H     H_    0.935495 0.379272 0.123776 0.136083
H30   H     H_    0.942120 0.377635 0.881836 0.201432
H31   H     H_    0.442025 0.122328 0.118162 0.201463
H32   H     H_    0.435422 0.120699 0.876233 0.136084
H33   H     H_    0.538387 0.868067 0.126131 0.157499
H34   H     H_    0.835070 0.741772 0.286985 0.121350
H35   H     H_    0.544395 0.870060 0.880020 0.130931
H36   H     H_    0.926548 0.616224 0.122815 0.186851
H37   H     H_    0.921205 0.611923 0.881339 0.228619
H38   H     H_    0.862681 0.469776 0.121140 0.213306
H39   H     H_    0.863961 0.464505 0.874960 0.226414
H40   H     H_    0.363926 0.035400 0.125029 0.226424
H41   H     H_    0.362654 0.030152 0.878842 0.213325
H42   H     H_    0.421304 0.887993 0.118684 0.228578
H43   H     H_    0.426598 0.883737 0.877199 0.186723
H44   H     H_    0.143815 0.505081 0.125803 0.135325
H45   H     H_    0.334940 0.758295 0.713077 0.121346
H46   H     H_    0.143365 0.509790 0.877822 0.124563
H47   H     H_    0.097748 0.399960 0.119658 0.139769
H48   H     H_    0.101542 0.402991 0.878228 0.140980
H49   H     H_    0.601465 0.097094 0.121757 0.140983
H50   H     H_    0.597700 0.100095 0.880334 0.139766
H51   H     H_    0.643384 0.990321 0.122201 0.124549
H52   H     H_    0.643823 0.994992 0.874220 0.135295
H53   H     H_    0.408470 0.709477 0.512929 0.136693
H54   H     H_    0.300689 0.192333 0.732349 0.136653
H55   H     H_    0.385674 0.292348 0.609481 0.128977
H56   H     H_    0.214247 0.673235 0.732594 0.131379
N1    N     N_3   0.001260 0.500000 0.143650 -0.262451
N2    N     N_3   0.001260 0.500000 0.856350 -0.280632
N3    N     N_3   0.501260 0.000000 0.143650 -0.280579
N4    N     N_3   0.501260 0.000000 0.856350 -0.262415
O1    O     O_R   0.091250 0.408820 0.620260 -0.512355
O2    O     O_R   0.908940 0.408800 0.379740 -0.515759
O3    O     O_R   0.908940 0.591200 0.620260 -0.436047
O4    O     O_R   0.908940 0.591200 0.379740 -0.487543
O5    O     O_R   0.408940 0.908800 0.620260 -0.487591
O6    O     O_R   0.408940 0.908800 0.379740 -0.436047
O7    O     O_R   0.408940 0.091200 0.620260 -0.515781
O8    O     O_R   0.408940 0.091200 0.379740 -0.437146
O9    O     O_R   0.091250 0.408820 0.379740 -0.528387
O10   O     O_R   0.091250 0.591180 0.620260 -0.517892
O11   O     O_R   0.091250 0.591180 0.379740 -0.529182
O12   O     O_R   0.591250 0.908820 0.620260 -0.529187
O13   O     O_R   0.591250 0.908820 0.379740 -0.517893
O14   O     O_R   0.591250 0.091180 0.620260 -0.528382
O15   O     O_R   0.591250 0.091180 0.379740 -0.512358
O16   O     O_R   0.908940 0.408800 0.620260 -0.437147

loop_
_geom_bond_atom_site_label_1
_geom_bond_atom_site_label_2
_ccdc_geom_bond_type
C47   H42   S    
C40   N1    S    
C46   H41   S    
C45   N1    S    
C9    Cl12  S    
C52   O2    A    
C45   H44   S    
C14   C31   S    
C40   H27   S    
C22   Cl2   S    
C21   H17   S    
C44   N3    S    
C6    C19   S    
C23   O13   A    
Cu2   O11   S    
C18   H14   S    
C25   Cl5   S    
C17   H13   S    
C6    Cl9   S    
C5    Cl1   S    
C19   H15   S    
C10   C15   S    
C46   N4    S    
C41   N2    S    
C39   H25   S    
C49   H48   S    
Cu4   O13   S    
C22   C38   S    
C24   C39   S    
C14   H56   S    
C11   C16   S    
C3    C29   S    
Cu3   N4    S    
C5    C27   S    
C20   C35   S    
C6    C27   S    
C11   C30   S    
Cu1   N2    S    
C47   H33   S    
C17   H4    S    
C3    O5    A    
C10   H53   S    
C26   Cl7   S    
C20   H7    S    
C11   Cl14  S    
C9    C29   S    
C40   H36   S    
C45   H47   S    
Cu4   O6    S    
C52   O16   A    
C41   H37   S    
Cu1   O16   S    
Cu2   O4    S    
C51   H52   S    
C50   H49   S    
C43   H39   S    
C1    O1    A    
C44   H31   S    
C44   C46   S    
C8    C21   S    
C15   H10   S    
C25   C29   S    
C6    H12   S    
Cu3   O14   S    
C13   C30   S    
C11   H54   S    
C33   C34   S    
Cu3   O5    S    
C19   C33   S    
C39   H26   S    
Cu3   O7    S    
C5    C18   S    
C8    Cl11  S    
Cu1   O10   S    
C46   H32   S    
C16   H11   S    
C2    O4    A    
C7    C28   S    
C2    O3    A    
C47   N3    S    
C24   Cl3   S    
C13   H55   S    
C19   H6    S    
C35   C39   S    
C9    C14   S    
C7    Cl10  S    
C4    O8    A    
C34   O15   A    
C47   C48   S    
C45   C49   S    
C38   H22   S    
C50   C51   S    
C41   H28   S    
C37   H21   S    
C3    O6    A    
C32   C37   S    
C16   H3    S    
C22   Cl16  S    
C48   H43   S    
C44   H40   S    
C36   H19   S    
C40   C41   S    
C26   C30   S    
C23   C35   S    
C22   C27   S    
C12   C31   S    
C8    C28   S    
C23   O12   A    
C16   C32   S    
C42   C43   S    
C42   H29   S    
C27   C52   S    
Cu4   N3    S    
C25   Cl6   S    
C13   Cl15  S    
C10   Cl13  S    
C36   H18   S    
C51   H50   S    
Cu2   O9    S    
Cu1   O1    S    
C37   H20   S    
C43   N2    S    
C50   H51   S    
C24   C28   S    
C8    H34   S    
C51   N4    S    
C26   C37   S    
C15   C31   S    
C21   C35   S    
C24   Cl4   S    
Cu4   O15   S    
C7    H23   S    
C49   N2    S    
C33   C38   S    
C12   O11   A    
C13   C17   S    
C42   H38   S    
C43   H30   S    
Cu3   Cu4   S    
C4    O7    A    
C34   O14   A    
C10   C29   S    
C18   H5    S    
C20   H16   S    
C21   H8    S    
C12   O10   A    
C42   N1    S    
C1    C32   S    
C5    H1    S    
Cu1   Cu2   S    
C18   C33   S    
C1    O9    A    
C50   N3    S    
C25   C36   S    
C48   H35   S    
C49   H46   S    
Cu4   O8    S    
C15   H2    S    
Cu1   O3    S    
C7    C20   S    
Cu2   N1    S    
C38   H24   S    
Cu2   O2    S    
C17   C32   S    
C31   C36   S    
C48   N4    S    
C2    C28   S    
C14   H9    S    
C26   Cl8   S    
C4    C30   S    
C9    H45   S    
Cu3   O12   S    
