data_mof_unit_5912.cif
_audit_creation_date              2012-12-11T14:01:40-0500
_audit_creation_method            fapswitch 2.2
_symmetry_space_group_name_H-M    P1
_symmetry_Int_Tables_number       1
_space_group_crystal_system       triclinic
_cell_length_a                    19.030309
_cell_length_b                    10.969011
_cell_length_c                    18.769408
_cell_angle_alpha                 90.286367
_cell_angle_beta                  89.894691
_cell_angle_gamma                 89.969755
_cell_volume                      3917.93896683

loop_
_atom_site_label
_atom_site_type_symbol
_atom_type_description
_atom_site_fract_x
_atom_site_fract_y
_atom_site_fract_z
_atom_type_partial_charge
C1    C     C_R   0.272452 0.042468 0.853539 0.557296
C2    C     C_R   0.993927 0.667237 0.967897 -0.125684
C3    C     C_R   0.478887 0.162483 0.040346 -0.127168
C4    C     C_R   0.493930 0.167237 0.967896 -0.125684
C5    C     C_2   0.248843 0.580059 0.920453 -0.112941
C6    C     C_2   0.751098 0.579292 0.079424 -0.112830
C7    C     C_2   0.748843 0.080060 0.920453 -0.112941
C8    C     C_2   0.251099 0.079292 0.079424 -0.112830
C9    C     C_2   0.250171 0.586321 0.077143 -0.106681
C10   C     C_2   0.749928 0.586959 0.923033 -0.106761
C11   C     C_2   0.750171 0.086321 0.077143 -0.106681
C12   C     C_R   0.727567 0.042144 0.146471 0.556710
C13   C     C_2   0.249928 0.086959 0.923034 -0.106762
C14   C     C_2   0.294475 0.520028 0.036850 -0.164349
C15   C     C_2   0.705146 0.521186 0.962647 -0.165824
C16   C     C_2   0.794475 0.020028 0.036850 -0.164348
C17   C     C_2   0.205146 0.021185 0.962647 -0.165824
C18   C     C_2   0.303385 0.545153 0.960875 -0.162179
C19   C     C_2   0.696410 0.545446 0.038798 -0.162042
C20   C     C_2   0.803385 0.045153 0.960875 -0.162179
C21   C     C_2   0.196410 0.045446 0.038798 -0.162042
C22   C     C_2   0.485855 0.828684 0.571382 -0.101507
C23   C     C_R   0.772452 0.542468 0.853539 0.557296
C24   C     C_2   0.487401 0.840193 0.415434 -0.111661
C25   C     C_2   0.985855 0.328684 0.571382 -0.101507
C26   C     C_2   0.987401 0.340193 0.415434 -0.111661
C27   C     C_2   0.467243 0.742560 0.451878 -0.163590
C28   C     C_2   0.452772 0.749778 0.527573 -0.150144
C29   C     C_2   0.967243 0.242561 0.451878 -0.163591
C30   C     C_2   0.952771 0.249779 0.527573 -0.150144
C31   C     C_2   0.246863 0.566187 0.582721 -0.110015
C32   C     C_2   0.753357 0.566688 0.416933 -0.105925
C33   C     C_2   0.746863 0.066187 0.582721 -0.110015
C34   C     C_R   0.227567 0.542144 0.146471 0.556710
C35   C     C_2   0.253357 0.066688 0.416933 -0.105925
C36   C     C_2   0.237959 0.570588 0.427672 -0.088030
C37   C     C_2   0.761995 0.569273 0.572233 -0.090872
C38   C     C_2   0.737959 0.070588 0.427672 -0.088030
C39   C     C_2   0.261995 0.069273 0.572233 -0.090873
C40   C     C_R   0.471921 0.822761 0.852818 0.541139
C41   C     C_R   0.528858 0.821749 0.146626 0.536809
C42   C     C_R   0.971922 0.322761 0.852818 0.541139
C43   C     C_R   0.028858 0.321749 0.146626 0.536809
C44   C     C_2   0.182502 0.559529 0.471826 -0.147866
C45   C     C_R   0.479091 0.050854 0.075509 -0.087987
C46   C     C_2   0.817579 0.559945 0.528005 -0.148190
C47   C     C_2   0.682502 0.059530 0.471826 -0.147867
C48   C     C_2   0.317579 0.059946 0.528006 -0.148191
C49   C     C_2   0.187200 0.584175 0.547436 -0.165340
C50   C     C_2   0.812827 0.585264 0.452556 -0.163979
C51   C     C_2   0.687200 0.084176 0.547436 -0.165339
C52   C     C_2   0.312827 0.085264 0.452556 -0.163980
C53   C     C_R   0.260917 0.636316 0.851426 0.552399
C54   C     C_R   0.739121 0.635904 0.148611 0.550769
C55   C     C_R   0.760917 0.136316 0.851426 0.552399
C56   C     C_R   0.504780 0.059757 0.929434 -0.081891
C57   C     C_R   0.239121 0.135904 0.148611 0.550769
C58   C     C_R   0.273956 0.042223 0.646305 0.551476
C59   C     C_R   0.726160 0.042935 0.353561 0.551099
C60   C     C_R   0.773956 0.542223 0.646305 0.551476
C61   C     C_R   0.226160 0.542935 0.353561 0.551099
C62   C     C_R   0.467951 0.823113 0.646110 0.547409
C63   C     C_R   0.527610 0.824808 0.350618 0.551861
C64   C     C_R   0.967951 0.323113 0.646110 0.547408
C65   C     C_R   0.027610 0.324808 0.350618 0.551861
C66   C     C_R   0.260120 0.634141 0.647293 0.552299
C67   C     C_R   0.979090 0.550852 0.075510 -0.087987
C68   C     C_R   0.739944 0.634348 0.352606 0.556110
C69   C     C_R   0.760120 0.134141 0.647293 0.552299
C70   C     C_R   0.239944 0.134348 0.352606 0.556110
C71   C     C_R   0.502881 0.828545 0.073503 0.003226
C72   C     C_R   0.501674 0.833034 0.924434 -0.001538
C73   C     C_R   0.002882 0.328545 0.073503 0.003226
C74   C     C_R   0.001674 0.333034 0.924434 -0.001538
C75   C     C_R   0.493968 0.941464 0.038230 0.024902
C76   C     C_R   0.500380 0.944883 0.963110 0.025940
C77   C     C_R   0.993968 0.441463 0.038230 0.024902
C78   C     C_R   0.004778 0.559757 0.929434 -0.081891
C79   C     C_R   0.000380 0.444883 0.963110 0.025940
C80   C     C_R   0.509496 0.723112 0.960795 -0.153919
C81   C     C_R   0.508379 0.720591 0.033629 -0.150032
C82   C     C_R   0.009497 0.223113 0.960795 -0.153919
C83   C     C_R   0.008381 0.220591 0.033629 -0.150032
C84   C     C_R   0.978885 0.662482 0.040346 -0.127169
Cr1   Cr    Cr6+3 0.230530 0.836340 0.748870 1.020695
Cr2   Cr    Cr6+3 0.614360 0.677860 0.250770 1.020074
Cr3   Cr    Cr6+3 0.885640 0.177860 0.749230 1.018260
Cr4   Cr    Cr6+3 0.114360 0.177860 0.250770 1.020074
Cr5   Cr    Cr6+3 0.769470 0.836340 0.251130 1.018031
Cr6   Cr    Cr6+3 0.730530 0.336340 0.748870 1.020695
Cr7   Cr    Cr6+3 0.269470 0.336340 0.251130 1.018031
Cr8   Cr    Cr6+3 0.387420 0.989430 0.750820 1.015068
Cr9   Cr    Cr6+3 0.612580 0.989430 0.249180 1.016665
Cr10  Cr    Cr6+3 0.887420 0.489430 0.750820 1.015067
Cr11  Cr    Cr6+3 0.112580 0.489430 0.249180 1.016665
Cr12  Cr    Cr6+3 0.385640 0.677860 0.749230 1.018260
H1    H     H_    0.512438 0.636435 0.932949 0.137248
H2    H     H_    0.857549 0.630201 0.427993 0.152245
H3    H     H_    0.642300 0.128371 0.572439 0.153350
H4    H     H_    0.357549 0.130201 0.427993 0.152245
H5    H     H_    0.290785 0.589839 0.446332 0.086264
H6    H     H_    0.709027 0.587185 0.553653 0.094941
H7    H     H_    0.790784 0.089838 0.446332 0.086264
H8    H     H_    0.209028 0.087184 0.553653 0.094942
H9    H     H_    0.466123 0.050944 0.131626 0.127951
H10   H     H_    0.518306 0.068028 0.873712 0.130938
H11   H     H_    0.966122 0.550942 0.131627 0.127951
H12   H     H_    0.514973 0.632438 0.058540 0.136853
H13   H     H_    0.018304 0.568029 0.873712 0.130938
H14   H     H_    0.968183 0.745716 0.069653 0.109526
H15   H     H_    0.996375 0.754395 0.941202 0.106441
H16   H     H_    0.468187 0.245718 0.069653 0.109526
H17   H     H_    0.496378 0.254395 0.941201 0.106441
H18   H     H_    0.323698 0.444137 0.059088 0.152044
H19   H     H_    0.675471 0.446096 0.939731 0.152977
H20   H     H_    0.823698 0.944137 0.059088 0.152044
H21   H     H_    0.175471 0.946096 0.939731 0.152977
H22   H     H_    0.356069 0.537989 0.938850 0.154322
H23   H     H_    0.012440 0.136436 0.932948 0.137248
H24   H     H_    0.643739 0.538682 0.060801 0.150450
H25   H     H_    0.856069 0.037989 0.938850 0.154322
H26   H     H_    0.143739 0.038681 0.060801 0.150450
H27   H     H_    0.222678 0.664165 0.054853 0.113145
H28   H     H_    0.777822 0.664157 0.945970 0.113261
H29   H     H_    0.722678 0.164165 0.054853 0.113145
H30   H     H_    0.277822 0.164158 0.945970 0.113261
H31   H     H_    0.196001 0.583541 0.942492 0.112026
H32   H     H_    0.803950 0.582266 0.057405 0.113663
H33   H     H_    0.696001 0.083541 0.942492 0.112026
H34   H     H_    0.014976 0.132438 0.058540 0.136854
H35   H     H_    0.303950 0.082266 0.057405 0.113663
H36   H     H_    0.467214 0.652312 0.427720 0.153546
H37   H     H_    0.417586 0.680538 0.548557 0.154288
H38   H     H_    0.967213 0.152313 0.427720 0.153546
H39   H     H_    0.917585 0.180541 0.548557 0.154288
H40   H     H_    0.483317 0.931162 0.438329 0.095150
H41   H     H_    0.520983 0.899290 0.552221 0.083930
H42   H     H_    0.983318 0.431162 0.438330 0.095150
H43   H     H_    0.020984 0.399289 0.552222 0.083930
H44   H     H_    0.290050 0.515143 0.559077 0.104102
H45   H     H_    0.130269 0.539741 0.451382 0.150732
H46   H     H_    0.710386 0.514945 0.440084 0.110811
H47   H     H_    0.790050 0.015144 0.559077 0.104102
H48   H     H_    0.210386 0.014945 0.440084 0.110811
H49   H     H_    0.869960 0.541427 0.548365 0.155618
H50   H     H_    0.630269 0.039743 0.451382 0.150732
H51   H     H_    0.369960 0.041429 0.548365 0.155618
H52   H     H_    0.142300 0.628371 0.572439 0.153350
O1    O     O_R   0.215090 0.709860 0.828130 -0.522786
O2    O     O_R   0.543740 0.718170 0.330000 -0.510576
O3    O     O_R   0.956260 0.218170 0.670000 -0.512099
O4    O     O_R   0.043740 0.218170 0.330000 -0.510575
O5    O     O_R   0.320940 0.626760 0.674370 -0.507286
O6    O     O_R   0.679060 0.626760 0.325630 -0.498253
O7    O     O_R   0.820940 0.126760 0.674370 -0.507286
O8    O     O_R   0.179060 0.126760 0.325630 -0.498253
O9    O     O_3   0.334530 0.834540 0.749640 -0.246741
O10   O     O_3   0.665470 0.834540 0.250360 -0.245115
O11   O     O_3   0.834530 0.334540 0.749640 -0.246741
O12   O     O_R   0.784910 0.709860 0.171870 -0.524060
O13   O     O_3   0.165470 0.334540 0.250360 -0.245115
O14   O     O_R   0.236990 0.958390 0.823710 -0.498636
O15   O     O_R   0.763010 0.958390 0.176290 -0.499044
O16   O     O_R   0.736990 0.458390 0.823710 -0.498636
O17   O     O_R   0.263010 0.458390 0.176290 -0.499044
O18   O     O_R   0.332380 0.074750 0.830850 -0.511091
O19   O     O_R   0.667620 0.074750 0.169150 -0.509780
O20   O     O_R   0.832380 0.574750 0.830850 -0.511091
O21   O     O_R   0.167620 0.574750 0.169150 -0.509780
O22   O     O_R   0.445800 0.917770 0.825070 -0.507781
O23   O     O_R   0.715090 0.209860 0.828130 -0.522786
O24   O     O_R   0.554200 0.917770 0.174930 -0.505827
O25   O     O_R   0.945800 0.417770 0.825070 -0.507781
O26   O     O_R   0.054200 0.417770 0.174930 -0.505826
O27   O     O_R   0.456410 0.716580 0.829970 -0.522259
O28   O     O_R   0.543590 0.716580 0.170030 -0.526486
O29   O     O_R   0.956410 0.216580 0.829970 -0.522259
O30   O     O_R   0.043590 0.216580 0.170030 -0.526486
O31   O     O_R   0.321080 0.625290 0.822650 -0.495869
O32   O     O_R   0.678920 0.625290 0.177350 -0.497125
O33   O     O_R   0.821080 0.125290 0.822650 -0.495869
O34   O     O_R   0.284910 0.209860 0.171870 -0.524060
O35   O     O_R   0.178920 0.125290 0.177350 -0.497125
O36   O     O_R   0.214930 0.711450 0.668160 -0.512202
O37   O     O_R   0.785070 0.711450 0.331840 -0.514946
O38   O     O_R   0.714930 0.211450 0.668160 -0.512202
O39   O     O_R   0.285070 0.211450 0.331840 -0.514946
O40   O     O_R   0.236850 0.959870 0.675420 -0.493766
O41   O     O_R   0.763150 0.959870 0.324580 -0.495282
O42   O     O_R   0.736850 0.459870 0.675420 -0.493766
O43   O     O_R   0.263150 0.459870 0.324580 -0.495282
O44   O     O_R   0.332230 0.076350 0.670880 -0.516827
O45   O     O_R   0.445660 0.919250 0.676780 -0.505655
O46   O     O_R   0.667770 0.076350 0.329120 -0.516048
O47   O     O_R   0.832230 0.576350 0.670880 -0.516827
O48   O     O_R   0.167770 0.576350 0.329120 -0.516048
O49   O     O_R   0.554340 0.919250 0.323220 -0.509573
O50   O     O_R   0.945660 0.419250 0.676780 -0.505655
O51   O     O_R   0.054340 0.419250 0.323220 -0.509574
O52   O     O_R   0.456260 0.718170 0.670000 -0.512099

loop_
_geom_bond_atom_site_label_1
_geom_bond_atom_site_label_2
_ccdc_geom_bond_type
C44   C49   S    
C43   C73   S    
C31   C66   S    
Cr9   O24   S    
Cr10  O11   S    
Cr1   O14   S    
Cr12  O27   S    
C64   O50   A    
C80   H1    S    
C14   C18   S    
C2    C84   A    
Cr9   O46   S    
C67   C77   A    
C24   C27   D    
C7    C55   S    
C75   C76   A    
C12   O19   A    
C40   O22   A    
C39   H8    S    
C43   O30   A    
C32   C68   S    
C33   H47   S    
C15   C19   S    
C6    C19   D    
C22   H41   S    
C69   O7    A    
C70   O8    A    
Cr4   O8    S    
C5    C53   S    
C11   H29   S    
Cr11  O26   S    
C6    C54   S    
C68   O6    A    
C10   C15   D    
Cr2   O2    S    
C37   H6    S    
C43   O26   A    
C73   C83   A    
C46   H49   S    
C22   C62   S    
C42   O29   A    
Cr4   O13   S    
C48   H51   S    
C16   H20   S    
C21   H26   S    
Cr6   O11   S    
C66   O36   A    
C65   O51   A    
C35   C70   S    
Cr8   O22   S    
C44   H45   S    
Cr6   O23   S    
C34   O17   A    
C40   C72   S    
C18   H22   S    
C32   H46   S    
C37   C46   D    
C33   C69   S    
C35   H48   S    
C41   C71   S    
C27   C28   S    
C24   H40   S    
Cr1   O40   S    
Cr12  O9    S    
C47   H50   S    
C67   C84   A    
Cr3   O3    S    
Cr2   O28   S    
C4    C56   A    
C53   O1    A    
C27   H36   S    
Cr4   O4    S    
C54   O12   A    
C60   O47   A    
Cr1   O9    S    
C82   H23   S    
C31   C49   D    
C53   O31   A    
C7    H33   S    
C55   O23   A    
C57   O34   A    
C45   H9    S    
C68   O37   A    
C77   C79   A    
C59   O46   A    
C51   H3    S    
C41   O24   A    
C2    H15   S    
C50   H2    S    
C42   C74   S    
C64   O3    A    
C58   O40   A    
C28   H37   S    
C4    H17   S    
Cr5   O10   S    
C83   H34   S    
Cr8   O45   S    
Cr10  O20   S    
C78   C79   A    
Cr4   O35   S    
C47   C51   S    
C5    C18   D    
Cr6   O38   S    
C14   H18   S    
C39   C58   S    
Cr7   O43   S    
C3    C45   A    
C84   H14   S    
C33   C51   D    
C63   O49   A    
C49   H52   S    
Cr6   O16   S    
Cr8   O9    S    
Cr10  O50   S    
C25   C64   S    
Cr9   O49   S    
C9    C14   D    
C63   O2    A    
C38   H7    S    
C2    C78   A    
C8    C57   S    
Cr3   O29   S    
C23   O20   A    
Cr11  O21   S    
C11   C16   D    
Cr12  O5    S    
C3    H16   S    
C16   C20   S    
C56   H10   S    
C5    H31   S    
C8    H35   S    
Cr2   O32   S    
C8    C21   D    
C55   O33   A    
C72   C76   A    
C36   H5    S    
Cr2   O10   S    
C61   O48   A    
C32   C50   D    
C38   C47   D    
C34   O21   A    
C70   O39   A    
C13   H30   S    
Cr11  O51   S    
C41   O28   A    
C19   H24   S    
C7    C20   D    
C24   C63   S    
C74   C79   A    
C58   O44   A    
C9    C34   S    
C15   H19   S    
C36   C44   D    
C1    C13   S    
C3    C4    A    
C57   O35   A    
Cr5   O12   S    
C20   H25   S    
C23   O16   A    
Cr6   O42   S    
C25   C30   D    
Cr12  O52   S    
Cr7   O39   S    
Cr5   O41   S    
Cr11  O48   S    
C25   H43   S    
C26   C65   S    
Cr5   O37   S    
Cr7   O17   S    
C80   C81   A    
C26   H42   S    
C42   O25   A    
Cr3   O33   S    
C40   O27   A    
Cr10  O47   S    
Cr4   O30   S    
C36   C61   S    
C17   H21   S    
C10   C23   S    
Cr1   O36   S    
C66   O5    A    
C46   C50   S    
C10   H28   S    
C13   C17   D    
C45   C75   A    
C65   O4    A    
Cr11  O13   S    
Cr2   O6    S    
C6    H32   S    
C72   C80   A    
C56   C76   A    
C12   O15   A    
C71   C75   A    
C67   H11   S    
C62   O52   A    
C1    O18   A    
Cr3   O11   S    
C9    H27   S    
C54   O32   A    
C29   H38   S    
C78   H13   S    
Cr3   O7    S    
Cr12  O31   S    
Cr9   O10   S    
Cr1   O1    S    
C81   H12   S    
C37   C60   S    
C59   O41   A    
C1    O14   A    
Cr10  O25   S    
C29   C30   S    
C38   C59   S    
Cr8   O18   S    
C48   C52   S    
Cr9   O19   S    
C26   C29   D    
C60   O42   A    
C30   H39   S    
Cr7   O34   S    
C35   C52   D    
C61   O43   A    
C52   H4    S    
C73   C77   A    
Cr7   O13   S    
C22   C28   D    
C62   O45   A    
C82   C83   A    
C31   H44   S    
C69   O38   A    
Cr5   O15   S    
C74   C82   A    
Cr8   O44   S    
C11   C12   S    
C39   C48   D    
C71   C81   A    
C17   C21   S    
