data_mof_unit_9431.cif
_audit_creation_date              2012-12-10T19:03:04-0500
_audit_creation_method            fapswitch 2.2
_symmetry_space_group_name_H-M    P1
_symmetry_Int_Tables_number       1
_space_group_crystal_system       triclinic
_cell_length_a                    10.786369
_cell_length_b                    10.825038
_cell_length_c                    9.53362
_cell_angle_alpha                 90.155965
_cell_angle_beta                  88.573812
_cell_angle_gamma                 90.973761
_cell_volume                      1112.66418751

loop_
_atom_site_label
_atom_site_type_symbol
_atom_type_description
_atom_site_fract_x
_atom_site_fract_y
_atom_site_fract_z
_atom_type_partial_charge
C1    C     C_R   0.499003 0.262306 0.499717 0.868054
C2    C     C_3   0.876998 0.498149 0.495901 0.044116
C3    C     C_3   0.928524 0.618419 0.564611 -0.333597
C4    C     C_3   0.932074 0.491979 0.345383 -0.414520
C5    C     C_R   0.491821 0.064071 0.625257 0.153064
C6    C     C_R   0.488026 0.129061 0.499493 -0.055353
C7    C     C_R   0.466672 0.063589 0.374613 -0.151125
C8    C     C_R   0.466317 0.934726 0.374965 -0.208191
C9    C     C_R   0.487059 0.870732 0.500262 -0.103987
C10   C     C_R   0.491176 0.937020 0.625802 0.134959
C11   C     C_3   0.582914 0.933148 0.740443 -0.475464
C12   C     C_R   0.259220 0.496042 0.502308 0.852626
C13   C     C_3   0.582879 0.073297 0.740188 -0.463817
C14   C     C_R   0.550026 0.597711 0.072851 0.256179
C15   C     C_R   0.444947 0.406814 0.075779 -0.061608
C16   C     C_R   0.446966 0.405745 0.927089 0.019125
C17   C     C_R   0.550152 0.597701 0.924987 0.247059
C18   C     C_3   0.682901 0.638639 0.917246 -0.497394
C19   C     C_3   0.681886 0.640239 0.075921 -0.497684
C20   C     C_R   0.498246 0.737720 0.500095 0.788849
C21   C     C_R   0.739874 0.500661 0.498218 0.772289
C22   C     C_3   0.059589 0.384658 0.602512 0.701080
C23   C     C_3   0.918283 0.379864 0.572812 -0.411811
C24   C     C_3   0.071982 0.618775 0.564530 -0.388854
C25   C     C_3   0.073555 0.484773 0.352080 -0.384875
C26   C     C_3   0.119988 0.493541 0.507522 -0.072926
Cu1   Cu    Cu3+1 0.499990 0.499980 0.640670 0.999649
Cu2   Cu    Cu3+1 0.500010 0.500020 0.359330 0.958962
H1    H     H_    0.906846 0.575696 0.285644 0.183106
H2    H     H_    0.108556 0.695612 0.497058 0.171709
H3    H     H_    0.897607 0.700044 0.504755 0.154563
H4    H     H_    0.455749 0.111299 0.276089 0.159806
H5    H     H_    0.455384 0.885979 0.276553 0.165645
H6    H     H_    0.541928 0.892695 0.838473 0.201015
H7    H     H_    0.673121 0.894262 0.704665 0.199694
H8    H     H_    0.541311 0.113449 0.837591 0.198521
H9    H     H_    0.673053 0.115662 0.705105 0.211468
H10   H     H_    0.401207 0.330735 0.132444 0.155357
H11   H     H_    0.406048 0.328008 0.872717 0.182572
H12   H     H_    0.743667 0.566557 0.871541 0.253856
H13   H     H_    0.696379 0.731583 0.870575 0.192961
H14   H     H_    0.743549 0.570028 0.120324 0.216058
H15   H     H_    0.691708 0.734577 0.121080 0.198129
H16   H     H_    0.894677 0.298797 0.505960 0.172255
H17   H     H_    0.862028 0.365109 0.670903 0.209151
H18   H     H_    0.105888 0.638412 0.671429 0.238226
H19   H     H_    0.889797 0.630338 0.672276 0.224634
H20   H     H_    0.113879 0.562654 0.288747 0.196619
H21   H     H_    0.104646 0.399749 0.298272 0.241573
H22   H     H_    0.894970 0.409995 0.288282 0.197377
N1    N     N_R   0.500800 0.500930 0.147930 -0.195389
N2    N     N_R   0.500800 0.500890 0.852020 -0.191668
O1    O     O_R   0.500000 0.319640 0.618810 -0.569159
O2    O     O_R   0.500010 0.319680 0.381230 -0.597047
O3    O     O_R   0.317690 0.499960 0.618790 -0.512828
O4    O     O_R   0.317700 0.500000 0.381210 -0.583192
O5    O     O_R   0.499990 0.680320 0.618770 -0.581939
O6    O     O_R   0.500000 0.680360 0.381190 -0.589726
O7    O     O_R   0.682300 0.500000 0.618790 -0.595212
O8    O     O_R   0.682310 0.500040 0.381210 -0.590711
S1    S     S_3+6 0.070693 0.405340 0.793736 -0.011924
O9    O     O_2   0.033634 0.285580 0.863995 -0.270950
O10   O     O_2   0.198790 0.439611 0.837837 -0.290106
O11   O     O_3   0.974599 0.513882 0.856288 -0.611929
H23   H     H_    0.979340 0.508447 0.959734 0.371589
S2    S     S_3+6 0.127317 0.234825 0.564035 0.004662
O12   O     O_2   0.034478 0.133706 0.599909 -0.302627
O13   O     O_2   0.166708 0.220675 0.412836 -0.331589
O14   O     O_3   0.252545 0.217251 0.663211 -0.526544
H24   H     H_    0.231672 0.148236 0.728042 0.377191

loop_
_geom_bond_atom_site_label_1
_geom_bond_atom_site_label_2
_ccdc_geom_bond_type
S1    O11   S    
S2    O13   D    
C1    O2    A    
Cu1   O1    S    
C15   H10   S    
C6    C7    A    
C23   H17   S    
C1    O1    A    
C15   N1    A    
C9    C10   A    
C9    C20   S    
C13   H9    S    
C4    H1    S    
C14   C17   A    
C19   H14   S    
O14   H24   S    
C24   H18   S    
O11   H23   S    
C2    C23   S    
C2    C21   S    
C11   H7    S    
S2    O12   D    
Cu2   O4    S    
C7    C8    A    
Cu1   O7    S    
C22   S1    S    
C3    H3    S    
C11   C13   S    
C25   H20   S    
C3    C24   S    
C12   O4    A    
C21   O8    A    
C5    C6    A    
C2    C4    S    
C5    C13   S    
C17   N2    A    
C3    H19   S    
C19   H15   S    
C21   O7    A    
Cu2   O6    S    
C8    H5    S    
Cu2   O8    S    
C14   N1    A    
Cu1   O5    S    
S1    O9    D    
C24   C26   S    
Cu2   N1    S    
C24   H2    S    
C12   O3    A    
C10   C11   S    
Cu1   O3    S    
C16   H11   S    
C20   O6    A    
C15   C16   A    
S2    O14   S    
C4    C25   S    
C5    C10   A    
C18   H12   S    
Cu1   N2    S    
C13   H8    S    
C17   C18   S    
C18   C19   S    
C22   C26   S    
C18   H13   S    
C12   C26   S    
Cu1   Cu2   S    
S1    O10   D    
Cu2   O2    S    
C22   C23   S    
C22   S2    S    
C2    C3    S    
C7    H4    S    
C1    C6    S    
C25   C26   S    
C20   O5    A    
C14   C19   S    
C11   H6    S    
C23   H16   S    
C16   N2    A    
C4    H22   S    
C8    C9    A    
C25   H21   S    
