data_mof_unit_60686.cif
_audit_creation_date              2012-12-10T19:04:15-0500
_audit_creation_method            fapswitch 2.2
_symmetry_space_group_name_H-M    P1
_symmetry_Int_Tables_number       1
_space_group_crystal_system       triclinic
_cell_length_a                    10.771234
_cell_length_b                    13.010529
_cell_length_c                    13.617025
_cell_angle_alpha                 85.838145
_cell_angle_beta                  89.503692
_cell_angle_gamma                 93.470492
_cell_volume                      1899.59659339

loop_
_atom_site_label
_atom_site_type_symbol
_atom_type_description
_atom_site_fract_x
_atom_site_fract_y
_atom_site_fract_z
_atom_type_partial_charge
Br1   Br    Br    0.164286 0.731349 0.442987 -0.356318
Br2   Br    Br    0.682208 0.020654 0.595226 -0.332970
Br3   Br    Br    0.853503 0.452762 0.723417 -0.315226
Br4   Br    Br    0.068285 0.277826 0.518717 -0.376982
Br5   Br    Br    0.884755 0.711825 0.404575 -0.372260
Br6   Br    Br    0.848520 0.694033 0.626078 -0.227639
C1    C     C_R   0.498940 0.481213 0.685237 0.973007
C2    C     C_1   0.496893 0.466262 0.788333 -0.075844
C3    C     C_2   0.462274 0.031836 0.479495 -0.294811
C4    C     C_R   0.742643 0.500899 0.502748 0.942905
C5    C     C_2   0.542749 0.967523 0.523625 0.212965
C6    C     C_1   0.528567 0.855083 0.518418 0.220932
C7    C     C_1   0.473159 0.144758 0.482745 0.290185
C8    C     C_R   0.501356 0.518798 0.314740 0.881451
C9    C     C_R   0.257291 0.500428 0.506015 0.995746
C10   C     C_3   0.918786 0.427776 0.592995 -0.039371
C11   C     C_3   0.060500 0.410588 0.582486 0.520642
C12   C     C_3   0.121429 0.505468 0.511597 -0.277050
C13   C     C_3   0.929522 0.473500 0.408964 -0.459467
C14   C     C_3   0.933586 0.622455 0.522158 0.405808
C15   C     C_3   0.878749 0.506986 0.508505 -0.202042
C16   C     C_3   0.072004 0.490083 0.405480 -0.493354
C17   C     C_3   0.080311 0.620396 0.535625 0.444267
C18   C     C_1   0.501787 0.533784 0.211594 -0.129223
C19   C     C_2   0.501275 0.544802 0.020415 -0.120985
C20   C     C_2   0.494147 0.455257 0.979461 -0.126591
C21   C     C_1   0.495231 0.457282 0.875734 0.077294
C22   C     C_1   0.501776 0.542771 0.124167 0.046800
H1    H     H_    0.867178 0.352799 0.582782 0.197721
H2    H     H_    0.300308 0.680073 0.738829 0.382399
H3    H     H_    0.889405 0.516217 0.344333 0.231053
H4    H     H_    0.098819 0.557608 0.353627 0.244080
H5    H     H_    0.488307 0.381665 0.023040 0.172755
H6    H     H_    0.507320 0.618386 0.976812 0.180325
H7    H     H_    0.384530 0.999174 0.439329 0.181778
H8    H     H_    0.901680 0.390921 0.400595 0.239628
H9    H     H_    0.112869 0.424616 0.371328 0.240709
H10   H     H_    0.290144 0.278243 0.738985 0.379231
N1    N     N_1   0.479840 0.234530 0.484780 -0.065178
N2    N     N_1   0.520150 0.765470 0.515220 -0.045124
O1    O     O_R   0.492620 0.402510 0.634760 -0.589791
O2    O     O_2   0.051241 0.304868 0.763149 -0.198857
O3    O     O_3   0.261151 0.304904 0.673695 -0.509560
O4    O     O_2   0.118479 0.780181 0.652407 -0.199304
O5    O     O_2   0.055408 0.616556 0.739986 -0.183250
O6    O     O_3   0.282036 0.646742 0.676994 -0.516259
O7    O     O_R   0.505570 0.572960 0.644530 -0.575966
O8    O     O_R   0.678730 0.414780 0.495130 -0.628309
O9    O     O_R   0.691680 0.585220 0.504900 -0.569613
O10   O     O_R   0.494430 0.427040 0.355470 -0.619487
O11   O     O_R   0.507380 0.597490 0.365240 -0.597851
O12   O     O_R   0.308320 0.414780 0.495100 -0.566261
O13   O     O_R   0.321270 0.585220 0.504870 -0.558629
O14   O     O_2   0.186428 0.462312 0.754070 -0.248415
S1    S     S_3+6 0.138896 0.374061 0.697765 0.111460
S2    S     S_3+6 0.131968 0.665567 0.654653 0.125624
Zn1   Zn    Zn3+2 0.491360 0.386190 0.493470 1.065446
Zn2   Zn    Zn3+2 0.508640 0.613810 0.506530 1.107775

loop_
_geom_bond_atom_site_label_1
_geom_bond_atom_site_label_2
_ccdc_geom_bond_type
C6    N2    T    
C9    C12   S    
O13   Zn2   S    
C10   C15   S    
C16   H9    S    
O2    S1    D    
O9    Zn2   S    
Br6   C14   S    
O4    S2    D    
C20   H5    S    
C8    O11   A    
C14   C17   S    
C19   H6    S    
C5    C6    S    
C13   H3    S    
C11   C12   S    
C19   C20   D    
O1    Zn1   S    
O8    Zn1   S    
O11   Zn2   S    
C9    O12   A    
O7    Zn2   S    
C3    C5    D    
C20   C21   S    
C8    O10   A    
C16   H4    S    
Br4   C11   S    
C9    O13   A    
O3    S1    S    
C13   C15   S    
Br1   C17   S    
C13   H8    S    
C1    O1    A    
C4    C15   S    
C4    O8    A    
H10   O3    S    
C7    N1    T    
N2    Zn2   S    
O12   Zn1   S    
Br2   C5    S    
O10   Zn1   S    
C8    C18   S    
C12   C17   S    
N1    Zn1   S    
C17   S2    S    
C13   C16   S    
C14   C15   S    
C3    H7    S    
C1    C2    S    
O6    S2    S    
Br5   C14   S    
C2    C21   T    
C11   S1    S    
O14   S1    D    
C3    C7    S    
C10   H1    S    
C12   C16   S    
C4    O9    A    
H2    O6    S    
Br3   C10   S    
C18   C22   T    
O5    S2    D    
C10   C11   S    
C19   C22   S    
C1    O7    A    
