data_mof_unit_9902.cif
_audit_creation_date              2012-12-10T17:05:44-0500
_audit_creation_method            fapswitch 2.2
_symmetry_space_group_name_H-M    P1
_symmetry_Int_Tables_number       1
_space_group_crystal_system       triclinic
_cell_length_a                    25.962928
_cell_length_b                    25.79231
_cell_length_c                    18.271399
_cell_angle_alpha                 90.694285
_cell_angle_beta                  134.872442
_cell_angle_gamma                 89.680987
_cell_volume                      8670.21180466

loop_
_atom_site_label
_atom_site_type_symbol
_atom_type_description
_atom_site_fract_x
_atom_site_fract_y
_atom_site_fract_z
_atom_type_partial_charge
Br1   Br    Br    0.632054 0.879799 0.584971 -0.054247
Br2   Br    Br    0.666870 0.270048 0.117922 -0.063946
Br3   Br    Br    0.053070 0.360942 0.118275 -0.076579
Br4   Br    Br    0.166746 0.770804 0.117989 -0.063054
Br5   Br    Br    0.726667 0.302734 0.713439 -0.063760
Br6   Br    Br    0.132177 0.379748 0.585276 -0.054096
Br7   Br    Br    0.227133 0.800413 0.716596 -0.062973
Br8   Br    Br    0.339224 0.694981 0.294618 -0.043179
Br9   Br    Br    0.347825 0.185226 0.321007 -0.085067
Br10  Br    Br    0.839496 0.194630 0.295016 -0.043562
Br11  Br    Br    0.851881 0.679439 0.329633 -0.085278
Br12  Br    Br    0.551108 0.860792 0.118503 -0.077773
C1    C     C_R   0.889629 0.749968 0.779868 0.481856
C2    C     C_R   0.512835 0.277456 0.583864 -0.015300
C3    C     C_R   0.189069 0.527113 0.439217 0.002727
C4    C     C_R   0.762657 0.557221 0.659947 0.009992
C5    C     C_R   0.795415 0.450272 0.688653 -0.001887
C6    C     C_R   0.262080 0.057193 0.659539 0.009938
C7    C     C_R   0.292999 0.949933 0.686910 -0.001380
C8    C     C_R   0.781688 0.530870 0.742395 -0.106712
C9    C     C_R   0.799408 0.479063 0.757819 -0.108434
C10   C     C_R   0.280189 0.030738 0.741250 -0.106745
C11   C     C_R   0.296902 0.978764 0.755946 -0.108641
C12   C     C_R   0.769939 0.474322 0.597401 0.024941
C13   C     C_R   0.016272 0.269637 0.583368 -0.027020
C14   C     C_R   0.760245 0.529614 0.588574 0.031627
C15   C     C_R   0.268912 0.974198 0.596657 0.025287
C16   C     C_R   0.259754 0.029563 0.588250 0.031480
C17   C     C_R   0.748150 0.554444 0.508130 0.040597
C18   C     C_R   0.752862 0.446398 0.513725 0.034570
C19   C     C_R   0.248199 0.054433 0.508243 0.040607
C20   C     C_R   0.252678 0.946377 0.513541 0.034988
C21   C     C_R   0.735926 0.525908 0.432006 -0.148552
C22   C     C_R   0.735562 0.472654 0.432659 -0.142266
C23   C     C_R   0.236411 0.025937 0.432433 -0.148980
C24   C     C_R   0.010789 0.780244 0.579452 -0.015493
C25   C     C_R   0.236105 0.972688 0.433056 -0.142549
C26   C     C_R   0.753275 0.890002 0.504061 0.500080
C27   C     C_R   0.752599 0.110099 0.501910 0.493458
C28   C     C_R   0.252802 0.390001 0.503503 0.499915
C29   C     C_R   0.252880 0.610103 0.502209 0.493318
C30   C     C_R   0.889378 0.749551 0.498883 0.501483
C31   C     C_R   0.891303 0.248355 0.501556 0.499479
C32   C     C_R   0.389387 0.249530 0.498924 0.501058
C33   C     C_R   0.391292 0.748374 0.501525 0.499223
C34   C     C_R   0.607129 0.754017 0.494297 0.502565
C35   C     C_R   0.558778 0.786322 0.566747 -0.000004
C36   C     C_R   0.612025 0.251427 0.503886 0.509734
C37   C     C_R   0.107146 0.254001 0.494343 0.502403
C38   C     C_R   0.111985 0.751349 0.503788 0.509467
C39   C     C_R   0.611055 0.826051 0.633208 0.058474
C40   C     C_R   0.636968 0.302748 0.676591 0.012158
C41   C     C_R   0.111088 0.326018 0.633386 0.058579
C42   C     C_R   0.134952 0.805511 0.672371 0.011081
C43   C     C_R   0.634093 0.836261 0.727943 -0.094856
C44   C     C_R   0.643908 0.327498 0.751594 -0.090427
C45   C     C_R   0.133954 0.336339 0.727977 -0.095049
C46   C     C_R   0.570184 0.277449 0.589103 0.002573
C47   C     C_R   0.139610 0.834108 0.742197 -0.090439
C48   C     C_R   0.602954 0.809971 0.755219 -0.014574
C49   C     C_R   0.587562 0.327426 0.745423 0.002616
C50   C     C_R   0.102723 0.310117 0.755165 -0.015064
C51   C     C_R   0.081896 0.836264 0.732984 0.004414
C52   C     C_3   0.453319 0.731035 0.297288 -0.352559
C53   C     C_3   0.492222 0.183131 0.365946 -0.387397
C54   C     C_3   0.953364 0.230977 0.297425 -0.352714
C55   C     C_3   0.994583 0.680454 0.370519 -0.387062
C56   C     C_3   0.458956 0.553371 0.883536 -0.393707
C57   C     C_R   0.058841 0.286266 0.566916 -0.000102
C58   C     C_3   0.250980 0.207742 0.880217 -0.401876
C59   C     C_3   0.954288 0.052857 0.884419 -0.393496
C60   C     C_3   0.751353 0.706746 0.880747 -0.401973
C61   C     C_3   0.618863 0.941195 0.363489 -0.377538
C62   C     C_3   0.616379 0.055622 0.365257 -0.376655
C63   C     C_3   0.118710 0.441477 0.365951 -0.378048
C64   C     C_3   0.116755 0.555837 0.369195 -0.376475
C65   C     C_3   0.898080 0.896950 0.712064 -0.361672
C66   C     C_3   0.902900 0.108586 0.611158 -0.366705
C67   C     C_3   0.400382 0.395080 0.704401 -0.362180
C68   C     C_R   0.068824 0.779148 0.586223 0.002744
C69   C     C_3   0.402944 0.609170 0.611084 -0.367082
C70   C     C_3   0.740971 0.613349 0.649396 -0.372438
C71   C     C_3   0.825760 0.396241 0.722625 -0.355432
C72   C     C_3   0.241395 0.113540 0.649803 -0.372629
C73   C     C_3   0.321462 0.895393 0.719702 -0.356528
C74   C     C_3   0.128454 0.321126 0.857622 -0.401267
C75   C     C_3   0.090747 0.865304 0.812898 -0.410724
C76   C     C_3   0.628970 0.820778 0.857914 -0.401230
C77   C     C_3   0.598984 0.351797 0.831009 -0.409395
C78   C     C_3   0.578027 0.554674 0.112097 -0.397406
C79   C     C_R   0.546068 0.763016 0.484230 0.006072
C80   C     C_3   0.358146 0.228262 0.105986 -0.401168
C81   C     C_3   0.073974 0.054266 0.112875 -0.397589
C82   C     C_3   0.859212 0.725227 0.107182 -0.401112
C83   C     C_R   0.558129 0.251107 0.508590 0.036307
C84   C     C_R   0.046121 0.262972 0.484365 0.006008
C85   C     C_R   0.891111 0.248714 0.779766 0.486530
C86   C     C_R   0.058135 0.750813 0.508545 0.036869
C87   C     C_R   0.477528 0.740858 0.399935 -0.031569
C88   C     C_R   0.494845 0.220739 0.433255 -0.019479
C89   C     C_R   0.977601 0.240779 0.400098 -0.031472
C90   C     C_R   0.996136 0.718884 0.435822 -0.019627
C91   C     C_R   0.428787 0.731606 0.408590 0.023522
C92   C     C_R   0.438115 0.222605 0.427807 0.008715
C93   C     C_R   0.928898 0.231467 0.408792 0.023409
C94   C     C_R   0.939653 0.720286 0.430980 0.008456
C95   C     C_R   0.447301 0.747195 0.499849 -0.006203
C96   C     C_R   0.389665 0.249993 0.779852 0.481489
C97   C     C_R   0.447191 0.251000 0.502267 0.023660
C98   C     C_R   0.947357 0.247121 0.499977 -0.006179
C99   C     C_R   0.946982 0.751068 0.501775 0.023779
C100  C     C_R   0.567048 0.651750 0.105964 -0.090712
C101  C     C_R   0.454344 0.235630 0.104727 -0.100516
C102  C     C_R   0.065439 0.151483 0.106224 -0.090561
C103  C     C_R   0.954845 0.734280 0.105146 -0.099796
C104  C     C_R   0.543112 0.604263 0.052453 0.027195
C105  C     C_R   0.380796 0.228297 0.049465 0.023052
C106  C     C_R   0.040198 0.103901 0.052970 0.026693
C107  C     C_R   0.391032 0.748807 0.779760 0.486489
C108  C     C_R   0.881424 0.726541 0.050131 0.023414
C109  C     C_R   0.487187 0.603671 0.943890 0.021944
C110  C     C_R   0.329004 0.221234 0.941593 0.025934
C111  C     C_R   0.984078 0.103257 0.944443 0.021654
C112  C     C_R   0.829377 0.720218 0.942067 0.025785
C113  C     C_R   0.610377 0.749540 0.219890 0.498775
C114  C     C_R   0.609005 0.249047 0.219672 0.502496
C115  C     C_R   0.110393 0.249534 0.219900 0.498782
C116  C     C_R   0.109050 0.749058 0.219690 0.502491
C117  C     C_R   0.457572 0.650645 0.891050 -0.092969
C118  C     C_R   0.543458 0.777254 0.682344 -0.074011
C119  C     C_R   0.350380 0.226796 0.890217 -0.088033
C120  C     C_R   0.955699 0.150248 0.891382 -0.093139
C121  C     C_R   0.850495 0.726459 0.890451 -0.088687
C122  C     C_R   0.479431 0.698587 0.944414 0.001651
C123  C     C_R   0.422880 0.238955 0.944248 0.005477
C124  C     C_R   0.978601 0.198352 0.944551 0.001435
C125  C     C_R   0.922961 0.738685 0.944386 0.005215
C126  C     C_R   0.534343 0.699153 0.053611 -0.008357
C127  C     C_R   0.476655 0.240890 0.053338 -0.010235
C128  C     C_R   0.033584 0.198976 0.053748 -0.008314
C129  C     C_R   0.522233 0.303184 0.661600 -0.073890
C130  C     C_R   0.976846 0.740354 0.053503 -0.010084
C131  C     C_R   0.556387 0.747339 0.107391 0.025217
C132  C     C_R   0.550877 0.247806 0.107042 0.025426
C133  C     C_R   0.056504 0.247266 0.107430 0.024896
C134  C     C_R   0.050946 0.747737 0.107094 0.025608
C135  C     C_R   0.526460 0.794071 0.052597 -0.006193
C136  C     C_R   0.569462 0.255011 0.051788 -0.000739
C137  C     C_R   0.027474 0.294019 0.052569 -0.006151
C138  C     C_R   0.069426 0.755346 0.051809 -0.000992
C139  C     C_R   0.474237 0.793131 0.945938 -0.140584
C140  C     C_R   0.043383 0.277281 0.682388 -0.073990
C141  C     C_R   0.515725 0.255024 0.944999 -0.140217
C142  C     C_R   0.975358 0.293006 0.945935 -0.141339
C143  C     C_R   0.015651 0.755358 0.945017 -0.140064
C144  C     C_R   0.449311 0.746270 0.891612 0.012265
C145  C     C_R   0.443184 0.247782 0.891422 0.015346
C146  C     C_R   0.949450 0.246099 0.891644 0.011581
C147  C     C_R   0.943159 0.747823 0.891475 0.015136
C148  C     C_R   0.891545 0.948690 0.668156 0.002775
C149  C     C_R   0.893113 0.053504 0.627520 -0.001296
C150  C     C_R   0.392482 0.447738 0.661966 0.005542
C151  C     C_R   0.017899 0.809638 0.652169 -0.073272
C152  C     C_R   0.393265 0.553386 0.624621 -0.001629
C153  C     C_R   0.956767 0.975351 0.723420 -0.116967
C154  C     C_R   0.957553 0.025865 0.700982 -0.115636
C155  C     C_R   0.457448 0.474216 0.714850 -0.114081
C156  C     C_R   0.457738 0.525258 0.694356 -0.115916
C157  C     C_R   0.824122 0.027945 0.570373 0.003064
C158  C     C_R   0.823808 0.973459 0.583003 0.007716
C159  C     C_R   0.324416 0.527809 0.568713 0.002564
C160  C     C_R   0.324234 0.473120 0.580297 0.007931
C161  C     C_R   0.749684 0.610111 0.501005 0.493205
C162  C     C_R   0.516242 0.769684 0.583245 -0.027042
C163  C     C_R   0.750603 0.390047 0.504443 0.496596
C164  C     C_R   0.249692 0.110109 0.501072 0.493093
C165  C     C_R   0.250570 0.890049 0.504222 0.496504
C166  C     C_R   0.756105 0.946326 0.509911 0.035979
C167  C     C_R   0.755753 0.054140 0.502669 0.041055
C168  C     C_R   0.256162 0.446278 0.509498 0.036570
C169  C     C_R   0.256077 0.554130 0.503134 0.041232
C170  C     C_R   0.689231 0.972600 0.437651 -0.006905
C171  C     C_R   0.688778 0.027010 0.437225 0.002142
C172  C     C_R   0.189300 0.472720 0.439168 -0.007086
H1    H     H_    0.417820 0.649024 0.807766 0.132839
H2    H     H_    0.009992 0.044200 0.745401 0.109779
H3    H     H_    0.687910 0.812354 0.921205 0.124899
H4    H     H_    0.620019 0.862263 0.862992 0.148934
H5    H     H_    0.551632 0.345349 0.819789 0.117061
H6    H     H_    0.647225 0.334346 0.905872 0.140660
H7    H     H_    0.608201 0.394109 0.834537 0.125416
H8    H     H_    0.620718 0.562103 0.196569 0.121338
H9    H     H_    0.536545 0.528918 0.095289 0.142918
H10   H     H_    0.603579 0.534522 0.090319 0.127598
H11   H     H_    0.401983 0.243233 0.185959 0.138153
H12   H     H_    0.311169 0.254469 0.067532 0.137484
H13   H     H_    0.509366 0.455399 0.774567 0.106109
H14   H     H_    0.342985 0.188398 0.107376 0.129835
H15   H     H_    0.116834 0.061746 0.197355 0.122508
H16   H     H_    0.031901 0.029358 0.096182 0.143159
H17   H     H_    0.099045 0.033161 0.091177 0.127132
H18   H     H_    0.903519 0.739075 0.187909 0.137287
H19   H     H_    0.812701 0.751658 0.070403 0.137710
H20   H     H_    0.843522 0.685179 0.106667 0.129607
H21   H     H_    0.510006 0.543487 0.737201 0.109876
H22   H     H_    0.726476 0.545218 0.371102 0.107032
H23   H     H_    0.723759 0.451573 0.370451 0.120354
H24   H     H_    0.227259 0.045275 0.371768 0.107052
H25   H     H_    0.224803 0.951650 0.371197 0.120023
H26   H     H_    0.784389 0.550862 0.797561 0.110369
H27   H     H_    0.817066 0.461351 0.825955 0.110590
H28   H     H_    0.282802 0.050741 0.796327 0.110262
H29   H     H_    0.309630 0.221126 0.807324 0.124504
H30   H     H_    0.313606 0.960927 0.823368 0.110115
H31   H     H_    0.674388 0.866205 0.778745 0.122716
H32   H     H_    0.694972 0.345882 0.817798 0.114127
H33   H     H_    0.174165 0.366337 0.778712 0.123077
H34   H     H_    0.190038 0.853617 0.807134 0.113707
H35   H     H_    0.518658 0.757976 0.703498 0.134338
H36   H     H_    0.479198 0.304075 0.658821 0.112523
H37   H     H_    0.018574 0.258000 0.703528 0.134391
H38   H     H_    0.974067 0.811646 0.647666 0.110594
H39   H     H_    0.612186 0.650979 0.188959 0.135827
H40   H     H_    0.916014 0.148453 0.808121 0.134666
H41   H     H_    0.493346 0.237166 0.187904 0.131780
H42   H     H_    0.110886 0.150661 0.189127 0.136723
H43   H     H_    0.994061 0.735399 0.188393 0.130853
H44   H     H_    0.397248 0.745533 0.232759 0.127664
H45   H     H_    0.486532 0.752771 0.290545 0.150171
H46   H     H_    0.455208 0.688902 0.286172 0.159219
H47   H     H_    0.439665 0.162847 0.306160 0.131928
H48   H     H_    0.503968 0.203468 0.325996 0.121323
H49   H     H_    0.534468 0.153017 0.415674 0.140264
H50   H     H_    0.897244 0.245398 0.232907 0.127161
H51   H     H_    0.809580 0.721228 0.807455 0.124747
H52   H     H_    0.986491 0.252794 0.290610 0.149980
H53   H     H_    0.955366 0.188856 0.286359 0.159257
H54   H     H_    0.942334 0.659740 0.311137 0.132033
H55   H     H_    0.006160 0.700261 0.329918 0.119323
H56   H     H_    0.037333 0.650843 0.421720 0.141898
H57   H     H_    0.438252 0.528203 0.907057 0.140218
H58   H     H_    0.413413 0.559784 0.799273 0.144740
H59   H     H_    0.503192 0.533018 0.898067 0.131945
H60   H     H_    0.248649 0.171145 0.909163 0.127140
H61   H     H_    0.225730 0.239244 0.887593 0.143609
H62   H     H_    0.451054 0.829401 0.904868 0.124536
H63   H     H_    0.218095 0.202281 0.796713 0.124489
H64   H     H_    0.932536 0.028990 0.907819 0.139935
H65   H     H_    0.909191 0.059241 0.800053 0.145485
H66   H     H_    0.998005 0.031152 0.899610 0.132327
H67   H     H_    0.748950 0.669730 0.908629 0.126988
H68   H     H_    0.726464 0.737893 0.889467 0.143090
H69   H     H_    0.718180 0.702073 0.797003 0.124663
H70   H     H_    0.619869 0.915317 0.315649 0.153199
H71   H     H_    0.613735 0.917130 0.408006 0.141955
H72   H     H_    0.568596 0.964264 0.309157 0.119926
H73   H     H_    0.530472 0.261933 0.903251 0.125808
H74   H     H_    0.620646 0.098419 0.372055 0.132543
H75   H     H_    0.585595 0.046038 0.283711 0.130939
H76   H     H_    0.584331 0.044152 0.381870 0.126840
H77   H     H_    0.118562 0.415840 0.316654 0.151313
H78   H     H_    0.114495 0.417157 0.411193 0.142723
H79   H     H_    0.068452 0.464658 0.312975 0.119846
H80   H     H_    0.121111 0.598623 0.376231 0.132861
H81   H     H_    0.084796 0.546451 0.287145 0.130123
H82   H     H_    0.085803 0.544265 0.387570 0.127119
H83   H     H_    0.953456 0.890507 0.789654 0.094590
H84   H     H_    0.952965 0.329311 0.904857 0.125218
H85   H     H_    0.862243 0.896158 0.724876 0.173679
H86   H     H_    0.886788 0.864518 0.661913 0.128878
H87   H     H_    0.960688 0.118189 0.657614 0.096550
H88   H     H_    0.873940 0.113734 0.529551 0.174668
H89   H     H_    0.885404 0.136979 0.636022 0.119957
H90   H     H_    0.456778 0.387897 0.779514 0.093448
H91   H     H_    0.367262 0.393318 0.721775 0.171522
H92   H     H_    0.386675 0.363565 0.651126 0.128978
H93   H     H_    0.460674 0.619168 0.657862 0.095891
H94   H     H_    0.373924 0.615690 0.529801 0.175922
H95   H     H_    0.030322 0.762511 0.903235 0.127223
H96   H     H_    0.385614 0.636434 0.637620 0.118924
H97   H     H_    0.737664 0.624365 0.704980 0.094989
H98   H     H_    0.781821 0.639763 0.666215 0.146977
H99   H     H_    0.685970 0.619967 0.571531 0.158733
H100  H     H_    0.845284 0.386479 0.797864 0.099824
H101  H     H_    0.783543 0.367293 0.666494 0.144578
H102  H     H_    0.873671 0.392964 0.734097 0.171730
H103  H     H_    0.238228 0.124697 0.705484 0.094630
H104  H     H_    0.282757 0.139537 0.667120 0.147460
H105  H     H_    0.186539 0.120634 0.572038 0.158856
H106  H     H_    0.008398 0.957224 0.786669 0.104331
H107  H     H_    0.339814 0.885436 0.794100 0.100056
H108  H     H_    0.278465 0.867116 0.662223 0.142918
H109  H     H_    0.369906 0.891254 0.732621 0.172115
H110  H     H_    0.099047 0.297083 0.868683 0.136918
H111  H     H_    0.187416 0.312853 0.921171 0.124579
H112  H     H_    0.119270 0.362615 0.862280 0.148939
H113  H     H_    0.041727 0.861677 0.798454 0.118842
H114  H     H_    0.137544 0.849419 0.890558 0.137616
H115  H     H_    0.100974 0.906936 0.812182 0.128122
H116  H     H_    0.599586 0.796724 0.868999 0.136783
O1    O     O_3   0.750020 0.750020 0.500000 -0.440734
O2    O     O_R   0.750010 0.134170 0.560720 -0.545999
O3    O     O_R   0.250010 0.365830 0.560720 -0.554484
O4    O     O_R   0.250010 0.634170 0.560720 -0.546095
O5    O     O_R   0.896180 0.719660 0.731600 -0.540381
O6    O     O_R   0.896180 0.280340 0.731600 -0.560458
O7    O     O_R   0.396180 0.219660 0.731600 -0.541211
O8    O     O_R   0.396180 0.780340 0.731600 -0.560227
O9    O     O_R   0.664580 0.780370 0.268400 -0.524707
O10   O     O_R   0.664580 0.219630 0.268400 -0.523167
O11   O     O_R   0.164580 0.280370 0.268400 -0.524263
O12   O     O_3   0.750020 0.249980 0.500000 -0.440132
O13   O     O_R   0.164580 0.719630 0.268400 -0.523233
O14   O     O_R   0.835450 0.780390 0.731600 -0.554923
O15   O     O_R   0.835450 0.219610 0.731600 -0.541103
O16   O     O_R   0.335450 0.280390 0.731600 -0.554152
O17   O     O_R   0.335450 0.719610 0.731600 -0.540398
O18   O     O_R   0.603870 0.719650 0.268400 -0.555639
O19   O     O_R   0.603870 0.280350 0.268400 -0.549976
O20   O     O_R   0.103870 0.219650 0.268400 -0.556240
O21   O     O_R   0.103870 0.780350 0.268400 -0.549437
O22   O     O_R   0.810750 0.634210 0.560720 -0.532500
O23   O     O_3   0.250020 0.250020 0.500000 -0.440747
O24   O     O_R   0.810750 0.365790 0.560720 -0.549895
O25   O     O_R   0.310750 0.134210 0.560720 -0.532535
O26   O     O_R   0.310750 0.865790 0.560720 -0.549273
O27   O     O_R   0.750010 0.865820 0.439280 -0.532427
O28   O     O_R   0.750010 0.134180 0.439280 -0.551762
O29   O     O_R   0.250010 0.365820 0.439280 -0.532461
O30   O     O_R   0.250010 0.634180 0.439280 -0.551499
O31   O     O_R   0.896180 0.719650 0.560720 -0.535298
O32   O     O_R   0.896180 0.280350 0.560720 -0.541569
O33   O     O_R   0.396180 0.219650 0.560720 -0.537378
O34   O     O_3   0.250020 0.749980 0.500000 -0.440309
O35   O     O_R   0.396180 0.780350 0.560720 -0.541395
O36   O     O_R   0.664570 0.780390 0.560720 -0.538399
O37   O     O_R   0.664570 0.219610 0.560720 -0.531268
O38   O     O_R   0.164570 0.280390 0.560720 -0.538369
O39   O     O_R   0.164570 0.719610 0.560720 -0.531490
O40   O     O_R   0.835460 0.780370 0.439280 -0.535666
O41   O     O_R   0.835460 0.219630 0.439280 -0.532830
O42   O     O_R   0.335460 0.280370 0.439280 -0.534428
O43   O     O_R   0.335460 0.719630 0.439280 -0.533397
O44   O     O_R   0.603860 0.719660 0.439280 -0.547084
O45   O     O_R   0.689310 0.634210 0.439280 -0.553263
O46   O     O_R   0.603860 0.280340 0.439280 -0.544722
O47   O     O_R   0.103860 0.219660 0.439280 -0.547128
O48   O     O_R   0.103860 0.780340 0.439280 -0.544539
O49   O     O_R   0.689310 0.365790 0.439280 -0.530108
O50   O     O_R   0.189310 0.134210 0.439280 -0.553488
O51   O     O_R   0.189310 0.865790 0.439280 -0.530591
O52   O     O_R   0.750010 0.865830 0.560720 -0.555407
Zn1   Zn    Zn3+2 0.663270 0.706640 0.413250 0.908070
Zn2   Zn    Zn3+2 0.750020 0.206610 0.413240 0.935120
Zn3   Zn    Zn3+2 0.250020 0.293390 0.413240 0.941998
Zn4   Zn    Zn3+2 0.250020 0.706610 0.413240 0.935014
Zn5   Zn    Zn3+2 0.750010 0.793400 0.586760 0.906078
Zn6   Zn    Zn3+2 0.750010 0.206600 0.586760 0.919830
Zn7   Zn    Zn3+2 0.250010 0.293400 0.586760 0.906853
Zn8   Zn    Zn3+2 0.250010 0.706600 0.586760 0.919731
Zn9   Zn    Zn3+2 0.663270 0.293360 0.413250 0.932963
Zn10  Zn    Zn3+2 0.163270 0.206640 0.413250 0.907554
Zn11  Zn    Zn3+2 0.163270 0.793360 0.413250 0.932919
Zn12  Zn    Zn3+2 0.836780 0.706640 0.586750 0.929201
Zn13  Zn    Zn3+2 0.836780 0.293360 0.586750 0.910633
Zn14  Zn    Zn3+2 0.336780 0.206640 0.586750 0.927625
Zn15  Zn    Zn3+2 0.336780 0.793360 0.586750 0.911046
Zn16  Zn    Zn3+2 0.750020 0.793390 0.413240 0.941657

loop_
_geom_bond_atom_site_label_1
_geom_bond_atom_site_label_2
_ccdc_geom_bond_type
C2    C97   A    
C87   C91   A    
C93   C98   A    
C121  C125  A    
C67   H92   S    
C117  H1    S    
C130  C134  A    
O12   Zn2   S    
C60   H69   S    
C124  C128  A    
C41   C57   A    
C33   O35   A    
O28   Zn2   S    
C118  C162  A    
C51   C151  A    
O2    Zn6   S    
C85   O6    A    
C50   C140  A    
C112  C121  A    
C54   H50   S    
C13   C140  A    
C69   H93   S    
C142  C146  A    
C126  C131  A    
C52   H45   S    
O4    Zn8   S    
C17   C21   A    
C55   H56   S    
C88   C92   A    
C31   O32   A    
C170  C171  A    
C134  C138  A    
C10   H28   S    
C6    C72   S    
O38   Zn7   S    
C31   C98   S    
C78   C104  S    
C81   H17   S    
O23   Zn3   S    
C58   H63   S    
C94   C99   A    
C72   H104  S    
C141  H73   S    
O31   Zn12  S    
C140  H37   S    
C60   C112  S    
C34   O36   A    
O15   Zn6   S    
O47   Zn10  S    
C164  O50   A    
O37   Zn6   S    
C63   H79   S    
Br3   C137  S    
O39   Zn8   S    
C75   H113  S    
C100  C126  A    
C152  C156  A    
C81   H16   S    
O3    Zn7   S    
C24   C68   A    
C34   C79   S    
C80   H12   S    
C86   C90   A    
O13   Zn4   S    
O6    Zn13  S    
C5    C9    A    
C74   H111  S    
C107  O17   A    
O45   Zn1   S    
O34   Zn11  S    
C56   C109  S    
C123  C127  A    
C103  H43   S    
C113  O18   A    
C101  H41   S    
C115  O20   A    
C4    C8    A    
C3    C172  A    
C24   C99   A    
C66   H87   S    
Br1   C39   S    
C166  C170  A    
C71   H102  S    
C40   C46   A    
C115  C133  S    
C158  C166  A    
O7    Zn14  S    
O34   Zn4   S    
C13   C57   A    
C136  C141  A    
C113  O9    A    
C28   O29   A    
O29   Zn3   S    
C53   H48   S    
C154  H2    S    
C159  C169  A    
C7    C73   S    
C128  C133  A    
O23   Zn10  S    
C62   H76   S    
C22   H23   S    
Br4   C138  S    
C55   H54   S    
C47   C51   A    
O35   Zn15  S    
O36   Zn5   S    
C163  O49   A    
C78   H9    S    
C32   O42   A    
C82   H18   S    
C39   C43   A    
O24   Zn13  S    
C35   C162  A    
O26   Zn15  S    
C58   H61   S    
C61   H70   S    
C65   H83   S    
C23   H24   S    
C8    C9    A    
C10   C11   A    
O10   Zn2   S    
C91   C95   A    
C59   H65   S    
C168  C172  A    
C153  H106  S    
C125  C130  A    
C63   H77   S    
C123  C145  A    
C64   H82   S    
C111  C120  A    
C119  H29   S    
C46   C83   A    
C139  H62   S    
C48   C76   S    
O1    Zn16  S    
C78   H8    S    
C50   C74   S    
C38   O48   A    
C12   C14   A    
C129  H36   S    
C43   H31   S    
C114  O19   A    
C116  O13   A    
O25   Zn14  S    
C143  H95   S    
C71   H100  S    
O49   Zn9   S    
C82   C108  S    
C52   C87   S    
C18   C163  S    
C24   C151  A    
C77   H6    S    
C101  C127  A    
C102  C128  A    
O19   Zn9   S    
O44   Zn1   S    
C165  O26   A    
C149  C157  A    
C64   H80   S    
C28   C168  S    
C54   C89   S    
C80   H14   S    
C63   C172  S    
C19   C164  S    
C62   H74   S    
C38   C86   S    
C18   C22   A    
C143  C147  A    
C6    C16   A    
C26   O52   A    
O30   Zn4   S    
C96   C145  S    
O8    Zn15  S    
C28   O3    A    
C135  C139  A    
C105  C110  A    
C61   H72   S    
C161  O45   A    
C58   C110  S    
O48   Zn11  S    
C56   H57   S    
C120  C124  A    
C73   H109  S    
C20   C25   A    
C30   O31   A    
C101  C105  A    
O9    Zn16  S    
C49   C129  A    
C32   O33   A    
C33   O43   A    
C8    H26   S    
C138  C143  A    
C69   C152  S    
C65   H85   S    
C82   H20   S    
C70   H98   S    
C110  C119  A    
C100  C104  A    
C73   H108  S    
O50   Zn10  S    
C67   H91   S    
C6    C10   A    
O46   Zn9   S    
C27   C167  S    
C27   O28   A    
O20   Zn10  S    
C95   C162  A    
C29   O30   A    
C85   C146  S    
O1    Zn1   S    
C165  O51   A    
C52   H46   S    
C116  C134  S    
C113  C131  S    
C55   H55   S    
C38   O39   A    
C34   O44   A    
C60   H67   S    
O33   Zn14  S    
C44   H32   S    
C31   O41   A    
C163  O24   A    
C150  C160  A    
C66   C149  S    
C156  H21   S    
C1    O14   A    
C79   C87   A    
C43   C48   A    
C157  C167  A    
C33   C95   S    
C107  C144  S    
O40   Zn16  S    
C27   O2    A    
C1    O5    A    
Br12  C135  S    
C53   H49   S    
C81   H15   S    
C56   H59   S    
C74   H112  S    
C116  O21   A    
C26   O27   A    
C76   H3    S    
C122  C144  A    
C76   H116  S    
C66   H88   S    
O16   Zn7   S    
C42   C47   A    
C71   H101  S    
O1    Zn12  S    
C32   C97   S    
C160  C168  A    
C3    C64   S    
C103  C130  A    
C84   C89   A    
C29   C169  S    
C59   H64   S    
C29   O4    A    
O5    Zn12  S    
C42   C68   A    
C4    C14   A    
C2    C46   A    
C125  C147  A    
C69   H94   S    
O17   Zn8   S    
C104  C109  A    
O22   Zn12  S    
C155  C156  A    
C41   C45   A    
C83   C88   A    
C35   C39   A    
C96   O16   A    
C57   C84   A    
C137  C142  A    
C102  H42   S    
O18   Zn1   S    
C78   H10   S    
O27   Zn16  S    
Br11  C94   S    
C155  H13   S    
O14   Zn5   S    
C139  C144  A    
O42   Zn3   S    
C72   H103  S    
C100  H39   S    
C19   C23   A    
C20   C165  S    
C67   C150  S    
O12   Zn13  S    
O43   Zn4   S    
C151  H38   S    
C59   C111  S    
C68   C86   A    
C15   C20   A    
C120  H40   S    
C75   H114  S    
C35   C79   A    
C16   C19   A    
C53   C88   S    
C109  C117  A    
C47   H34   S    
C119  C123  A    
C74   H110  S    
O12   Zn6   S    
C61   C170  S    
C45   H33   S    
C37   O47   A    
Br9   C92   S    
C3    C169  A    
C106  C111  A    
C141  C145  A    
C118  H35   S    
Br8   C91   S    
C65   C148  S    
C117  C122  A    
O11   Zn3   S    
C77   H5    S    
C44   C49   A    
Br7   C42   S    
O21   Zn11  S    
C133  C137  A    
C11   H30   S    
C37   O38   A    
C159  C160  A    
C153  C154  A    
C26   C166  S    
C36   C83   S    
C69   H96   S    
C157  C158  A    
C7    C11   A    
C132  C136  A    
C80   H11   S    
O23   Zn7   S    
C45   C50   A    
C62   H75   S    
C131  C135  A    
C23   C25   A    
C142  H84   S    
C92   C97   A    
O51   Zn11  S    
Br2   C136  S    
C121  H51   S    
C114  C132  S    
C161  O22   A    
C58   H60   S    
C61   H71   S    
C72   H105  S    
C96   O7    A    
C56   H58   S    
O32   Zn13  S    
Br5   C40   S    
O34   Zn15  S    
O41   Zn2   S    
C7    C15   A    
C59   H66   S    
C149  C154  A    
C164  O25   A    
C2    C129  A    
C64   H81   S    
C70   H99   S    
C49   C77   S    
C167  C171  A    
C89   C93   A    
C73   H107  S    
C21   H22   S    
C5    C12   A    
C114  O10   A    
C107  O8    A    
O34   Zn8   S    
C48   C118  A    
C62   C171  S    
C148  C153  A    
C9    H27   S    
C54   H52   S    
C5    C71   S    
C30   C99   S    
C127  C132  A    
O23   Zn14  S    
C4    C70   S    
C21   C22   A    
C77   H7    S    
C60   H68   S    
C25   H25   S    
C102  C106  A    
O1    Zn5   S    
C13   C98   A    
C80   C105  S    
C54   H53   S    
C81   C106  S    
C52   H44   S    
C36   O37   A    
C51   C75   S    
C17   C161  S    
Br10  C93   S    
C122  C126  A    
C67   H90   S    
C115  O11   A    
C75   H115  S    
C124  C146  A    
C36   O46   A    
C53   H47   S    
C1    C147  S    
C90   C94   A    
C37   C84   S    
C12   C18   A    
O12   Zn9   S    
C63   H78   S    
C150  C155  A    
C108  C112  A    
C76   H4    S    
C30   O40   A    
C14   C17   A    
C103  C108  A    
C15   C16   A    
C85   O15   A    
C148  C158  A    
C65   H86   S    
C152  C159  A    
C82   H19   S    
Br6   C41   S    
C66   H89   S    
O52   Zn5   S    
C70   H97   S    
C40   C44   A    
C55   C90   S    
