data_mof_unit_45662.cif
_audit_creation_date              2012-10-26T20:00:44-0400
_audit_creation_method            fapswitch 2.2
_symmetry_space_group_name_H-M    P1
_symmetry_Int_Tables_number       1
_space_group_crystal_system       triclinic
_cell_length_a                    11.685666
_cell_length_b                    12.968173
_cell_length_c                    13.461681
_cell_angle_alpha                 92.69861
_cell_angle_beta                  77.521162
_cell_angle_gamma                 99.714533
_cell_volume                      1963.13240918

loop_
_atom_site_label
_atom_site_type_symbol
_atom_type_description
_atom_site_fract_x
_atom_site_fract_y
_atom_site_fract_z
_atom_type_partial_charge
C1    C     C_R   0.521186 0.700813 0.500036 0.588455
C2    C     C_R   0.403711 0.458512 0.804635 -0.019444
C3    C     C_R   0.458746 0.186879 0.534630 0.005012
C4    C     C_R   0.437466 0.484682 0.694895 0.551572
C5    C     C_R   0.531910 0.814250 0.499413 0.016866
C6    C     C_R   0.647396 0.984991 0.460657 -0.105517
C7    C     C_R   0.637506 0.877096 0.450130 0.047708
C8    C     C_R   0.433403 0.860990 0.547278 0.035730
C9    C     C_R   0.435752 0.967878 0.532541 0.034986
C10   C     C_R   0.548188 0.030727 0.506765 0.012760
C11   C     C_R   0.559524 0.137589 0.529535 -0.003694
C12   C     C_R   0.454854 0.450367 0.971870 0.024730
C13   C     C_R   0.343984 0.125071 0.553216 0.081594
C14   C     C_R   0.332008 0.014728 0.547842 0.049409
C15   C     C_R   0.957839 0.610403 0.575651 -0.131237
C16   C     C_R   0.475180 0.300065 0.512828 0.569622
C17   C     C_R   0.836072 0.599081 0.575800 0.166213
C18   C     C_R   0.852060 0.449157 0.466689 0.047941
C19   C     C_R   0.974473 0.456778 0.469498 0.013178
C20   C     C_R   0.026358 0.539301 0.525097 -0.020570
C21   C     C_R   0.147059 0.550067 0.529936 0.048377
C22   C     C_R   0.168025 0.400070 0.426248 0.100912
C23   C     C_R   0.490352 0.452926 0.864282 0.019328
C24   C     C_R   0.047809 0.386035 0.418802 0.046149
C25   C     C_R   0.562394 0.501258 0.304685 0.584193
C26   C     C_R   0.745265 0.548299 0.040621 0.099392
C27   C     C_R   0.598014 0.499285 0.194164 -0.007850
C28   C     C_R   0.282879 0.442945 0.852285 -0.087450
C29   C     C_R   0.248079 0.431994 0.957318 0.113138
C30   C     C_R   0.333038 0.442434 0.016805 -0.066329
C31   C     C_3   0.212445 0.950187 0.539509 -0.260239
C32   C     C_3   0.177166 0.972254 0.440458 -0.399385
C33   C     C_3   0.769679 0.683218 0.633053 -0.247195
C34   C     C_R   0.543718 0.465184 0.030961 0.028383
C35   C     C_3   0.811921 0.728328 0.728783 -0.461224
C36   C     C_3   0.671028 0.191496 0.565837 -0.269854
C37   C     C_3   0.704047 0.128837 0.646397 -0.425285
C38   C     C_R   0.663248 0.501251 0.982692 0.043951
C39   C     C_R   0.697650 0.484598 0.878506 -0.122993
C40   C     C_R   0.612216 0.452083 0.821631 -0.117531
C41   C     C_R   0.518759 0.447815 0.136096 0.049857
C42   C     C_R   0.709905 0.551305 0.146124 -0.100094
Cu1   Cu    Cu3+1 0.386470 0.492430 0.492410 1.015206
Cu2   Cu    Cu3+1 0.613530 0.507570 0.507590 0.948810
H1    H     H_    0.770762 0.592272 0.190633 0.184494
H2    H     H_    0.645142 0.427046 0.744943 0.154515
H3    H     H_    0.168220 0.055425 0.435207 0.206247
H4    H     H_    0.245018 0.952311 0.374132 0.177177
H5    H     H_    0.090507 0.923315 0.436573 0.170376
H6    H     H_    0.214262 0.865222 0.537102 0.167093
H7    H     H_    0.142398 0.964891 0.606218 0.191402
H8    H     H_    0.828584 0.665332 0.773809 0.181637
H9    H     H_    0.893821 0.787173 0.708500 0.164705
H10   H     H_    0.742749 0.768761 0.777059 0.170847
H11   H     H_    0.778465 0.749261 0.581038 0.179922
H12   H     H_    0.731692 0.033241 0.429973 0.167783
H13   H     H_    0.675461 0.653169 0.660155 0.216093
H14   H     H_    0.624808 0.104004 0.707621 0.178494
H15   H     H_    0.741983 0.059070 0.613057 0.169390
H16   H     H_    0.772621 0.178665 0.681002 0.163493
H17   H     H_    0.747117 0.207056 0.500182 0.171146
H18   H     H_    0.657291 0.266190 0.605930 0.175011
H19   H     H_    0.185824 0.612774 0.573952 0.154608
H20   H     H_    0.222972 0.344574 0.389176 0.183828
H21   H     H_    0.000881 0.675174 0.615008 0.117765
H22   H     H_    0.790403 0.492927 0.841000 0.147277
H23   H     H_    0.810784 0.388375 0.422161 0.158142
H24   H     H_    0.215107 0.441029 0.808304 0.173446
H25   H     H_    0.302237 0.447063 0.098181 0.168488
I1    I     I_    0.187955 0.194756 0.612852 -0.369812
I2    I     I_    0.786167 0.817958 0.359870 -0.341461
I3    I     I_    0.316441 0.787569 0.679823 -0.382985
I4    I     I_    0.985732 0.256193 0.331816 -0.348846
I5    I     I_    0.915704 0.631116 0.974394 -0.315947
I6    I     I_    0.400408 0.309202 0.196514 -0.320305
I7    I     I_    0.066509 0.401754 0.028039 -0.239342
N1    N     N_R   0.215880 0.481050 0.481000 -0.246256
N2    N     N_R   0.784100 0.518950 0.519000 -0.237945
O1    O     O_R   0.419710 0.645650 0.494620 -0.487282
O2    O     O_R   0.611450 0.658430 0.507430 -0.502903
O3    O     O_R   0.357340 0.490460 0.641450 -0.479255
O4    O     O_R   0.549080 0.503250 0.654260 -0.548592
O5    O     O_R   0.388550 0.341570 0.492570 -0.471707
O6    O     O_R   0.580290 0.354350 0.505380 -0.534271
O7    O     O_R   0.450920 0.496750 0.345740 -0.479820
O8    O     O_R   0.642660 0.509540 0.358550 -0.484227

loop_
_geom_bond_atom_site_label_1
_geom_bond_atom_site_label_2
_ccdc_geom_bond_type
C33   H11   S    
C35   H9    S    
Cu1   O5    S    
C19   C20   A    
C14   C31   S    
Cu1   Cu2   S    
C29   I7    S    
C40   H2    S    
C12   C23   A    
C1    C5    S    
C28   C29   A    
C28   H24   S    
Cu2   O4    S    
C7    I2    S    
C38   C39   A    
C36   H18   S    
C24   I4    S    
C13   I1    S    
Cu1   O1    S    
C23   C40   A    
C15   H21   S    
C16   O6    A    
C18   C19   A    
C17   N2    A    
C26   I5    S    
C4    O3    A    
C32   H3    S    
C8    C9    A    
C9    C10   A    
C37   H14   S    
C3    C13   A    
C13   C14   A    
C35   H10   S    
C32   H4    S    
C34   C41   A    
C17   C33   S    
Cu2   O8    S    
C15   C20   A    
C8    I3    S    
Cu1   O7    S    
Cu2   O2    S    
C6    H12   S    
C39   C40   A    
C5    C7    A    
C26   C38   A    
C18   H23   S    
C16   O5    A    
C42   H1    S    
C2    C4    S    
C9    C14   A    
C29   C30   A    
C41   I6    S    
C27   C41   A    
C31   C32   S    
C18   N2    A    
C25   O7    A    
C37   H15   S    
Cu1   O3    S    
C39   H22   S    
C22   C24   A    
C25   C27   S    
C31   H6    S    
C12   C34   A    
C36   H17   S    
C2    C23   A    
C30   H25   S    
C26   C42   A    
C15   C17   A    
C11   C36   S    
C33   H13   S    
C12   C30   A    
C34   C38   A    
C22   N1    A    
C31   H7    S    
Cu2   O6    S    
C6    C10   A    
C5    C8    A    
C6    C7    A    
Cu1   N1    S    
Cu2   N2    S    
C19   C24   A    
C27   C42   A    
C1    O1    A    
C25   O8    A    
C33   C35   S    
C32   H5    S    
C21   H19   S    
C37   H16   S    
C3    C11   A    
C10   C11   A    
C22   H20   S    
C4    O4    A    
C20   C21   A    
C36   C37   S    
C21   N1    A    
C35   H8    S    
C1    O2    A    
C2    C28   A    
C3    C16   S    
