data_mof_unit_60572.cif
_audit_creation_date              2013-03-05T16:07:43-0500
_audit_creation_method            fapswitch 2.2
_symmetry_space_group_name_H-M    P1
_symmetry_Int_Tables_number       1
_space_group_crystal_system       triclinic
_cell_length_a                    35.640991
_cell_length_b                    26.582264
_cell_length_c                    22.225979
_cell_angle_alpha                 90.095444
_cell_angle_beta                  143.408061
_cell_angle_gamma                 89.955615
_cell_volume                      12552.4831654

loop_
_atom_site_label
_atom_site_type_symbol
_atom_site_description
_atom_site_fract_x
_atom_site_fract_y
_atom_site_fract_z
_atom_type_partial_charge
Zn1   Zn    Zn3+2 0.824550 0.706220 0.087530 1.186271
Zn2   Zn    Zn3+2 0.824550 0.293780 0.087530 1.158986
Zn3   Zn    Zn3+2 0.324550 0.206220 0.087530 1.181881
Zn4   Zn    Zn3+2 0.324550 0.793780 0.087530 1.159698
Zn5   Zn    Zn3+2 0.762980 0.793760 0.087560 1.154632
Zn6   Zn    Zn3+2 0.762980 0.206240 0.087560 1.128170
Zn7   Zn    Zn3+2 0.262980 0.293760 0.087560 1.139595
Zn8   Zn    Zn3+2 0.262980 0.706240 0.087560 1.139574
Zn9   Zn    Zn3+2 0.737010 0.793770 0.912460 1.174805
Zn10  Zn    Zn3+2 0.737010 0.206230 0.912460 1.156840
Zn11  Zn    Zn3+2 0.237010 0.293770 0.912460 1.179267
Zn12  Zn    Zn3+2 0.237010 0.706230 0.912460 1.162807
Zn13  Zn    Zn3+2 0.675440 0.706230 0.912460 1.209710
Zn14  Zn    Zn3+2 0.675440 0.293770 0.912460 1.206273
Zn15  Zn    Zn3+2 0.175440 0.206230 0.912460 1.207373
Zn16  Zn    Zn3+2 0.175440 0.793770 0.912460 1.201704
O1    O     O_3   0.749990 0.749990 0.000000 -0.595436
O2    O     O_3   0.749990 0.250010 0.000000 -0.588014
O3    O     O_3   0.249990 0.249990 0.000000 -0.595759
O4    O     O_3   0.249990 0.750010 0.000000 -0.591208
O5    O     O_R   0.637170 0.719360 0.938750 -0.576644
O6    O     O_R   0.637170 0.280640 0.938750 -0.573492
O7    O     O_R   0.137170 0.219360 0.938750 -0.575925
O8    O     O_R   0.137170 0.780640 0.938750 -0.575499
O9    O     O_R   0.862810 0.719350 0.061240 -0.591469
O10   O     O_R   0.862810 0.280650 0.061240 -0.592216
O11   O     O_R   0.362810 0.219350 0.061240 -0.591895
O12   O     O_R   0.362810 0.780650 0.061240 -0.590532
O13   O     O_R   0.845300 0.780620 0.233710 -0.626827
O14   O     O_R   0.845300 0.219380 0.233710 -0.618031
O15   O     O_R   0.345300 0.280620 0.233710 -0.606904
O16   O     O_R   0.345300 0.719380 0.233710 -0.606452
O17   O     O_R   0.654690 0.780640 0.766300 -0.570609
O18   O     O_R   0.654690 0.219360 0.766300 -0.552683
O19   O     O_R   0.154690 0.280640 0.766300 -0.570246
O20   O     O_R   0.154690 0.719360 0.766300 -0.557768
O21   O     O_R   0.759080 0.866840 0.061290 -0.571013
O22   O     O_R   0.759080 0.133160 0.061290 -0.566509
O23   O     O_R   0.259080 0.366840 0.061290 -0.578110
O24   O     O_R   0.259080 0.633160 0.061290 -0.553694
O25   O     O_R   0.697810 0.633140 0.938720 -0.570840
O26   O     O_R   0.697810 0.366860 0.938720 -0.563312
O27   O     O_R   0.197810 0.133140 0.938720 -0.573909
O28   O     O_R   0.197810 0.866860 0.938720 -0.544595
O29   O     O_R   0.740900 0.866850 0.938740 -0.583251
O30   O     O_R   0.740900 0.133150 0.938740 -0.569988
O31   O     O_R   0.240900 0.366850 0.938740 -0.580222
O32   O     O_R   0.240900 0.633150 0.938740 -0.563806
O33   O     O_R   0.802180 0.633140 0.061250 -0.571310
O34   O     O_R   0.802180 0.366860 0.061250 -0.574418
O35   O     O_R   0.302180 0.133140 0.061250 -0.569306
O36   O     O_R   0.302180 0.866860 0.061250 -0.576843
O37   O     O_R   0.888390 0.719350 0.233690 -0.548527
O38   O     O_R   0.888390 0.280650 0.233690 -0.550128
O39   O     O_R   0.388390 0.219350 0.233690 -0.549505
O40   O     O_R   0.388390 0.780650 0.233690 -0.551765
O41   O     O_R   0.611600 0.719370 0.766300 -0.550461
O42   O     O_R   0.611600 0.280630 0.766300 -0.545502
O43   O     O_R   0.111600 0.219370 0.766300 -0.548806
O44   O     O_R   0.111600 0.780630 0.766300 -0.550118
O45   O     O_R   0.698440 0.780630 0.061300 -0.604580
O46   O     O_R   0.698440 0.219370 0.061300 -0.612574
O47   O     O_R   0.198440 0.280630 0.061300 -0.605150
O48   O     O_R   0.198440 0.719370 0.061300 -0.599611
O49   O     O_R   0.801540 0.780630 0.938710 -0.591812
O50   O     O_R   0.801540 0.219370 0.938710 -0.594325
O51   O     O_R   0.301540 0.280630 0.938710 -0.587647
O52   O     O_R   0.301540 0.719370 0.938710 -0.599950
C1    C     C_R   0.650749 0.749979 0.000010 0.839605
C2    C     C_R   0.650736 0.250019 0.999946 0.838345
C3    C     C_R   0.150740 0.249990 0.999995 0.840945
C4    C     C_R   0.150745 0.750035 0.999965 0.820738
C5    C     C_R   0.849224 0.749966 0.000027 0.846983
C6    C     C_R   0.849221 0.250014 0.999991 0.838415
C7    C     C_R   0.349212 0.249951 0.000004 0.856537
C8    C     C_R   0.349229 0.750013 0.000003 0.840486
C9    C     C_R   0.892248 0.750679 0.282010 0.917325
C10   C     C_R   0.892253 0.249170 0.282156 0.943630
C11   C     C_R   0.391342 0.250260 0.282203 0.899548
C12   C     C_R   0.392883 0.748479 0.282109 0.946362
C13   C     C_R   0.607990 0.751221 0.717681 0.944574
C14   C     C_R   0.609027 0.249798 0.717507 1.001110
C15   C     C_R   0.108213 0.250950 0.717640 0.961227
C16   C     C_R   0.108666 0.749608 0.717416 0.987614
C17   C     C_R   0.750854 0.891078 0.001089 0.990321
C18   C     C_R   0.749578 0.108716 0.999645 1.008081
C19   C     C_R   0.250062 0.391071 0.000541 0.992697
C20   C     C_R   0.249233 0.608710 0.999628 1.005256
C21   C     C_R   0.750131 0.608902 0.001573 1.008841
C22   C     C_R   0.750009 0.391279 0.002922 0.992644
C23   C     C_R   0.250537 0.108826 0.002578 1.005341
C24   C     C_R   0.249696 0.891245 0.000544 1.013309
C25   C     C_3   0.678081 0.531422 0.896165 -0.078534
C26   C     C_3   0.678589 0.470194 0.892886 -0.057243
C27   C     C_3   0.182350 0.031440 0.892134 -0.087972
C28   C     C_3   0.183442 0.970706 0.885720 -0.055185
C29   C     C_3   0.770082 0.532556 0.097752 0.240069
C30   C     C_3   0.764984 0.469984 0.093397 0.260255
C31   C     C_3   0.263186 0.031258 0.090092 0.244325
C32   C     C_3   0.254195 0.968947 0.079603 0.261843
C33   C     C_3   0.800820 0.530725 0.017271 -0.080738
C34   C     C_3   0.803974 0.468946 0.025740 -0.100565
C35   C     C_3   0.309043 0.030418 0.034180 -0.080837
C36   C     C_3   0.310560 0.968641 0.040289 -0.120542
C37   C     C_3   0.750128 0.551370 0.003875 -0.403066
C38   C     C_3   0.749654 0.449296 0.004390 -0.415556
C39   C     C_3   0.251535 0.051063 0.005431 -0.396389
C40   C     C_3   0.249285 0.949028 0.001953 -0.419090
C41   C     C_3   0.491662 0.206840 0.958422 -0.148569
C42   C     C_3   0.507589 0.797248 0.990392 -0.147561
C43   C     C_3   0.013358 0.702546 0.001728 -0.149188
C44   C     C_3   0.006105 0.297186 0.987484 -0.148648
C45   C     C_3   0.946584 0.725503 0.918262 -0.151625
C46   C     C_3   0.943245 0.268166 0.911676 -0.149202
C47   C     C_3   0.439681 0.246034 0.904528 -0.145893
C48   C     C_3   0.443933 0.769295 0.913005 -0.150070
C49   C     C_1   0.888845 0.749947 0.000137 0.042808
C50   C     C_1   0.888767 0.250010 0.999969 0.019467
C51   C     C_1   0.388760 0.249832 0.999968 0.047730
C52   C     C_1   0.388822 0.749989 0.000068 0.031187
C53   C     C_1   0.611047 0.249985 0.999725 0.044854
C54   C     C_1   0.611185 0.749942 0.000032 0.047501
C55   C     C_1   0.111131 0.750117 0.999895 0.043094
C56   C     C_1   0.111124 0.250006 0.999920 0.048329
C57   C     C_3   0.029344 0.727122 0.083526 -0.144750
C58   C     C_3   0.025272 0.278965 0.075581 -0.145386
C59   C     C_3   0.514362 0.210552 0.053591 -0.146894
C60   C     C_3   0.526223 0.777840 0.077440 -0.147555
C61   C     C_3   0.962738 0.750073 0.000056 0.000061
C62   C     C_3   0.962589 0.249949 0.999772 0.002864
C63   C     C_3   0.462566 0.249748 0.999708 0.000169
C64   C     C_3   0.462739 0.749891 0.000051 0.001620
C65   C     C_3   0.559939 0.253488 0.094852 -0.149453
C66   C     C_3   0.556114 0.730544 0.087225 -0.149921
C67   C     C_3   0.053377 0.774703 0.081793 -0.148733
C68   C     C_3   0.056481 0.231838 0.087973 -0.150805
C69   C     C_3   0.537070 0.249783 0.999680 0.000307
C70   C     C_3   0.537313 0.749949 0.000176 0.000336
C71   C     C_3   0.037227 0.750129 0.999996 0.000056
C72   C     C_3   0.037155 0.250056 0.999881 0.000141
C73   C     C_3   0.986598 0.797653 0.998324 -0.147503
C74   C     C_3   0.993621 0.202825 0.012157 -0.150775
C75   C     C_3   0.507971 0.292684 0.040961 -0.152333
C76   C     C_3   0.492455 0.702597 0.009837 -0.151312
C77   C     C_3   0.485259 0.288973 0.945786 -0.150974
C78   C     C_3   0.473824 0.722001 0.922794 -0.150090
C79   C     C_3   0.970619 0.773080 0.916536 -0.149456
C80   C     C_3   0.974460 0.221043 0.924070 -0.150698
C81   C     C_1   0.922255 0.749994 0.000122 0.178931
C82   C     C_1   0.922126 0.249970 0.999864 0.178976
C83   C     C_1   0.422119 0.249769 0.999850 0.180407
C84   C     C_1   0.422232 0.749935 0.000059 0.180533
C85   C     C_1   0.577589 0.249890 0.999661 0.180973
C86   C     C_1   0.577805 0.749942 0.000113 0.182164
C87   C     C_1   0.077720 0.750146 0.999923 0.182172
C88   C     C_1   0.077692 0.250041 0.999901 0.181310
C89   C     C_3   0.499122 0.709772 0.559507 0.348313
C90   C     C_3   0.493658 0.278588 0.560577 0.324783
C91   C     C_3   0.994573 0.217123 0.560043 0.327664
C92   C     C_3   0.000788 0.792067 0.559276 0.340902
C93   C     C_3   0.441758 0.712597 0.440511 -0.423535
C94   C     C_3   0.435227 0.278250 0.441710 -0.365650
C95   C     C_3   0.936711 0.222555 0.441684 -0.433521
C96   C     C_3   0.947988 0.794047 0.440766 -0.439071
H1    H     H_    0.403999 0.732534 0.415636 0.215222
H2    H     H_    0.405351 0.251246 0.423784 0.149017
H3    H     H_    0.907332 0.251332 0.425599 0.219813
H4    H     H_    0.903727 0.784111 0.405996 0.184457
C97   C     C_3   0.576301 0.733963 0.565848 -0.009045
C98   C     C_3   0.571474 0.280855 0.563307 0.002491
C99   C     C_3   0.072404 0.224568 0.563787 0.002466
C100  C     C_3   0.075886 0.762434 0.563329 0.002514
C101  C     C_3   0.516130 0.806496 0.557390 -0.072530
C102  C     C_3   0.533699 0.191481 0.559670 -0.059173
C103  C     C_3   0.023842 0.308811 0.557941 -0.074745
C104  C     C_3   0.017309 0.693429 0.558790 -0.033899
C105  C     C_3   0.551397 0.750789 0.602230 -0.371975
C106  C     C_3   0.552773 0.249860 0.601931 -0.345003
C107  C     C_3   0.051408 0.250520 0.602097 -0.357629
C108  C     C_3   0.051493 0.748828 0.601644 -0.348528
C109  C     C_3   0.452543 0.749551 0.397800 -0.290262
C110  C     C_3   0.450092 0.250297 0.397514 -0.292517
C111  C     C_3   0.951714 0.250173 0.397657 -0.295029
C112  C     C_3   0.952156 0.749432 0.397186 -0.293257
C113  C     C_3   0.515095 0.731598 0.440886 -0.329244
C114  C     C_3   0.507635 0.280173 0.437324 -0.360393
C115  C     C_3   0.010215 0.222332 0.438934 -0.334252
C116  C     C_3   0.015955 0.756819 0.438612 -0.341179
C117  C     C_3   0.460843 0.806443 0.434931 -0.016887
C118  C     C_3   0.466439 0.191330 0.437501 -0.031061
C119  C     C_3   0.968937 0.308463 0.435781 -0.020605
C120  C     C_3   0.951612 0.696746 0.435793 -0.033530
C121  C     C_3   0.787410 0.969384 0.110320 -0.015955
C122  C     C_3   0.791118 0.031123 0.113063 -0.003013
C123  C     C_3   0.307198 0.468661 0.121274 -0.011813
C124  C     C_3   0.309941 0.530918 0.121765 0.002529
C125  C     C_3   0.677647 0.968370 0.906570 -0.107552
C126  C     C_3   0.677437 0.030279 0.912540 -0.060711
C127  C     C_3   0.181042 0.468731 0.938616 -0.095375
C128  C     C_3   0.183295 0.530616 0.946584 -0.068919
C129  C     C_3   0.791802 0.968228 0.994353 -0.054663
C130  C     C_3   0.787279 0.030384 0.986380 -0.042083
C131  C     C_3   0.265599 0.468656 0.952900 -0.059475
C132  C     C_3   0.260980 0.530082 0.946491 -0.060264
C133  C     C_3   0.751386 0.948681 0.002111 -0.367848
C134  C     C_3   0.750650 0.050804 0.001445 -0.353406
C135  C     C_3   0.250368 0.448647 0.002707 -0.375075
C136  C     C_3   0.250143 0.550775 0.002667 -0.358009
N1    N     N_R   0.632609 0.550072 0.885077 0.262381
O53   O     O_R   0.594781 0.587617 0.825848 -0.220752
O54   O     O_R   0.622265 0.526674 0.921910 -0.224418
N2    N     N_R   0.622022 0.452026 0.855045 0.280878
O55   O     O_R   0.566473 0.468137 0.767438 -0.210607
O56   O     O_R   0.621878 0.416224 0.894360 -0.222317
N3    N     N_R   0.131473 0.047063 0.870116 0.260916
O57   O     O_R   0.094492 0.084895 0.811072 -0.216600
O58   O     O_R   0.116213 0.020806 0.897268 -0.227406
N4    N     N_R   0.120824 0.951663 0.827152 0.275504
O59   O     O_R   0.070004 0.966241 0.733861 -0.210092
O60   O     O_R   0.112186 0.920569 0.860038 -0.200791
C137  C     C_2   0.972326 0.851243 0.996345 1.006121
O61   O     O_2   0.994765 0.885341 0.995283 -0.536066
O62   O     O_R   0.933615 0.861967 0.995678 -0.762838
H5    H     H_    0.927593 0.899426 0.994307 0.388383
C138  C     C_2   0.987342 0.149652 0.025901 1.007736
O63   O     O_2   0.014969 0.115910 0.035044 -0.534531
O64   O     O_R   0.950082 0.138904 0.028080 -0.751368
H6    H     H_    0.949588 0.101736 0.037586 0.398367
C139  C     C_2   0.517975 0.341101 0.087352 1.012812
O65   O     O_2   0.555876 0.371792 0.117096 -0.537341
O66   O     O_R   0.484079 0.350945 0.096274 -0.748216
H7    H     H_    0.494961 0.384812 0.128585 0.395439
C140  C     C_2   0.484713 0.649262 0.020682 1.010205
O67   O     O_2   0.511365 0.615392 0.027893 -0.533446
O68   O     O_R   0.447228 0.638512 0.022418 -0.750254
H8    H     H_    0.445726 0.601232 0.029935 0.398933
C141  C     C_2   0.626836 0.257614 0.202144 1.008612
O69   O     O_2   0.637895 0.260389 0.270242 -0.553880
O70   O     O_R   0.676040 0.258215 0.223815 -0.761412
H9    H     H_    0.718850 0.261047 0.298807 0.389889
C142  C     C_2   0.618488 0.708760 0.185472 1.016102
O71   O     O_2   0.626623 0.694806 0.247722 -0.548327
O72   O     O_R   0.666856 0.704547 0.205469 -0.761196
H10   H     H_    0.706521 0.689364 0.274171 0.378078
C143  C     C_2   0.112701 0.802415 0.173979 1.018848
O73   O     O_2   0.118983 0.820008 0.232541 -0.549079
O74   O     O_R   0.160353 0.807989 0.192549 -0.765387
H11   H     H_    0.197893 0.827330 0.257020 0.382307
C144  C     C_2   0.119441 0.211425 0.187400 1.014501
O75   O     O_2   0.127930 0.198293 0.250362 -0.547063
O76   O     O_R   0.167948 0.207548 0.207679 -0.757867
H12   H     H_    0.208015 0.193310 0.277195 0.384423
C145  C     C_2   0.063296 0.701286 0.177690 1.004756
O77   O     O_2   0.116196 0.684711 0.237356 -0.555104
O78   O     O_R   0.034537 0.696319 0.196868 -0.759007
H13   H     H_    0.062236 0.678311 0.262736 0.374243
C146  C     C_2   0.054761 0.311560 0.161034 1.012088
O79   O     O_2   0.104880 0.332430 0.215275 -0.558164
O80   O     O_R   0.025039 0.317896 0.178326 -0.771755
H14   H     H_    0.049619 0.340646 0.238113 0.373247
C147  C     C_2   0.531586 0.166334 0.114294 1.009121
O81   O     O_2   0.573999 0.138291 0.152981 -0.559243
O82   O     O_R   0.499255 0.157365 0.126322 -0.756517
H15   H     H_    0.515199 0.126435 0.168673 0.378926
C148  C     C_2   0.556617 0.809262 0.164662 1.014742
O83   O     O_2   0.607302 0.829372 0.220008 -0.555316
O84   O     O_R   0.527091 0.815381 0.182335 -0.767766
H16   H     H_    0.552301 0.837321 0.243340 0.371700
N5    N     N_R   0.525954 0.658019 0.597961 0.247566
O85   O     O_R   0.524835 0.626658 0.551815 -0.313789
O86   O     O_R   0.538262 0.638892 0.666298 -0.212819
N6    N     N_R   0.509461 0.331553 0.596784 0.248733
O87   O     O_R   0.505178 0.367445 0.551992 -0.292910
O88   O     O_R   0.514829 0.345019 0.659869 -0.201482
N7    N     N_R   0.012594 0.163723 0.594226 0.248083
O89   O     O_R   0.006536 0.128602 0.546545 -0.266643
O90   O     O_R   0.022344 0.148689 0.661658 -0.205312
N8    N     N_R   0.031115 0.842462 0.610370 0.234459
O91   O     O_R   0.036293 0.877706 0.577207 -0.287154
O92   O     O_R   0.039042 0.857348 0.675972 -0.191932
N9    N     N_R   0.473418 0.720251 0.588587 0.208126
O93   O     O_R   0.509968 0.728629 0.681522 -0.301487
O94   O     O_R   0.415518 0.708681 0.527603 -0.267105
N10   N     N_R   0.474949 0.253294 0.594550 0.216243
O95   O     O_R   0.515684 0.247043 0.689944 -0.279834
O96   O     O_R   0.416587 0.255149 0.537451 -0.310755
N11   N     N_R   0.973266 0.235538 0.593360 0.200072
O97   O     O_R   0.013201 0.246423 0.687236 -0.310677
O98   O     O_R   0.916201 0.225691 0.537868 -0.282482
N12   N     N_R   0.968689 0.779622 0.576161 0.219719
O99   O     O_R   0.001797 0.769329 0.666276 -0.276610
O100  O     O_R   0.915015 0.801321 0.518811 -0.274073
C149  C     C_2   0.409744 0.661047 0.392614 1.106417
O101  O     O_2   0.404559 0.640030 0.337473 -0.527445
O102  O     O_R   0.389079 0.636264 0.417844 -0.697734
H17   H     H_    0.378661 0.599599 0.397293 0.374077
C150  C     C_2   0.382143 0.317721 0.384402 1.153348
O103  O     O_2   0.392299 0.362774 0.400578 -0.446273
O104  O     O_R   0.320156 0.301142 0.314924 -0.746764
H18   H     H_    0.289566 0.329803 0.282680 0.367397
C151  C     C_2   0.890393 0.178340 0.386136 1.119048
O105  O     O_2   0.897608 0.140179 0.365880 -0.477155
O106  O     O_R   0.836642 0.182913 0.352992 -0.714849
H19   H     H_    0.808735 0.151977 0.315447 0.358639
C152  C     C_2   0.926720 0.846942 0.397347 1.144938
O107  O     O_2   0.951789 0.871092 0.389797 -0.441508
O108  O     O_R   0.882836 0.870422 0.378566 -0.687481
H20   H     H_    0.881033 0.908105 0.370574 0.412161
N13   N     N_R   0.608586 0.684163 0.607513 0.250775
O109  O     O_R   0.639128 0.669324 0.694270 -0.291975
O110  O     O_R   0.630286 0.667171 0.584371 -0.259247
N14   N     N_R   0.595302 0.331846 0.611339 0.200317
O111  O     O_R   0.592003 0.369831 0.570489 -0.267956
O112  O     O_R   0.642876 0.334026 0.709468 -0.384517
N15   N     N_R   0.097645 0.172867 0.603419 0.236531
O113  O     O_R   0.125319 0.160286 0.688741 -0.320088
O114  O     O_R   0.116966 0.149192 0.580229 -0.258892
N16   N     N_R   0.105246 0.813301 0.605504 0.204175
O115  O     O_R   0.089405 0.851617 0.552238 -0.243867
O116  O     O_R   0.159466 0.816437 0.702589 -0.418299
C153  C     C_2   0.498288 0.680090 0.389941 1.018698
O117  O     O_2   0.518381 0.639878 0.433515 -0.417794
O118  O     O_R   0.460823 0.679891 0.289660 -0.786811
H21   H     H_    0.466673 0.648250 0.272354 0.408199
C154  C     C_2   0.487558 0.334369 0.395010 1.067573
O119  O     O_2   0.442261 0.354588 0.359669 -0.500509
O120  O     O_R   0.518918 0.359666 0.388613 -0.677565
H22   H     H_    0.501637 0.394510 0.358446 0.419429
C155  C     C_2   0.985234 0.169830 0.386645 1.021768
O121  O     O_2   0.001577 0.130255 0.430188 -0.405181
O122  O     O_R   0.946531 0.167385 0.285722 -0.786288
H23   H     H_    0.949613 0.133631 0.268780 0.419806
C156  C     C_2   0.011436 0.801246 0.388039 1.064295
O123  O     O_2   0.960739 0.819574 0.308960 -0.558847
O124  O     O_R   0.063850 0.812835 0.419669 -0.686164
H24   H     H_    0.054662 0.839863 0.376916 0.393760
N17   N     N_R   0.555329 0.852059 0.597643 0.265584
O125  O     O_R   0.614494 0.851824 0.659790 -0.287815
O126  O     O_R   0.528090 0.895829 0.567541 -0.269115
N18   N     N_R   0.585010 0.168369 0.588038 0.239175
O127  O     O_R   0.584062 0.166590 0.528702 -0.266248
O128  O     O_R   0.633173 0.146450 0.674563 -0.307062
N19   N     N_R   0.069629 0.349445 0.600956 0.273052
O129  O     O_R   0.126701 0.342027 0.655915 -0.282614
O130  O     O_R   0.049875 0.395864 0.575329 -0.262929
N20   N     N_R   0.062208 0.654729 0.592499 0.244594
O131  O     O_R   0.055448 0.630558 0.533586 -0.235355
O132  O     O_R   0.106917 0.637871 0.684117 -0.310417
C157  C     C_2   0.648405 0.553064 0.799410 1.062856
O133  O     O_2   0.670377 0.589078 0.801254 -0.497437
O134  O     O_R   0.589845 0.534567 0.705155 -0.685122
H25   H     H_    0.577015 0.547574 0.647693 0.420131
C158  C     C_2   0.662058 0.449730 0.808378 0.997854
O135  O     O_2   0.681639 0.468647 0.787539 -0.519078
O136  O     O_R   0.616352 0.412626 0.743809 -0.627030
H26   H     H_    0.596708 0.414746 0.677299 0.427545
C159  C     C_2   0.160288 0.056587 0.804389 1.075990
O137  O     O_2   0.189616 0.090394 0.818289 -0.519359
O138  O     O_R   0.101986 0.042952 0.704733 -0.643448
H27   H     H_    0.093319 0.059876 0.653616 0.428044
C160  C     C_2   0.180239 0.950760 0.816384 1.012817
O139  O     O_2   0.188280 0.976634 0.782309 -0.516630
O140  O     O_R   0.161302 0.901307 0.782803 -0.687198
H28   H     H_    0.152432 0.895985 0.727333 0.432338
C161  C     C_2   0.494482 0.817124 0.595403 0.966717
O141  O     O_2   0.534556 0.828226 0.684396 -0.521103
O142  O     O_R   0.431835 0.814315 0.534125 -0.752328
H29   H     H_    0.426603 0.822643 0.571650 0.402529
C162  C     C_2   0.530498 0.155149 0.609646 1.020384
O143  O     O_2   0.510316 0.112493 0.575630 -0.492544
O144  O     O_R   0.556380 0.166689 0.698946 -0.763226
H30   H     H_    0.549462 0.139297 0.720996 0.396678
C163  C     C_2   0.002429 0.327188 0.593618 0.928801
O145  O     O_2   0.043029 0.337647 0.682613 -0.524652
O146  O     O_R   0.939539 0.330495 0.531289 -0.759171
H31   H     H_    0.934870 0.342989 0.568184 0.404444
C164  C     C_2   0.004777 0.672771 0.606615 0.996678
O147  O     O_2   0.968421 0.637469 0.566505 -0.502970
O148  O     O_R   0.044081 0.685221 0.705449 -0.783192
H32   H     H_    0.031238 0.668381 0.727968 0.375041
C165  C     C_2   0.398899 0.828333 0.381617 1.016042
O149  O     O_2   0.398606 0.872154 0.398428 -0.426485
O150  O     O_R   0.342543 0.801103 0.311539 -0.815446
H33   H     H_    0.306415 0.821307 0.282477 0.383920
C166  C     C_2   0.408253 0.171268 0.399509 0.945047
O151  O     O_2   0.357373 0.168221 0.308827 -0.543910
O152  O     O_R   0.409229 0.163012 0.462975 -0.737831
H34   H     H_    0.366889 0.152266 0.425168 0.400354
C167  C     C_2   0.910960 0.338856 0.382997 1.033205
O153  O     O_2   0.917908 0.383485 0.404041 -0.431360
O154  O     O_R   0.850666 0.317876 0.310144 -0.809451
H35   H     H_    0.818074 0.342909 0.282794 0.398518
C168  C     C_2   0.888907 0.696697 0.392454 0.919296
O155  O     O_2   0.839342 0.687553 0.302604 -0.553741
O156  O     O_R   0.885970 0.706987 0.450236 -0.735198
H36   H     H_    0.841576 0.705436 0.409752 0.389755
N21   N     N_R   0.474934 0.842036 0.402208 0.266909
O157  O     O_R   0.531067 0.855303 0.458459 -0.253372
O158  O     O_R   0.429900 0.865666 0.316828 -0.262418
N22   N     N_R   0.469229 0.152840 0.391864 0.282710
O159  O     O_R   0.475741 0.163105 0.343507 -0.264641
O160  O     O_R   0.472115 0.105456 0.410284 -0.203244
N23   N     N_R   0.988497 0.336330 0.405125 0.267518
O161  O     O_R   0.046287 0.340236 0.461854 -0.259799
O162  O     O_R   0.948234 0.362856 0.322772 -0.258353
N24   N     N_R   0.943804 0.648677 0.392080 0.277434
O163  O     O_R   0.946723 0.644351 0.337829 -0.236614
O164  O     O_R   0.937171 0.607194 0.414185 -0.187395
C169  C     C_2   0.632905 0.768117 0.617522 1.067652
O165  O     O_2   0.686585 0.756624 0.701631 -0.536976
O166  O     O_R   0.627483 0.808799 0.571433 -0.701556
H37   H     H_    0.669304 0.825272 0.615357 0.385162
C170  C     C_2   0.630794 0.264396 0.603977 1.090324
O167  O     O_2   0.644362 0.287925 0.575824 -0.516066
O168  O     O_R   0.676332 0.231967 0.685510 -0.716904
H38   H     H_    0.714111 0.227976 0.706658 0.369793
C171  C     C_2   0.133166 0.251022 0.616671 1.064108
O169  O     O_2   0.184220 0.240388 0.704745 -0.549837
O170  O     O_R   0.134686 0.282818 0.568789 -0.704386
H39   H     H_    0.178612 0.294909 0.614752 0.378688
C172  C     C_2   0.132946 0.733701 0.609098 1.070623
O171  O     O_2   0.155593 0.750382 0.591599 -0.521410
O172  O     O_R   0.161345 0.691297 0.670256 -0.692084
H40   H     H_    0.198361 0.678616 0.693404 0.371449
C173  C     C_2   0.532056 0.758604 0.402766 1.021086
O173  O     O_2   0.578448 0.744051 0.434539 -0.552660
O174  O     O_R   0.493113 0.793527 0.324375 -0.690678
H41   H     H_    0.510202 0.805517 0.306273 0.368020
C174  C     C_2   0.515327 0.258219 0.381651 1.037511
O175  O     O_2   0.475304 0.267983 0.292056 -0.596781
O176  O     O_R   0.566613 0.229870 0.428052 -0.682952
H42   H     H_    0.563881 0.219835 0.380550 0.388466
C175  C     C_2   0.028731 0.240327 0.398657 1.022791
O177  O     O_2   0.071707 0.218494 0.427889 -0.538914
O178  O     O_R   0.993077 0.274396 0.319432 -0.698612
H43   H     H_    0.010025 0.279971 0.299127 0.371974
C176  C     C_2   0.022863 0.714338 0.397777 1.008388
O179  O     O_2   0.989184 0.715267 0.309523 -0.550230
O180  O     O_R   0.069166 0.677152 0.457680 -0.714488
H44   H     H_    0.067585 0.654108 0.419230 0.384331
C177  C     C_2   0.753800 0.949033 0.125331 0.995961
O181  O     O_2   0.775985 0.913164 0.181139 -0.513117
O182  O     O_R   0.701371 0.972006 0.083293 -0.735136
H45   H     H_    0.686406 0.955046 0.102308 0.387998
C178  C     C_2   0.774551 0.050523 0.156770 1.029909
O183  O     O_2   0.808774 0.037157 0.242236 -0.527866
O184  O     O_R   0.726890 0.084510 0.109512 -0.684644
H46   H     H_    0.724729 0.093038 0.151176 0.360962
C179  C     C_2   0.297307 0.447467 0.174073 1.024785
O185  O     O_2   0.325276 0.409387 0.225654 -0.471654
O186  O     O_R   0.261414 0.471346 0.171693 -0.741179
H47   H     H_    0.261696 0.453301 0.212247 0.386605
C180  C     C_2   0.317801 0.549913 0.198031 1.043446
O187  O     O_2   0.364641 0.536108 0.285939 -0.528689
O188  O     O_R   0.277741 0.583455 0.175565 -0.678263
H48   H     H_    0.287389 0.588133 0.232198 0.361869
N25   N     N_R   0.852378 0.949017 0.202003 0.270028
O189  O     O_R   0.867940 0.904786 0.202188 -0.267701
O190  O     O_R   0.885370 0.965459 0.289942 -0.252278
N26   N     N_R   0.856180 0.052638 0.191222 0.252301
O191  O     O_R   0.905354 0.028475 0.235888 -0.193855
O192  O     O_R   0.866489 0.098267 0.223053 -0.309429
N27   N     N_R   0.370218 0.446832 0.188077 0.269103
O193  O     O_R   0.374967 0.402536 0.169561 -0.350218
O194  O     O_R   0.417468 0.459874 0.283109 -0.239976
N28   N     N_R   0.367940 0.554085 0.170116 0.251173
O195  O     O_R   0.415510 0.529847 0.209314 -0.196983
O196  O     O_R   0.376436 0.602137 0.188769 -0.348307
N29   N     N_R   0.636357 0.945636 0.900693 0.263327
O197  O     O_R   0.650183 0.903146 0.944118 -0.362884
O198  O     O_R   0.576382 0.956215 0.821795 -0.219986
N30   N     N_R   0.649631 0.052389 0.932997 0.247526
O199  O     O_R   0.620909 0.026778 0.937305 -0.212953
O200  O     O_R   0.638402 0.100712 0.919707 -0.375131
N31   N     N_R   0.158404 0.448065 0.968343 0.262642
O201  O     O_R   0.179671 0.406768 0.019016 -0.338489
O202  O     O_R   0.101783 0.460473 0.912857 -0.256810
N32   N     N_R   0.177052 0.552667 0.000874 0.252818
O203  O     O_R   0.172633 0.526828 0.044368 -0.229261
O204  O     O_R   0.161574 0.600004 0.986773 -0.334450
C181  C     C_2   0.775812 0.948317 0.909325 1.001306
O205  O     O_2   0.731278 0.921387 0.839766 -0.548022
O206  O     O_R   0.817225 0.960964 0.915916 -0.714367
H49   H     H_    0.804284 0.946248 0.858981 0.372971
C182  C     C_2   0.755171 0.050875 0.886291 1.020663
O207  O     O_2   0.713198 0.028601 0.806265 -0.581886
O208  O     O_R   0.778837 0.094351 0.888786 -0.658144
H50   H     H_    0.755822 0.103267 0.820650 0.387182
C183  C     C_2   0.224907 0.449084 0.846441 0.999561
O209  O     O_2   0.179284 0.421794 0.792808 -0.519854
O210  O     O_R   0.243881 0.462160 0.812539 -0.696470
H51   H     H_    0.215520 0.447622 0.743656 0.391227
C184  C     C_2   0.207938 0.549472 0.835283 1.002536
O211  O     O_2   0.155315 0.531450 0.767503 -0.560539
O212  O     O_R   0.222243 0.585076 0.809118 -0.645666
H52   H     H_    0.187992 0.588466 0.733571 0.401650
N33   N     N_R   0.856371 0.945453 0.082570 0.261912
O213  O     O_R   0.863332 0.897602 0.079822 -0.349836
O214  O     O_R   0.908248 0.970375 0.156254 -0.177599
N34   N     N_R   0.851228 0.052747 0.060797 0.281415
O215  O     O_R   0.883859 0.039117 0.055768 -0.250022
O216  O     O_R   0.862981 0.098016 0.095153 -0.355549
N35   N     N_R   0.328851 0.447876 0.016013 0.269966
O217  O     O_R   0.333010 0.403042 0.997672 -0.310494
O218  O     O_R   0.381370 0.472515 0.086908 -0.212131
N36   N     N_R   0.318401 0.550879 0.989827 0.287191
O219  O     O_R   0.331552 0.534757 0.952689 -0.240010
O220  O     O_R   0.341828 0.594665 0.033291 -0.304289
N37   N     N_R   0.732292 0.555200 0.098779 0.271907
O221  O     O_R   0.703352 0.597897 0.054584 -0.317362
O222  O     O_R   0.751040 0.546007 0.177714 -0.196406
N38   N     N_R   0.716176 0.447974 0.071460 0.259589
O223  O     O_R   0.683533 0.473210 0.068401 -0.194377
O224  O     O_R   0.718615 0.399620 0.084434 -0.344395
N39   N     N_R   0.222250 0.055221 0.083927 0.268929
O225  O     O_R   0.189196 0.095305 0.030845 -0.311202
O226  O     O_R   0.237734 0.048319 0.160062 -0.206810
N40   N     N_R   0.198096 0.949688 0.041283 0.268004
O227  O     O_R   0.170611 0.974998 0.048402 -0.191959
O228  O     O_R   0.194036 0.901095 0.043092 -0.315997
C185  C     C_2   0.644929 0.946402 0.807249 1.032431
O229  O     O_2   0.628456 0.902303 0.786699 -0.480738
O230  O     O_R   0.629749 0.974363 0.736721 -0.724514
H53   H     H_    0.613814 0.953702 0.681201 0.438442
C186  C     C_2   0.628922 0.050514 0.805681 0.973835
O231  O     O_2   0.573722 0.037891 0.740738 -0.464564
O232  O     O_R   0.643175 0.084031 0.779074 -0.747127
H54   H     H_    0.614109 0.077343 0.706601 0.421756
C187  C     C_2   0.130004 0.444801 0.831831 1.003728
O233  O     O_2   0.121719 0.399480 0.825630 -0.526723
O234  O     O_R   0.090063 0.471024 0.741703 -0.685903
H55   H     H_    0.056356 0.449043 0.679575 0.420191
C188  C     C_2   0.122438 0.551818 0.842512 1.022740
O235  O     O_2   0.072111 0.537144 0.798446 -0.481290
O236  O     O_R   0.121878 0.594023 0.805910 -0.762682
H56   H     H_    0.077398 0.599907 0.734869 0.401279
C189  C     C_2   0.870444 0.549876 0.107410 1.019407
O237  O     O_2   0.892999 0.576812 0.175155 -0.482016
O238  O     O_R   0.908909 0.536498 0.108240 -0.705235
H57   H     H_    0.953109 0.550681 0.168409 0.373343
C190  C     C_2   0.870944 0.449199 0.130661 1.024933
O239  O     O_2   0.901826 0.468648 0.210145 -0.529326
O240  O     O_R   0.899160 0.409654 0.134758 -0.661797
H58   H     H_    0.943434 0.401710 0.205836 0.385738
C191  C     C_2   0.378496 0.048731 0.132987 1.029815
O241  O     O_2   0.395184 0.078282 0.193097 -0.471537
O242  O     O_R   0.423835 0.032798 0.149681 -0.715477
H59   H     H_    0.467268 0.047048 0.213956 0.375080
C192  C     C_2   0.373656 0.948273 0.148926 1.036676
O243  O     O_2   0.396803 0.965883 0.224007 -0.530377
O244  O     O_R   0.407837 0.910699 0.162697 -0.656926
H60   H     H_    0.449945 0.903084 0.236292 0.387020
N41   N     N_R   0.781022 0.552678 0.932326 0.238656
O245  O     O_R   0.791482 0.600303 0.935542 -0.332093
O246  O     O_R   0.762733 0.527024 0.862360 -0.178533
N42   N     N_R   0.798419 0.445807 0.957291 0.280851
O247  O     O_R   0.839908 0.458247 0.970027 -0.196861
O248  O     O_R   0.770993 0.402542 0.913491 -0.339413
N43   N     N_R   0.298265 0.052255 0.958711 0.243232
O249  O     O_R   0.313476 0.099052 0.968052 -0.316443
O250  O     O_R   0.281753 0.026841 0.890264 -0.193748
N44   N     N_R   0.313755 0.946531 0.982264 0.264359
O251  O     O_R   0.360382 0.959966 0.007592 -0.198402
O252  O     O_R   0.288753 0.903188 0.937002 -0.350576
N45   N     N_R   0.833215 0.554582 0.192208 0.241483
O253  O     O_R   0.834928 0.602074 0.208647 -0.262711
O254  O     O_R   0.884426 0.529499 0.268344 -0.169605
N46   N     N_R   0.822682 0.449683 0.195611 0.250328
O255  O     O_R   0.834206 0.463514 0.265716 -0.190504
O256  O     O_R   0.842128 0.405102 0.206624 -0.336539
N47   N     N_R   0.326243 0.050453 0.189859 0.225885
O257  O     O_R   0.331053 0.098660 0.204075 -0.277124
O258  O     O_R   0.370836 0.024070 0.271436 -0.172559
N48   N     N_R   0.305344 0.945708 0.181098 0.254498
O259  O     O_R   0.309254 0.958846 0.242599 -0.186416
O260  O     O_R   0.321536 0.899668 0.191157 -0.346737
C193  C     C_2   0.887203 0.697864 0.825997 1.012655
O261  O     O_2   0.880985 0.680125 0.767583 -0.546121
O262  O     O_R   0.839395 0.692578 0.807122 -0.744540
H61   H     H_    0.801791 0.673331 0.742545 0.397158
C194  C     C_2   0.880196 0.288479 0.812222 1.015244
O263  O     O_2   0.871677 0.301810 0.749299 -0.544050
O264  O     O_R   0.831612 0.291963 0.791822 -0.769601
H62   H     H_    0.791442 0.306058 0.722221 0.392363
C195  C     C_2   0.372747 0.241877 0.797277 1.012434
O265  O     O_2   0.361607 0.239136 0.729088 -0.545065
O266  O     O_R   0.323603 0.241186 0.775755 -0.757537
H63   H     H_    0.280764 0.238286 0.700794 0.379476
C196  C     C_2   0.381507 0.791000 0.814706 1.014279
O267  O     O_2   0.373407 0.805116 0.752559 -0.547315
O268  O     O_R   0.333028 0.794897 0.794494 -0.751194
H64   H     H_    0.293304 0.809977 0.725711 0.397516
C197  C     C_2   0.481711 0.158421 0.912092 1.010624
O269  O     O_2   0.443778 0.127732 0.882252 -0.535595
O270  O     O_R   0.515714 0.148566 0.903375 -0.753055
H65   H     H_    0.504883 0.114689 0.871127 0.393106
C198  C     C_2   0.515309 0.850594 0.979551 1.008526
O271  O     O_2   0.488637 0.884445 0.972330 -0.538782
O272  O     O_R   0.552802 0.861379 0.977841 -0.758144
H66   H     H_    0.554299 0.898665 0.970347 0.386050
C199  C     C_2   0.027572 0.648949 0.003631 1.007685
O273  O     O_2   0.005198 0.614867 0.004849 -0.542784
O274  O     O_R   0.066129 0.638201 0.003997 -0.749138
H67   H     H_    0.072111 0.600738 0.005306 0.396351
C200  C     C_2   0.012332 0.350363 0.973682 1.007412
O275  O     O_2   0.984744 0.384096 0.964642 -0.536277
O276  O     O_R   0.049483 0.361126 0.971291 -0.751232
H68   H     H_    0.049927 0.398293 0.961713 0.397905
C201  C     C_2   0.467984 0.333195 0.885056 1.015222
O277  O     O_2   0.425564 0.361215 0.846401 -0.549639
O278  O     O_R   0.500270 0.342191 0.872957 -0.733498
H69   H     H_    0.484274 0.373112 0.830561 0.397468
C202  C     C_2   0.443380 0.690554 0.835569 1.012596
O279  O     O_2   0.392676 0.670489 0.780245 -0.553361
O280  O     O_R   0.472887 0.684351 0.817880 -0.735106
H70   H     H_    0.447640 0.662396 0.756874 0.397035
C203  C     C_2   0.936626 0.798941 0.822376 1.010948
O281  O     O_2   0.883709 0.815468 0.762725 -0.558247
O282  O     O_R   0.965373 0.803999 0.803195 -0.737525
H71   H     H_    0.937648 0.822038 0.737345 0.396750
C204  C     C_2   0.944905 0.188427 0.838602 1.013035
O283  O     O_2   0.894776 0.167593 0.784414 -0.556763
O284  O     O_R   0.974576 0.182022 0.821236 -0.733442
H72   H     H_    0.949946 0.159250 0.761451 0.396241

loop_
_geom_bond_atom_site_label_1
_geom_bond_atom_site_label_2
_geom_bond_distance
_ccdc_geom_bond_type
C64   C76   1.542234 S    
Zn1   O9    1.898323 S    
O272  H66   1.013841 S    
C65   C69   1.542484 S    
C159  O137  1.215569 D    
Zn5   O21   2.001774 S    
C126  C134  1.652292 S    
C150  O104  1.407349 S    
N41   O245  1.305559 A    
C63   C83   1.444104 S    
O234  H55   1.012906 S    
C31   N39   1.493651 S    
O174  H41   1.014195 S    
C122  N26   1.500712 S    
N17   O125  1.295135 A    
C43   C71   1.542564 S    
C196  O267  1.222002 D    
C67   C71   1.542564 S    
C118  C166  1.576807 S    
C170  O167  1.226481 D    
C76   C140  1.500956 S    
C98   C106  1.667933 S    
C130  C182  1.571682 S    
C41   C197  1.500831 S    
N10   O95   1.299455 A    
N23   O162  1.300628 A    
C199  O274  1.397011 S    
C97   C169  1.578619 S    
N21   O158  1.297410 A    
C30   N46   1.477018 S    
O278  H69   1.013782 S    
C60   C64   1.542333 S    
C103  C163  1.555580 S    
C125  N29   1.496771 S    
N46   O255  1.304748 A    
O46   C2    1.300967 A    
C29   N37   1.491647 S    
C173  O173  1.227647 D    
C16   C108  1.534258 S    
C181  O206  1.402305 S    
C43   C199  1.500983 S    
C171  O170  1.394816 S    
Zn11  O31   2.000202 S    
C41   C59   1.545927 S    
C132  C136  1.668100 S    
N6    O87   1.297549 A    
C179  O186  1.390094 S    
C43   C57   1.545935 S    
C60   C148  1.501020 S    
N11   O98   1.303022 A    
Zn3   O3    1.975169 S    
O23   C19   1.283349 A    
Zn16  O28   2.000640 S    
O28   C24   1.283190 A    
C68   C72   1.542533 S    
C29   C37   1.652106 S    
C57   C67   1.545853 S    
C90   N10   1.509236 S    
C28   C40   1.667563 S    
C58   C68   1.545819 S    
C127  C128  1.649343 S    
C170  O168  1.393296 S    
C143  O73   1.221956 D    
Zn4   O40   1.996307 S    
C51   C83   1.191053 T    
C46   C62   1.542263 S    
O27   C23   1.296858 A    
C77   C201  1.500840 S    
C20   C136  1.540803 S    
O11   C7    1.301087 A    
C158  O136  1.389142 S    
C5    C49   1.410187 S    
N42   O248  1.302232 A    
N35   O218  1.295286 A    
C93   C149  1.536243 S    
C114  C174  1.577629 S    
N15   O114  1.305443 A    
C95   C111  1.620388 S    
N27   O193  1.301703 A    
C23   C39   1.536081 S    
O148  H32   1.014552 S    
C131  N35   1.509176 S    
N18   O127  1.292606 A    
N37   O222  1.304945 A    
N36   O219  1.305552 A    
N29   O197  1.299674 A    
C45   C193  1.500784 S    
C32   N48   1.480858 S    
N3    O57   1.302144 A    
C66   C142  1.500895 S    
C139  O65   1.222003 D    
C200  O276  1.396959 S    
O16   C12   1.304351 A    
C125  C185  1.561102 S    
C115  C155  1.557595 S    
N31   O201  1.296172 A    
O64   H6    1.013801 S    
Zn16  O4    1.974792 S    
N38   O223  1.296194 A    
Zn12  O4    1.975317 S    
C168  O156  1.396336 S    
N44   O251  1.305413 A    
C69   C85   1.444512 S    
Zn2   O10   1.897576 S    
C195  O265  1.222003 D    
C72   C88   1.444427 S    
N22   O160  1.303314 A    
Zn6   O14   1.993873 S    
N26   O192  1.298896 A    
N29   O198  1.305708 A    
Zn7   O3    1.975319 S    
C188  O236  1.377593 S    
C167  O153  1.224778 D    
C64   C84   1.443886 S    
N24   O164  1.304588 A    
C35   C191  1.567229 S    
C190  O239  1.214538 D    
O152  H34   1.014170 S    
C42   C48   1.545927 S    
O244  H60   1.013661 S    
C63   C75   1.542338 S    
C74   C138  1.500979 S    
C145  O78   1.397019 S    
C203  O281  1.221972 D    
C69   C77   1.542493 S    
N35   O217  1.305257 A    
O176  H42   1.014580 S    
N18   O128  1.298313 A    
C92   N12   1.499831 S    
O146  H31   1.014167 S    
N40   O227  1.298005 A    
C168  O155  1.225514 D    
C30   C38   1.666041 S    
C11   C110  1.528201 S    
O24   C20   1.284089 A    
O42   C14   1.301396 A    
C90   C106  1.660492 S    
C192  O244  1.405631 S    
C161  O141  1.225387 D    
Zn6   O46   1.896643 S    
Zn10  O2    1.975317 S    
C197  O269  1.221999 D    
C119  C167  1.551337 S    
Zn11  O19   1.993924 S    
O262  H61   1.013760 S    
C178  O183  1.226106 D    
Zn9   O49   1.896497 S    
C73   C79   1.545854 S    
O124  H24   1.014203 S    
Zn4   O4    1.973776 S    
C186  O232  1.373487 S    
C57   C61   1.542352 S    
C61   C73   1.542322 S    
N2    O55   1.305964 A    
O212  H52   1.013189 S    
C153  O117  1.217342 D    
O5    C1    1.299736 A    
O138  H27   1.013197 S    
Zn7   O23   2.001774 S    
C35   C39   1.675370 S    
Zn8   O24   2.000094 S    
C102  C162  1.544952 S    
N33   O214  1.294391 A    
C169  O165  1.227250 D    
C204  O283  1.222003 D    
C36   N44   1.501606 S    
O144  H30   1.013262 S    
C42   C60   1.545941 S    
C166  O152  1.400503 S    
O25   C21   1.289183 A    
C26   N2    1.510829 S    
C200  O275  1.221988 D    
C27   C28   1.623664 S    
C44   C72   1.542557 S    
O29   C17   1.291867 A    
O276  H68   1.013819 S    
C44   C46   1.545996 S    
C201  O277  1.222007 D    
C17   C133  1.531266 S    
N45   O253  1.301434 A    
C29   N45   1.491837 S    
Zn12  O52   1.896795 S    
C144  O75   1.222009 D    
C149  O101  1.217549 D    
O22   C18   1.290891 A    
C47   C195  1.501136 S    
C32   N40   1.500265 S    
N20   O131  1.294689 A    
C120  C168  1.570231 S    
C110  C114  1.644997 S    
C147  O81   1.222001 D    
Zn13  O41   1.996354 S    
O50   C6    1.299334 A    
C115  C175  1.554450 S    
C42   C198  1.500963 S    
N14   O111  1.299692 A    
C180  O188  1.391975 S    
C142  O71   1.222008 D    
Zn16  O44   1.995077 S    
N47   O257  1.297422 A    
C154  O120  1.406560 S    
Zn1   O37   1.995031 S    
C92   C108  1.655714 S    
N16   O116  1.304272 A    
Zn2   O34   2.001056 S    
Zn3   O39   1.995031 S    
C24   C40   1.536547 S    
O168  H38   1.014329 S    
N14   O112  1.302495 A    
C152  O108  1.400387 S    
C62   C82   1.443798 S    
C68   C74   1.545865 S    
Zn6   O22   2.000094 S    
C71   C87   1.444489 S    
C140  O67   1.221990 D    
C33   C189  1.563962 S    
C126  N30   1.502013 S    
C186  O231  1.227167 D    
C91   N7    1.491081 S    
C155  O122  1.403410 S    
C99   C107  1.667768 S    
C194  O263  1.221989 D    
C65   C141  1.500944 S    
C99   C171  1.574179 S    
C97   C105  1.671076 S    
C197  O270  1.396887 S    
O34   C22   1.299800 A    
C181  O205  1.216369 D    
C59   C63   1.542332 S    
Zn10  O50   1.896795 S    
C6    C50   1.409830 S    
C32   C40   1.673824 S    
C121  C133  1.665445 S    
C123  N27   1.493928 S    
N30   O199  1.295885 A    
C193  O262  1.396903 S    
C123  C124  1.657379 S    
C118  N22   1.497963 S    
O26   C22   1.286284 A    
O31   C19   1.298088 A    
C124  C136  1.664788 S    
N32   O204  1.307124 A    
C61   C81   1.444053 S    
C182  O207  1.215415 D    
C60   C66   1.545873 S    
C185  O230  1.394197 S    
N20   O132  1.295355 A    
O270  H65   1.013803 S    
C48   C64   1.542307 S    
C99   N15   1.484463 S    
O68   H8    1.013822 S    
C89   N5    1.492308 S    
C30   N38   1.498247 S    
C187  O233  1.221574 D    
Zn5   O45   1.896941 S    
N23   O161  1.293250 A    
C104  N20   1.501735 S    
C183  O210  1.401923 S    
Zn7   O47   1.896941 S    
C144  O76   1.396867 S    
Zn8   O48   1.896643 S    
N45   O254  1.296787 A    
C34   C190  1.573178 S    
Zn8   O4    1.978713 S    
C131  C183  1.568211 S    
O108  H20   1.010563 S    
N19   O130  1.303739 A    
O142  H29   1.014117 S    
O51   C7    1.300947 A    
N39   O225  1.298267 A    
C33   N41   1.505569 S    
O280  H70   1.013785 S    
C129  N33   1.504338 S    
O8    C4    1.301190 A    
C167  O154  1.400773 S    
Zn9   O1    1.978711 S    
C104  C164  1.547763 S    
N25   O189  1.298235 A    
C123  C179  1.576600 S    
N22   O159  1.298119 A    
C103  N19   1.495914 S    
C49   C81   1.191021 T    
O230  H53   1.009817 S    
N9    O94   1.303193 A    
C110  C118  1.660729 S    
C44   C200  1.500922 S    
Zn1   O1    1.975169 S    
O40   C12   1.281110 A    
C129  C130  1.655878 S    
Zn13  O1    1.973398 S    
C101  C105  1.660250 S    
C132  N36   1.502082 S    
Zn14  O6    1.898667 S    
Zn3   O11   1.898323 S    
C199  O273  1.221979 D    
Zn15  O27   2.001329 S    
N21   O157  1.293487 A    
C48   C78   1.545795 S    
C97   N13   1.491522 S    
C1    C54   1.410489 S    
C70   C78   1.542448 S    
C31   N47   1.491224 S    
C191  O242  1.401757 S    
N46   O256  1.293016 A    
O9    C5    1.301153 A    
C93   C109  1.613504 S    
C125  C126  1.651287 S    
C62   C74   1.542160 S    
C93   H1    1.096719 S    
C164  O148  1.397947 S    
C66   C76   1.545904 S    
O186  H47   1.014653 S    
C67   C73   1.545877 S    
O13   C9    1.304635 A    
C128  C136  1.657755 S    
C179  O185  1.224680 D    
Zn4   O12   1.897576 S    
C73   C137  1.501052 S    
O208  H50   1.014154 S    
C129  C133  1.665821 S    
N8    O91   1.294639 A    
O18   C14   1.283025 A    
C26   C158  1.546270 S    
C70   C86   1.444287 S    
N5    O85   1.296131 A    
O6    C2    1.301284 A    
C176  O179  1.228118 D    
N33   O213  1.306466 A    
C162  O144  1.393816 S    
C151  O106  1.400472 S    
Zn9   O29   2.000202 S    
C33   C34   1.646718 S    
C161  O142  1.400921 S    
N41   O246  1.295196 A    
C67   C143  1.500700 S    
C125  C133  1.652307 S    
O70   H9    1.013809 S    
Zn12  O32   2.001882 S    
Zn13  O25   2.001329 S    
C158  O135  1.214432 D    
N4    O59   1.304213 A    
O76   H12   1.013803 S    
C55   C87   1.191292 T    
Zn15  O3    1.973398 S    
C121  C122  1.643689 S    
C160  O140  1.389225 S    
Zn11  O3    1.978711 S    
C127  C187  1.552604 S    
C157  O133  1.216934 D    
C53   C85   1.191309 T    
C128  N32   1.509203 S    
O240  H58   1.013836 S    
C156  O123  1.221950 D    
C92   C96   1.588320 S    
C119  N23   1.504769 S    
O43   C15   1.296992 A    
C41   C47   1.546033 S    
C113  C173  1.556862 S    
C163  O146  1.401729 S    
N37   O221  1.300732 A    
C121  C177  1.575532 S    
C177  O182  1.390761 S    
O52   C8    1.299443 A    
Zn5   O1    1.975319 S    
C58   C62   1.542306 S    
N36   O220  1.299097 A    
O72   H10   1.013822 S    
C90   N6    1.488867 S    
N9    O93   1.300464 A    
N12   O99   1.298090 A    
C150  O103  1.218523 D    
C50   C82   1.190834 T    
O10   C6    1.299666 A    
C25   C157  1.557212 S    
O35   C23   1.284857 A    
C94   H2    1.061519 S    
C109  C117  1.631001 S    
C116  C176  1.585702 S    
C96   C152  1.520235 S    
O170  H39   1.014587 S    
C120  N24   1.488751 S    
C132  C184  1.564663 S    
C175  O178  1.394972 S    
C78   C202  1.500873 S    
N38   O224  1.305243 A    
N44   O252  1.300678 A    
O140  H28   1.006740 S    
C112  C120  1.651928 S    
C91   C95   1.575842 S    
C102  C106  1.650465 S    
C44   C58   1.545941 S    
C100  C108  1.673965 S    
C156  O124  1.403619 S    
N15   O113  1.295723 A    
C159  O138  1.401053 S    
O180  H44   1.014715 S    
C188  O235  1.227830 D    
Zn9   O17   1.993924 S    
C173  O174  1.394286 S    
C18   C134  1.539666 S    
N17   O126  1.304466 A    
C29   C30   1.667540 S    
C176  O180  1.395301 S    
Zn14  O42   1.995077 S    
C98   C170  1.552272 S    
O184  H46   1.014206 S    
O7    C3    1.299818 A    
C22   C38   1.542792 S    
O62   H5    1.013808 S    
N1    O53   1.303479 A    
C174  O175  1.227736 D    
Zn2   O38   1.996307 S    
C142  O72   1.396906 S    
O102  H17   1.011506 S    
C148  O84   1.396946 S    
N5    O86   1.300062 A    
O19   C15   1.287970 A    
N40   O228  1.304179 A    
C98   N14   1.496403 S    
C198  O271  1.221991 D    
N48   O260  1.293628 A    
C48   C196  1.500970 S    
O118  H21   1.013050 S    
O37   C9    1.275103 A    
O266  H63   1.013834 S    
C192  O243  1.213147 D    
C111  C115  1.632459 S    
O39   C11   1.289900 A    
N11   O97   1.301074 A    
C96   H4    1.094431 S    
O84   H16   1.013793 S    
C98   C114  1.669456 S    
C92   N8    1.509498 S    
C8    C52   1.409970 S    
C75   C139  1.500888 S    
C129  C181  1.563349 S    
O47   C3    1.299572 A    
C94   C150  1.560264 S    
C27   C39   1.649280 S    
C102  C118  1.633129 S    
C76   C78   1.545839 S    
N2    O56   1.295890 A    
N28   O196  1.300911 A    
C143  O74   1.396877 S    
C4    C55   1.410665 S    
C34   N42   1.498462 S    
C68   C144  1.500827 S    
O36   C24   1.299188 A    
C189  O238  1.401760 S    
C80   C204  1.500832 S    
O12   C8    1.299618 A    
C89   C93   1.580504 S    
C36   C40   1.667155 S    
C121  N25   1.493981 S    
N42   O247  1.305511 A    
C166  O151  1.219774 D    
O188  H48   1.011222 S    
Zn3   O35   2.000366 S    
C58   C146  1.501024 S    
C100  N16   1.491596 S    
Zn15  O43   1.996354 S    
C151  O105  1.217291 D    
C59   C65   1.545858 S    
C91   C107  1.650663 S    
N39   O226  1.305001 A    
C196  O268  1.396941 S    
O156  H36   1.014209 S    
C94   C110  1.621826 S    
C15   C107  1.531318 S    
C31   C39   1.654844 S    
C47   C77   1.545912 S    
N4    O60   1.294602 A    
C124  N28   1.496571 S    
C45   C79   1.545744 S    
C35   N43   1.505422 S    
C46   C80   1.545832 S    
O120  H22   1.012372 S    
C139  O66   1.396878 S    
O122  H23   1.011966 S    
C187  O234  1.396107 S    
C145  O77   1.221953 D    
N10   O96   1.304136 A    
O242  H59   1.014200 S    
N34   O216  1.300269 A    
C172  O171  1.226599 D    
C154  O119  1.214882 D    
C13   C105  1.530264 S    
C122  C178  1.573930 S    
O182  H45   1.014532 S    
C127  N31   1.499065 S    
N26   O191  1.294672 A    
C137  O62   1.397029 S    
C152  O107  1.216803 D    
O166  H37   1.014613 S    
C165  O150  1.399702 S    
N24   O163  1.295731 A    
C36   C192  1.569557 S    
C113  C153  1.556453 S    
O38   C10   1.282279 A    
O32   C20   1.303423 A    
N19   O129  1.295693 A    
C114  C154  1.547340 S    
C25   C26   1.629839 S    
N8    O92   1.303480 A    
Zn2   O2    1.973776 S    
C27   N3    1.508163 S    
C155  O121  1.216472 D    
Zn14  O2    1.974792 S    
O284  H72   1.013779 S    
C2    C53   1.410651 S    
C28   C160  1.543998 S    
C130  N34   1.493050 S    
C72   C80   1.542512 S    
C171  O169  1.226414 D    
C202  O280  1.396855 S    
O154  H35   1.013833 S    
N43   O250  1.294836 A    
C184  O212  1.404480 S    
C47   C63   1.542376 S    
N13   O109  1.300006 A    
N34   O215  1.305469 A    
C203  O282  1.396897 S    
C71   C79   1.542420 S    
N48   O259  1.304794 A    
O236  H56   1.005817 S    
C45   C61   1.542363 S    
Zn4   O36   2.001056 S    
O206  H49   1.014139 S    
O21   C17   1.289965 A    
N7    O90   1.300852 A    
N30   O200  1.306939 A    
C165  O149  1.225307 D    
C146  O79   1.221985 D    
N3    O58   1.294687 A    
C103  C119  1.633823 S    
C28   N4    1.505328 S    
C104  C120  1.638710 S    
N31   O202  1.306165 A    
O232  H54   1.009547 S    
C141  O70   1.396904 S    
O78   H13   1.013790 S    
C9    C112  1.528489 S    
O49   C5    1.300892 A    
C41   C69   1.542523 S    
C10   C111  1.531582 S    
N25   O190  1.304335 A    
C194  O264  1.397000 S    
N43   O249  1.305351 A    
C117  C165  1.554429 S    
C35   C36   1.645262 S    
C138  O64   1.396969 S    
O172  H40   1.014257 S    
O136  H26   1.008362 S    
C124  C180  1.562557 S    
C153  O118  1.404166 S    
Zn10  O30   2.001882 S    
O282  H71   1.013750 S    
C169  O166  1.393419 S    
C185  O229  1.223169 D    
Zn14  O26   2.000640 S    
C25   C37   1.653033 S    
Zn15  O7    1.897921 S    
C157  O134  1.401269 S    
O106  H19   1.013938 S    
C112  C116  1.641618 S    
C54   C86   1.191176 T    
C14   C106  1.532383 S    
N32   O203  1.295360 A    
C79   C203  1.500745 S    
C117  N21   1.505303 S    
C201  O278  1.396848 S    
Zn11  O51   1.896497 S    
N47   O258  1.296304 A    
Zn5   O13   1.994972 S    
C198  O272  1.396958 S    
C33   C37   1.670114 S    
C149  O102  1.398615 S    
C122  C134  1.663077 S    
Zn6   O2    1.978713 S    
C101  C161  1.560317 S    
C65   C75   1.545824 S    
C204  O284  1.396850 S    
Zn7   O15   1.994972 S    
C174  O176  1.394970 S    
Zn13  O5    1.897921 S    
Zn8   O16   1.993873 S    
C74   C80   1.545827 S    
C3    C56   1.410592 S    
C7    C51   1.410197 S    
C43   C45   1.545848 S    
C128  C188  1.522687 S    
O274  H67   1.013819 S    
C147  O82   1.396927 S    
O104  H18   1.014204 S    
C109  C113  1.639111 S    
C103  C107  1.668453 S    
C189  O237  1.216408 D    
C131  C135  1.664445 S    
C91   N11   1.505290 S    
C27   C159  1.552278 S    
C146  O80   1.396964 S    
O14   C10   1.301015 A    
C95   H3    1.099074 S    
N16   O115  1.299048 A    
C96   C112  1.610534 S    
C137  O61   1.221975 D    
C31   C32   1.667366 S    
C104  C108  1.641620 S    
O210  H51   1.014190 S    
C127  C135  1.663697 S    
C191  O241  1.215294 D    
Zn10  O18   1.995022 S    
C89   C105  1.649409 S    
C12   C109  1.534275 S    
C57   C145  1.500952 S    
C140  O68   1.396955 S    
C19   C135  1.530941 S    
C164  O147  1.224152 D    
C42   C70   1.542507 S    
N6    O88   1.303210 A    
N7    O89   1.292634 A    
C175  O177  1.227570 D    
C52   C84   1.190908 T    
C100  C172  1.559554 S    
C56   C88   1.191246 T    
C25   N1    1.513562 S    
O41   C13   1.296427 A    
Zn12  O20   1.995022 S    
C21   C37   1.530272 S    
O80   H14   1.013785 S    
O238  H57   1.014142 S    
C89   N9    1.511439 S    
C162  O143  1.224693 D    
C148  O83   1.221987 D    
O45   C1    1.299598 A    
C75   C77   1.545781 S    
C26   C38   1.669838 S    
C126  C186  1.525862 S    
C59   C147  1.500976 S    
C138  O63   1.221985 D    
O20   C16   1.287125 A    
O33   C21   1.289800 A    
C111  C119  1.630188 S    
C66   C70   1.542492 S    
O74   H11   1.013754 S    
O15   C11   1.290940 A    
C178  O184  1.393097 S    
C160  O139  1.216262 D    
N28   O195  1.294961 A    
C202  O279  1.222004 D    
C99   C115  1.655197 S    
C183  O209  1.215582 D    
C184  O211  1.215938 D    
O268  H64   1.013818 S    
O82   H15   1.013818 S    
C97   C113  1.657439 S    
O264  H62   1.013813 S    
C182  O208  1.405817 S    
C163  O145  1.219145 D    
O44   C16   1.298503 A    
O134  H25   1.011537 S    
C177  O181  1.225029 D    
C195  O266  1.397026 S    
N13   O110  1.305439 A    
O17   C13   1.288660 A    
C100  C116  1.661278 S    
C102  N18   1.505785 S    
C101  C117  1.636642 S    
N1    O54   1.296008 A    
C34   C38   1.664826 S    
N12   O100  1.304659 A    
O48   C4    1.301086 A    
C180  O187  1.225884 D    
C116  C156  1.548399 S    
Zn16  O8    1.898667 S    
C90   C94   1.575377 S    
O178  H43   1.014214 S    
C95   C151  1.535011 S    
C190  O240  1.405774 S    
C123  C135  1.660113 S    
C172  O172  1.391691 S    
C193  O261  1.221949 D    
C130  C134  1.676665 S    
O66   H7    1.013793 S    
N27   O194  1.305414 A    
C131  C132  1.635937 S    
C141  O69   1.222022 D    
Zn1   O33   2.000366 S    
C101  N17   1.486972 S    
O150  H33   1.013984 S    
O30   C18   1.296259 A    
C46   C194  1.501019 S    
