data_mof_unit_58273.cif
_audit_creation_date              2012-12-10T20:28:47-0500
_audit_creation_method            fapswitch 2.2
_symmetry_space_group_name_H-M    P1
_symmetry_Int_Tables_number       1
_space_group_crystal_system       triclinic
_cell_length_a                    10.627791
_cell_length_b                    10.672509
_cell_length_c                    9.900168
_cell_angle_alpha                 89.134425
_cell_angle_beta                  89.071722
_cell_angle_gamma                 90.038181
_cell_volume                      1122.65252462

loop_
_atom_site_label
_atom_site_type_symbol
_atom_type_description
_atom_site_fract_x
_atom_site_fract_y
_atom_site_fract_z
_atom_type_partial_charge
C1    C     C_R   0.504879 0.259683 0.500325 0.880285
C2    C     C_R   0.063961 0.613195 0.561550 0.059729
C3    C     C_R   0.128080 0.511690 0.501902 -0.083853
C4    C     C_R   0.065658 0.415834 0.436619 -0.188870
C5    C     C_R   0.937156 0.416007 0.434078 -0.185712
C6    C     C_R   0.871523 0.511953 0.496989 -0.069420
C7    C     C_R   0.564140 0.061261 0.612177 0.135181
C8    C     C_R   0.528186 0.127936 0.497060 -0.098556
C9    C     C_R   0.523304 0.065868 0.373034 -0.211869
C10   C     C_R   0.525176 0.936664 0.371747 -0.176377
C11   C     C_R   0.533014 0.870401 0.494473 -0.089493
C12   C     C_R   0.260561 0.504305 0.500870 0.873220
C13   C     C_R   0.568079 0.933022 0.610528 0.098163
C14   C     C_3   0.521863 0.920248 0.753158 -0.441010
C15   C     C_3   0.513667 0.061925 0.753586 -0.474738
C16   C     C_R   0.399214 0.454430 0.073770 0.192995
C17   C     C_R   0.589450 0.563877 0.067400 0.188881
C18   C     C_R   0.590236 0.561390 0.924148 -0.158208
C19   C     C_R   0.398849 0.455070 0.931710 0.210985
C20   C     C_3   0.346076 0.326032 0.930003 -0.478438
C21   C     C_3   0.345585 0.325949 0.083422 -0.484526
C22   C     C_R   0.506603 0.739775 0.498815 0.861296
C23   C     C_R   0.739396 0.502325 0.499020 0.870666
C24   C     C_R   0.127059 0.715619 0.619688 -0.214348
C25   C     C_R   0.058822 0.815141 0.674671 0.225357
C26   C     C_R   0.927984 0.814567 0.671845 -0.143772
C27   C     C_R   0.864793 0.715108 0.613970 -0.216507
C28   C     C_R   0.932103 0.613167 0.558728 0.107544
H1    H     H_    0.116799 0.339654 0.389552 0.152419
H2    H     H_    0.595528 0.882211 0.820880 0.205749
H3    H     H_    0.414932 0.095297 0.757814 0.232308
H4    H     H_    0.579708 0.105948 0.824776 0.206020
H5    H     H_    0.663436 0.609804 0.866798 0.173003
H6    H     H_    0.250419 0.323198 0.886370 0.224376
H7    H     H_    0.414784 0.259515 0.887498 0.211296
H8    H     H_    0.249361 0.325238 0.129137 0.211969
H9    H     H_    0.411946 0.257055 0.127664 0.208360
H10   H     H_    0.228645 0.720510 0.621221 0.160252
H11   H     H_    0.874927 0.892005 0.713268 0.164017
H12   H     H_    0.763383 0.720185 0.611099 0.153237
H13   H     H_    0.888509 0.339652 0.385993 0.155936
H14   H     H_    0.507336 0.115326 0.278768 0.168016
H15   H     H_    0.508801 0.890061 0.277166 0.190200
H16   H     H_    0.428836 0.873205 0.762843 0.239945
N1    N     N_R   0.499160 0.499140 0.142800 -0.130448
N2    N     N_R   0.499160 0.499180 0.857150 -0.123400
O1    O     O_R   0.500020 0.316790 0.614690 -0.611538
O2    O     O_R   0.500000 0.316760 0.385350 -0.628548
O3    O     O_R   0.316770 0.500020 0.614690 -0.613967
O4    O     O_R   0.316760 0.499980 0.385350 -0.609182
O5    O     O_R   0.500000 0.683240 0.614650 -0.635791
O6    O     O_R   0.499980 0.683210 0.385310 -0.599709
O7    O     O_R   0.683240 0.500020 0.614650 -0.627649
O8    O     O_R   0.683230 0.499980 0.385310 -0.584448
Zn1   Zn    Zn3+2 0.500010 0.500020 0.653130 0.948797
Zn2   Zn    Zn3+2 0.499990 0.499980 0.346870 0.978761
I1    I     I_    0.727638 0.680284 0.152391 -0.353855
I2    I     I_    0.151617 0.968882 0.759623 -0.454730

loop_
_geom_bond_atom_site_label_1
_geom_bond_atom_site_label_2
_ccdc_geom_bond_type
C16   N1    A    
N2    Zn1   S    
C4    H1    S    
C24   H10   S    
C1    O2    A    
C15   H3    S    
C16   C21   S    
C1    C8    S    
O4    Zn2   S    
C9    C10   A    
C10   H15   S    
C11   C22   S    
C12   O4    A    
C19   C20   S    
C27   H12   S    
C20   H6    S    
C7    C15   S    
C2    C3    A    
C9    H14   S    
C19   N2    A    
C7    C8    A    
C21   H8    S    
C13   C14   S    
C24   C25   A    
C4    C5    A    
C11   C13   A    
C26   C27   A    
C14   H2    S    
C16   C19   A    
C6    C23   S    
C18   N2    A    
C23   O7    A    
C14   H16   S    
C17   N1    A    
C17   C18   A    
O5    Zn1   S    
O7    Zn1   S    
C2    C24   A    
C5    C6    A    
C18   H5    S    
O8    Zn2   S    
C26   H11   S    
C12   O3    A    
C10   C11   A    
C3    C4    A    
C7    C13   A    
C21   H9    S    
C20   C21   S    
C23   O8    A    
C22   O6    A    
C25   I2    S    
C17   I1    S    
C27   C28   A    
O2    Zn2   S    
O1    Zn1   S    
C5    H13   S    
C14   C15   S    
C22   O5    A    
C2    C28   A    
C3    C12   S    
C25   C26   A    
O3    Zn1   S    
C20   H7    S    
C6    C28   A    
O6    Zn2   S    
N1    Zn2   S    
C1    O1    A    
C8    C9    A    
C15   H4    S    
