data_mof_unit_20759.cif
_audit_creation_date              2012-12-11T16:51:24-0500
_audit_creation_method            fapswitch 2.2
_symmetry_space_group_name_H-M    P1
_symmetry_Int_Tables_number       1
_space_group_crystal_system       triclinic
_cell_length_a                    24.252418
_cell_length_b                    17.11531
_cell_length_c                    15.573712
_cell_angle_alpha                 89.999987
_cell_angle_beta                  128.954244
_cell_angle_gamma                 90.0
_cell_volume                      5027.0727693

loop_
_atom_site_label
_atom_site_type_symbol
_atom_type_description
_atom_site_fract_x
_atom_site_fract_y
_atom_site_fract_z
_atom_type_partial_charge
C1    C     C_R   0.844299 0.864701 0.227120 0.184416
C2    C     C_R   0.136763 0.190520 0.501089 0.094030
C3    C     C_3   0.660400 0.664597 0.036713 -0.865592
C4    C     C_R   0.363236 0.690520 0.498911 0.094029
C5    C     C_R   0.636763 0.690520 0.501089 0.094029
C6    C     C_R   0.851883 0.120532 0.131905 0.105983
C7    C     C_R   0.148117 0.120533 0.868095 0.105983
C8    C     C_R   0.351883 0.620533 0.131905 0.105981
C9    C     C_R   0.648117 0.620533 0.868094 0.105982
C10   C     C_R   0.775850 0.839295 0.606176 0.133386
C11   C     C_R   0.224150 0.839295 0.393824 0.133385
C12   C     C_R   0.275850 0.339295 0.606176 0.133385
C13   C     C_R   0.155701 0.864701 0.772879 0.184416
C14   C     C_R   0.724150 0.339295 0.393824 0.133386
C15   C     C_R   0.760218 0.861710 0.507023 0.001889
C16   C     C_R   0.239782 0.861710 0.492976 0.001889
C17   C     C_R   0.260218 0.361710 0.507023 0.001889
C18   C     C_R   0.739782 0.361710 0.492976 0.001888
C19   C     C_R   0.688884 0.857055 0.410900 -0.243475
C20   C     C_R   0.311116 0.857055 0.589100 -0.243475
C21   C     C_R   0.188884 0.357055 0.410900 -0.243475
C22   C     C_R   0.811116 0.357055 0.589100 -0.243474
C23   C     C_R   0.140414 0.311876 0.410894 0.213212
C24   C     C_R   0.344299 0.364701 0.227120 0.184416
C25   C     C_R   0.859586 0.311876 0.589105 0.213212
C26   C     C_R   0.640413 0.811876 0.410894 0.213212
C27   C     C_R   0.359586 0.811876 0.589105 0.213213
C28   C     C_R   0.165707 0.267754 0.506529 -0.062734
C29   C     C_R   0.834293 0.267754 0.493470 -0.062733
C30   C     C_R   0.665707 0.767754 0.506529 -0.062734
C31   C     C_R   0.334293 0.767754 0.493470 -0.062734
C32   C     C_R   0.229488 0.293277 0.606480 0.117934
C33   C     C_R   0.770512 0.293277 0.393519 0.117933
C34   C     C_R   0.729488 0.793277 0.606480 0.117934
C35   C     C_R   0.655701 0.364701 0.772879 0.184416
C36   C     C_R   0.270512 0.793277 0.393519 0.117934
C37   C     C_3   0.789601 0.752594 0.710078 0.035810
C38   C     C_3   0.210399 0.752593 0.289922 0.035810
C39   C     C_3   0.289601 0.252593 0.710078 0.035810
C40   C     C_3   0.710399 0.252593 0.289922 0.035810
C41   C     C_R   0.113685 0.896903 0.406892 -0.145220
C42   C     C_R   0.886315 0.896903 0.593108 -0.145219
C43   C     C_R   0.613685 0.396903 0.406892 -0.145220
C44   C     C_R   0.386315 0.396903 0.593108 -0.145219
C45   C     C_3   0.839966 0.802270 0.707481 -0.562175
C46   C     C_R   0.911155 0.144407 0.591515 -0.092634
C47   C     C_3   0.160034 0.802270 0.292519 -0.562175
C48   C     C_3   0.339966 0.302270 0.707481 -0.562175
C49   C     C_3   0.660034 0.302269 0.292519 -0.562175
C50   C     C_2   0.146089 0.749793 0.866742 -0.148173
C51   C     C_2   0.853910 0.749793 0.133257 -0.148172
C52   C     C_2   0.646089 0.249793 0.866742 -0.148173
C53   C     C_2   0.353910 0.249793 0.133257 -0.148172
C54   C     C_2   0.189095 0.701742 0.865666 -0.079907
C55   C     C_2   0.810905 0.701742 0.134334 -0.079907
C56   C     C_2   0.689095 0.201742 0.865666 -0.079906
C57   C     C_R   0.088845 0.144407 0.408484 -0.092634
C58   C     C_2   0.310905 0.201742 0.134333 -0.079907
C59   C     C_2   0.804897 0.142491 0.013661 0.244013
C60   C     C_2   0.195103 0.142491 0.986339 0.244014
C61   C     C_2   0.304897 0.642492 0.013661 0.244012
C62   C     C_2   0.695103 0.642492 0.986338 0.244013
C63   C     C_2   0.734338 0.148239 0.958665 -0.086242
C64   C     C_2   0.265662 0.148239 0.041335 -0.086242
C65   C     C_2   0.234338 0.648239 0.958665 -0.086243
C66   C     C_2   0.765661 0.648240 0.041335 -0.086243
C67   C     C_R   0.188696 0.897598 0.589144 -0.106530
C68   C     C_R   0.411155 0.644407 0.591515 -0.092633
C69   C     C_R   0.811304 0.897598 0.410856 -0.106531
C70   C     C_R   0.688696 0.397598 0.589144 -0.106531
C71   C     C_R   0.311304 0.397598 0.410856 -0.106531
C72   C     C_R   0.059279 0.861205 0.763165 -0.159984
C73   C     C_R   0.940721 0.861205 0.236835 -0.159985
C74   C     C_R   0.559279 0.361205 0.763165 -0.159984
C75   C     C_R   0.440721 0.361205 0.236835 -0.159984
C76   C     C_R   0.878970 0.821947 0.197465 0.092241
C77   C     C_R   0.121030 0.821947 0.802535 0.092241
C78   C     C_R   0.378970 0.321947 0.197465 0.092241
C79   C     C_R   0.588845 0.644407 0.408484 -0.092634
C80   C     C_R   0.621030 0.321947 0.802535 0.092241
C81   C     C_R   0.182613 0.880675 0.496837 0.084239
C82   C     C_R   0.817387 0.880675 0.503163 0.084239
C83   C     C_R   0.682613 0.380675 0.496837 0.084239
C84   C     C_R   0.317387 0.380674 0.503163 0.084239
C85   C     C_R   0.841333 0.145963 0.408062 -0.132460
C86   C     C_R   0.158667 0.145963 0.591937 -0.132460
C87   C     C_R   0.341333 0.645963 0.408062 -0.132460
C88   C     C_R   0.658667 0.645963 0.591937 -0.132459
C89   C     C_R   0.923481 0.103681 0.196878 -0.087759
C90   C     C_R   0.863236 0.190520 0.498911 0.094030
C91   C     C_R   0.076519 0.103681 0.803122 -0.087759
C92   C     C_R   0.423481 0.603681 0.196878 -0.087760
C93   C     C_R   0.576519 0.603681 0.803122 -0.087761
C94   C     C_R   0.167843 0.103620 0.803700 -0.118551
C95   C     C_R   0.832157 0.103620 0.196300 -0.118551
C96   C     C_R   0.667843 0.603620 0.803700 -0.118550
C97   C     C_R   0.332157 0.603620 0.196300 -0.118549
C98   C     C_3   0.839598 0.164594 0.963285 -0.865598
C99   C     C_3   0.160401 0.164595 0.036714 -0.865602
C100  C     C_3   0.339599 0.664596 0.963286 -0.865586
H1    H     H_    0.794765 0.689520 0.699284 0.121531
H2    H     H_    0.128868 0.767595 0.309181 0.189700
H3    H     H_    0.371132 0.267595 0.690819 0.189700
H4    H     H_    0.628868 0.267595 0.309181 0.189700
H5    H     H_    0.711851 0.127692 0.996502 0.121141
H6    H     H_    0.288149 0.127692 0.003497 0.121141
H7    H     H_    0.211851 0.627692 0.996502 0.121142
H8    H     H_    0.788149 0.627692 0.003498 0.121141
H9    H     H_    0.198175 0.711735 0.806817 0.152410
H10   H     H_    0.801825 0.711735 0.193183 0.152408
H11   H     H_    0.698176 0.211735 0.806818 0.152410
H12   H     H_    0.205235 0.689519 0.300716 0.121531
H13   H     H_    0.301824 0.211736 0.193182 0.152410
H14   H     H_    0.132563 0.738514 0.920022 0.172581
H15   H     H_    0.867437 0.738514 0.079978 0.172581
H16   H     H_    0.632562 0.238514 0.920021 0.172581
H17   H     H_    0.367437 0.238514 0.079978 0.172581
H18   H     H_    0.093407 0.904897 0.322839 0.110056
H19   H     H_    0.906593 0.904897 0.677161 0.110056
H20   H     H_    0.593407 0.404897 0.322839 0.110056
H21   H     H_    0.406593 0.404897 0.677161 0.110056
H22   H     H_    0.238007 0.906671 0.670261 0.139578
H23   H     H_    0.294765 0.189520 0.699284 0.121531
H24   H     H_    0.761993 0.906671 0.329739 0.139578
H25   H     H_    0.738007 0.406671 0.670261 0.139578
H26   H     H_    0.261993 0.406671 0.329739 0.139578
H27   H     H_    0.021537 0.845625 0.775518 0.123040
H28   H     H_    0.978463 0.845626 0.224482 0.123040
H29   H     H_    0.521537 0.345625 0.775518 0.123040
H30   H     H_    0.478463 0.345625 0.224482 0.123040
H31   H     H_    0.807287 0.163702 0.323328 0.139514
H32   H     H_    0.192713 0.163702 0.676672 0.139513
H33   H     H_    0.307287 0.663702 0.323328 0.139513
H34   H     H_    0.705235 0.189519 0.300716 0.121531
H35   H     H_    0.692713 0.663702 0.676671 0.139513
H36   H     H_    0.954456 0.099338 0.169006 0.105010
H37   H     H_    0.045543 0.099338 0.830994 0.105010
H38   H     H_    0.454457 0.599339 0.169006 0.105010
H39   H     H_    0.545543 0.599339 0.830993 0.105011
H40   H     H_    0.221059 0.098740 0.830871 0.118183
H41   H     H_    0.778941 0.098740 0.169129 0.118184
H42   H     H_    0.721059 0.598740 0.830871 0.118183
H43   H     H_    0.278941 0.598740 0.169129 0.118183
H44   H     H_    0.937557 0.157701 0.676758 0.132384
H45   H     H_    0.871448 0.844150 0.777276 0.223868
H46   H     H_    0.062443 0.157701 0.323241 0.132384
H47   H     H_    0.437557 0.657701 0.676758 0.132383
H48   H     H_    0.562443 0.657701 0.323241 0.132384
H49   H     H_    0.671614 0.883162 0.334338 0.170592
H50   H     H_    0.328385 0.883162 0.665662 0.170592
H51   H     H_    0.171615 0.383162 0.334338 0.170592
H52   H     H_    0.828385 0.383162 0.665662 0.170592
H53   H     H_    0.874314 0.116108 0.975606 0.224049
H54   H     H_    0.801826 0.174598 0.873211 0.245136
H55   H     H_    0.872465 0.217767 0.004506 0.283082
H56   H     H_    0.128552 0.844149 0.222724 0.223868
H57   H     H_    0.125687 0.116109 0.024395 0.224049
H58   H     H_    0.198174 0.174600 0.126787 0.245137
H59   H     H_    0.127534 0.217767 0.995491 0.283083
H60   H     H_    0.374314 0.616109 0.975606 0.224047
H61   H     H_    0.301827 0.674601 0.873212 0.245135
H62   H     H_    0.372467 0.717768 0.004510 0.283081
H63   H     H_    0.625687 0.616111 0.024396 0.224048
H64   H     H_    0.698172 0.674606 0.126786 0.245137
H65   H     H_    0.627531 0.717768 0.995486 0.283081
H66   H     H_    0.371448 0.344149 0.777276 0.223868
H67   H     H_    0.628552 0.344149 0.222724 0.223868
H68   H     H_    0.871132 0.767596 0.690820 0.189700
I1    I     I_    0.732472 0.870567 0.130813 -0.430898
I2    I     I_    0.209160 0.782749 0.155240 -0.448882
I3    I     I_    0.290839 0.282750 0.844760 -0.448882
I4    I     I_    0.709160 0.282749 0.155239 -0.448882
I5    I     I_    0.267528 0.870566 0.869187 -0.430899
I6    I     I_    0.232472 0.370567 0.130812 -0.430897
I7    I     I_    0.767528 0.370566 0.869187 -0.430897
I8    I     I_    0.032611 0.315946 0.265747 -0.368289
I9    I     I_    0.967389 0.315946 0.734252 -0.368289
I10   I     I_    0.532611 0.815945 0.265747 -0.368290
I11   I     I_    0.467389 0.815945 0.734253 -0.368291
I12   I     I_    0.790839 0.782750 0.844760 -0.448881
N1    N     N_R   0.888400 0.921830 0.294620 -0.067802
N2    N     N_R   0.874350 0.922400 0.443380 -0.045391
N3    N     N_R   0.625650 0.422400 0.556620 -0.045391
N4    N     N_R   0.374350 0.422400 0.443380 -0.045391
N5    N     N_R   0.054230 0.922730 0.705400 -0.057935
N6    N     N_R   0.945770 0.922730 0.294600 -0.057935
N7    N     N_R   0.554230 0.422730 0.705400 -0.057935
N8    N     N_R   0.445770 0.422730 0.294600 -0.057935
N9    N     N_R   0.873790 0.077030 0.443380 -0.044624
N10   N     N_R   0.126210 0.077030 0.556620 -0.044625
N11   N     N_R   0.373790 0.577030 0.443380 -0.044625
N12   N     N_R   0.111600 0.921830 0.705380 -0.067802
N13   N     N_R   0.626210 0.577030 0.556620 -0.044625
N14   N     N_R   0.945200 0.076700 0.294600 -0.044432
N15   N     N_R   0.054800 0.076700 0.705400 -0.044432
N16   N     N_R   0.445200 0.576700 0.294600 -0.044432
N17   N     N_R   0.554800 0.576700 0.705400 -0.044431
N18   N     N_R   0.111030 0.077600 0.705380 -0.040570
N19   N     N_R   0.888970 0.077600 0.294620 -0.040570
N20   N     N_R   0.611030 0.577600 0.705380 -0.040570
N21   N     N_R   0.388970 0.577600 0.294620 -0.040571
N22   N     N_R   0.919490 0.077280 0.556590 -0.049864
N23   N     N_R   0.388400 0.421830 0.294620 -0.067802
N24   N     N_R   0.080510 0.077280 0.443410 -0.049864
N25   N     N_R   0.419490 0.577280 0.556590 -0.049864
N26   N     N_R   0.580510 0.577280 0.443410 -0.049864
N27   N     N_R   0.611600 0.421830 0.705380 -0.067802
N28   N     N_R   0.079940 0.922160 0.443410 -0.044322
N29   N     N_R   0.920060 0.922160 0.556590 -0.044322
N30   N     N_R   0.579940 0.422160 0.443410 -0.044322
N31   N     N_R   0.420060 0.422160 0.556590 -0.044322
N32   N     N_R   0.125650 0.922400 0.556620 -0.045391
Ni1   Ni    Ni4+2 0.882160 0.999430 0.370180 0.238663
Ni2   Ni    Ni4+2 0.117840 0.999430 0.629820 0.238663
Ni3   Ni    Ni4+2 0.382160 0.499430 0.370180 0.238663
Ni4   Ni    Ni4+2 0.617840 0.499430 0.629820 0.238663
Ni5   Ni    Ni4+2 0.012460 0.999430 0.370180 0.216779
Ni6   Ni    Ni4+2 0.987540 0.999430 0.629820 0.216779
Ni7   Ni    Ni4+2 0.512460 0.499430 0.370180 0.216778
Ni8   Ni    Ni4+2 0.487540 0.499430 0.629820 0.216779

loop_
_geom_bond_atom_site_label_1
_geom_bond_atom_site_label_2
_ccdc_geom_bond_type
C98   H54   S    
C24   N23   A    
C99   H59   S    
C34   C37   S    
C43   C83   A    
C14   C18   A    
C11   C47   S    
C75   N8    A    
C42   C82   A    
C12   C48   S    
C60   C99   S    
C24   I6    S    
N16   Ni7   S    
C49   H4    S    
C73   N6    A    
C2    C57   A    
N25   Ni8   S    
C4    C87   A    
N3    N30   A    
C15   C19   A    
N31   Ni8   S    
C50   C54   D    
C13   N12   A    
N5    N12   A    
C45   H45   S    
N29   Ni6   S    
C16   C81   S    
N23   Ni3   S    
C11   C36   A    
C68   N25   A    
C27   I11   S    
C49   H67   S    
C10   C15   A    
C37   I12   S    
C25   I9    S    
C42   H19   S    
C3    C62   S    
C14   C49   S    
C47   H56   S    
C89   N14   A    
C85   N9    A    
C40   C49   S    
C29   C33   A    
C44   H21   S    
N28   Ni5   S    
C39   H23   S    
N11   N25   A    
C32   C39   S    
C1    I1    S    
C43   N30   A    
C19   C26   A    
C87   H33   S    
C97   H43   S    
C39   I3    S    
C69   C82   A    
N11   Ni3   S    
C91   H37   S    
C5    C88   A    
N21   Ni3   S    
C22   C25   A    
C12   C17   A    
N2    Ni1   S    
C71   H26   S    
C100  H61   S    
C8    C92   A    
C41   H18   S    
C5    C79   A    
N17   Ni8   S    
C56   H11   S    
C51   C55   D    
C70   N3    A    
C75   H30   S    
N28   N32   A    
C69   N2    A    
N15   N18   A    
C26   I10   S    
C98   H53   S    
C41   C81   A    
C31   C36   A    
C47   H2    S    
C74   C80   A    
C57   H46   S    
C12   C32   A    
C42   N29   A    
C25   C29   A    
C14   C33   A    
C73   H28   S    
C6    C59   S    
N12   Ni2   S    
C29   C90   S    
C75   C78   A    
C38   I2    S    
N14   Ni5   S    
C22   H52   S    
N7    Ni8   S    
C52   H16   S    
C58   C64   S    
N6    Ni5   S    
C13   C77   A    
C54   C65   S    
C86   N10   A    
C33   C40   S    
N5    Ni6   S    
C30   C34   A    
C72   H27   S    
C27   C31   A    
C9    C62   S    
C28   C32   A    
N1    N6    A    
C19   H49   S    
C51   C76   S    
C15   C82   S    
C97   N21   A    
C4    C68   A    
C62   C66   D    
N4    Ni3   S    
C46   H44   S    
C23   I8    S    
C69   H24   S    
C44   C84   A    
C48   H3    S    
C40   H34   S    
N2    N29   A    
C51   H15   S    
N30   Ni7   S    
C54   H9    S    
C50   H14   S    
C71   C84   A    
N17   N20   A    
C13   I5    S    
C8    C97   A    
C72   C77   A    
C93   H39   S    
C58   H13   S    
C91   N15   A    
C11   C16   A    
C100  H60   S    
N14   N19   A    
C16   C20   A    
C7    C91   A    
C10   C45   S    
C18   C83   S    
C56   C63   S    
C67   N32   A    
C10   C34   A    
C23   C28   A    
C64   H6    S    
C70   C83   A    
N10   Ni2   S    
C9    C96   A    
C38   C47   S    
C68   H47   S    
N9    Ni1   S    
C3    H64   S    
N22   Ni6   S    
C70   H25   S    
C35   N27   A    
C20   C27   A    
N32   Ni2   S    
C95   H41   S    
C21   C23   A    
C55   H10   S    
N9    N22   A    
C73   C76   A    
C85   C90   A    
C61   C100  S    
C63   H5    S    
C8    C61   S    
C37   C45   S    
C99   H58   S    
N18   Ni2   S    
C67   H22   S    
C9    C93   A    
C7    C60   S    
C40   I4    S    
C55   C66   S    
C3    H65   S    
N13   Ni4   S    
C87   N11   A    
C74   N7    A    
N8    Ni7   S    
C24   C78   A    
N3    Ni4   S    
C96   N20   A    
C7    C94   A    
C98   H55   S    
C1    N1    A    
N13   N26   A    
N19   Ni1   S    
C1    C76   A    
C71   N4    A    
C88   H35   S    
C66   H8    S    
C92   N16   A    
C94   N18   A    
C2    C28   S    
C53   C58   D    
C67   C81   A    
C79   H48   S    
C46   C90   A    
C18   C22   A    
C3    H63   S    
N26   Ni7   S    
C79   N26   A    
C92   H38   S    
C43   H20   S    
N8    N23   A    
C59   C63   D    
C86   H32   S    
N24   Ni5   S    
C60   C64   D    
C44   N31   A    
C35   I7    S    
C17   C84   S    
C41   N28   A    
C99   H57   S    
C53   C78   S    
N4    N31   A    
C85   H31   S    
C37   H1    S    
N10   N24   A    
C93   N17   A    
C88   N13   A    
C57   N24   A    
C36   C38   S    
N27   Ni4   S    
N20   Ni4   S    
C20   H50   S    
C2    C86   A    
C53   H17   S    
C21   H51   S    
C45   H68   S    
C17   C21   A    
C72   N5    A    
C4    C31   S    
C6    C89   A    
C96   H42   S    
C61   C65   D    
C35   C80   A    
C46   N22   A    
C48   H66   S    
C95   N19   A    
C6    C95   A    
C5    C30   S    
C74   H29   S    
N7    N27   A    
C50   C77   S    
C89   H36   S    
C59   C98   S    
C94   H40   S    
N1    Ni1   S    
C100  H62   S    
N16   N21   A    
C52   C80   S    
C38   H12   S    
C65   H7    S    
N15   Ni6   S    
C52   C56   D    
C39   C48   S    
C26   C30   A    
