data_mof_unit_36218.cif
_audit_creation_date              2012-12-10T17:17:55-0500
_audit_creation_method            fapswitch 2.2
_symmetry_space_group_name_H-M    P1
_symmetry_Int_Tables_number       1
_space_group_crystal_system       triclinic
_cell_length_a                    14.74005
_cell_length_b                    15.971222
_cell_length_c                    9.62394
_cell_angle_alpha                 89.781465
_cell_angle_beta                  89.419131
_cell_angle_gamma                 90.829555
_cell_volume                      2265.26367988

loop_
_atom_site_label
_atom_site_type_symbol
_atom_type_description
_atom_site_fract_x
_atom_site_fract_y
_atom_site_fract_z
_atom_type_partial_charge
C1    C     C_R   0.379447 0.881466 0.502206 0.851053
C2    C     C_R   0.375135 0.112584 0.501616 0.817448
C3    C     C_R   0.879434 0.381476 0.502208 0.851019
C4    C     C_R   0.875140 0.612590 0.501618 0.817479
C5    C     C_R   0.253427 0.189759 0.385304 -0.232323
C6    C     C_R   0.267762 0.794214 0.380700 -0.249529
C7    C     C_R   0.753416 0.689751 0.385327 -0.232332
C8    C     C_R   0.767752 0.294221 0.380701 -0.249519
C9    C     C_R   0.689148 0.753060 0.382145 0.438341
C10   C     C_R   0.690836 0.243188 0.375080 0.367365
C11   C     C_R   0.189154 0.253065 0.382132 0.438307
C12   C     C_R   0.190842 0.743186 0.375090 0.367469
C13   C     C_R   0.683995 0.809947 0.496312 -0.239875
C14   C     C_R   0.656299 0.207752 0.498114 -0.190692
C15   C     C_R   0.183983 0.309935 0.496321 -0.239886
C16   C     C_R   0.156315 0.707743 0.498122 -0.190640
C17   C     C_R   0.665680 0.009983 0.143416 -0.087966
C18   C     C_R   0.165684 0.509963 0.143414 -0.087950
C19   C     C_R   0.746372 0.026133 0.072173 -0.253189
C20   C     C_R   0.246378 0.526100 0.072169 -0.253153
C21   C     C_R   0.745910 0.035603 0.929427 0.416772
C22   C     C_R   0.245913 0.535580 0.929426 0.416710
C23   C     C_R   0.665484 0.020896 0.857889 -0.259154
C24   C     C_R   0.165486 0.520886 0.857887 -0.259185
C25   C     C_R   0.581381 0.008360 0.925625 0.173783
C26   C     C_R   0.081382 0.508351 0.925623 0.173781
C27   C     C_R   0.581422 0.006055 0.074473 0.300021
C28   C     C_R   0.081424 0.506044 0.074473 0.300053
C29   C     C_R   0.422138 0.994148 0.075048 -0.039788
C30   C     C_R   0.922137 0.494164 0.075048 -0.039780
C31   C     C_R   0.607556 0.126562 0.499167 0.843189
C32   C     C_R   0.618952 0.880472 0.498894 0.844372
C33   C     C_R   0.107560 0.626560 0.499168 0.843233
C34   C     C_R   0.118950 0.380470 0.498895 0.844307
C35   C     C_R   0.422248 0.993694 0.927363 -0.083602
C36   C     C_R   0.922246 0.493713 0.927363 -0.083589
C37   C     C_R   0.298023 0.186558 0.766406 -0.133505
C38   C     C_R   0.277971 0.826401 0.768357 -0.156482
C39   C     C_R   0.798138 0.686661 0.766407 -0.133563
C40   C     C_R   0.777880 0.326489 0.768346 -0.156492
C41   C     C_R   0.300179 0.242714 0.876599 -0.096260
C42   C     C_R   0.213740 0.826154 0.875286 -0.106814
C43   C     C_R   0.800356 0.742858 0.876537 -0.096330
C44   C     C_R   0.713635 0.326232 0.875257 -0.106171
C45   C     C_R   0.783534 0.826739 0.851216 -0.039921
C46   C     C_R   0.627957 0.291309 0.854340 0.012939
C47   C     C_R   0.283367 0.326604 0.851343 -0.039638
C48   C     C_R   0.128043 0.791268 0.854377 0.012806
C49   C     C_R   0.752934 0.851366 0.720611 -0.100849
C50   C     C_R   0.609985 0.249110 0.731973 -0.142683
C51   C     C_R   0.252844 0.351280 0.720719 -0.100652
C52   C     C_R   0.110040 0.749088 0.732003 -0.142748
C53   C     C_R   0.736383 0.792583 0.615969 0.031135
C54   C     C_R   0.674473 0.249313 0.622785 0.073925
C55   C     C_R   0.236333 0.292535 0.616006 0.031057
C56   C     C_R   0.174513 0.749287 0.622798 0.074086
C57   C     C_R   0.276803 0.214283 0.630533 0.096747
C58   C     C_R   0.254840 0.798231 0.633583 0.120608
C59   C     C_R   0.776861 0.714337 0.630527 0.096762
C60   C     C_R   0.754787 0.298277 0.633578 0.120277
C61   C     C_R   0.298907 0.170679 0.507612 -0.174518
C62   C     C_R   0.303994 0.819458 0.508327 -0.141966
C63   C     C_R   0.798923 0.670696 0.507623 -0.174531
C64   C     C_R   0.803966 0.319482 0.508331 -0.142051
Cu1   Cu    Cu3+1 0.499990 1.000000 0.640660 0.944426
Cu2   Cu    Cu3+1 0.999990 0.500000 0.640660 0.944388
Cu3   Cu    Cu3+1 0.500010 1.000000 0.359340 1.025135
Cu4   Cu    Cu3+1 0.000010 0.500000 0.359340 1.025113
H1    H     H_    0.265779 0.152787 0.293086 0.197804
H2    H     H_    0.295266 0.819016 0.283869 0.176525
H3    H     H_    0.765749 0.652758 0.293126 0.197823
H4    H     H_    0.795268 0.319013 0.283871 0.176516
H5    H     H_    0.672193 0.017033 0.749726 0.216563
H6    H     H_    0.172205 0.517035 0.749720 0.216528
H7    H     H_    0.358393 0.988847 0.873692 0.121784
H8    H     H_    0.858390 0.488890 0.873693 0.121733
H9    H     H_    0.310517 0.121831 0.790129 0.161868
H10   H     H_    0.344423 0.847610 0.797005 0.178427
H11   H     H_    0.810634 0.621943 0.790192 0.161895
H12   H     H_    0.844313 0.347730 0.797015 0.178414
H13   H     H_    0.318936 0.221894 0.979461 0.171379
H14   H     H_    0.231116 0.853438 0.974310 0.173479
H15   H     H_    0.819165 0.722077 0.979396 0.171403
H16   H     H_    0.730985 0.353536 0.974275 0.173495
H17   H     H_    0.793442 0.871872 0.933002 0.174237
H18   H     H_    0.576119 0.293933 0.934300 0.220975
H19   H     H_    0.293229 0.371710 0.933186 0.174230
H20   H     H_    0.076212 0.793902 0.934344 0.221082
H21   H     H_    0.748493 0.916090 0.695871 0.154116
H22   H     H_    0.543216 0.221067 0.719956 0.161963
H23   H     H_    0.248435 0.416014 0.696029 0.153928
H24   H     H_    0.043259 0.721067 0.719996 0.161954
H25   H     H_    0.358205 0.989459 0.130941 0.138549
H26   H     H_    0.858203 0.489490 0.130941 0.138540
H27   H     H_    0.672849 0.002040 0.252403 0.196241
H28   H     H_    0.172851 0.502031 0.252404 0.196232
H29   H     H_    0.809075 0.032936 0.129051 0.204461
H30   H     H_    0.309084 0.532891 0.129048 0.204584
N1    N     N_R   0.501200 1.000000 0.147910 -0.187438
N2    N     N_R   0.001200 0.500000 0.147910 -0.187453
N3    N     N_R   0.501270 0.000000 0.852040 -0.189859
N4    N     N_R   0.001270 0.500000 0.852040 -0.189851
O1    O     O_R   0.409820 0.909830 0.618810 -0.606902
O2    O     O_R   0.409820 0.090170 0.618810 -0.613017
O3    O     O_R   0.909820 0.409830 0.618810 -0.606899
O4    O     O_R   0.909820 0.590170 0.618810 -0.613039
O5    O     O_R   0.409840 0.909830 0.381240 -0.572130
O6    O     O_R   0.409840 0.090170 0.381240 -0.555197
O7    O     O_R   0.909840 0.409830 0.381240 -0.572145
O8    O     O_R   0.909840 0.590170 0.381240 -0.555191
O9    O     O_R   0.590170 0.090170 0.618760 -0.610044
O10   O     O_R   0.590170 0.909830 0.618760 -0.594910
O11   O     O_R   0.090170 0.590170 0.618760 -0.610021
O12   O     O_R   0.090170 0.409830 0.618760 -0.594930
O13   O     O_R   0.590190 0.090180 0.381190 -0.553330
O14   O     O_R   0.590190 0.909820 0.381190 -0.537841
O15   O     O_R   0.090190 0.590180 0.381190 -0.553304
O16   O     O_R   0.090190 0.409820 0.381190 -0.537860
S1    S     S_3+6 0.846733 0.065156 0.840774 -0.004175
O17   O     O_2   0.915143 0.996866 0.854808 -0.279382
O18   O     O_2   0.828567 0.080868 0.689494 -0.318314
O19   O     O_3   0.888438 0.153090 0.913277 -0.523936
H31   H     H_    0.940530 0.170130 0.853238 0.389007
S2    S     S_3+6 0.346729 0.565134 0.840761 -0.004285
O20   O     O_2   0.414746 0.496403 0.853298 -0.279863
O21   O     O_2   0.328327 0.581832 0.689842 -0.318051
O22   O     O_3   0.389128 0.652416 0.914467 -0.523716
H32   H     H_    0.441149 0.669572 0.854372 0.389132
S3    S     S_3+6 0.616880 0.754119 0.235365 0.013616
O23   O     O_2   0.645393 0.824381 0.139821 -0.335840
O24   O     O_2   0.623397 0.672952 0.157443 -0.274483
O25   O     O_3   0.508497 0.766504 0.286325 -0.509711
H33   H     H_    0.474220 0.773333 0.199081 0.375230
S4    S     S_3+6 0.624826 0.250215 0.223903 -0.022475
O26   O     O_2   0.528756 0.220554 0.248143 -0.246533
O27   O     O_2   0.622857 0.340491 0.179636 -0.318188
O28   O     O_3   0.673009 0.193299 0.098197 -0.552080
H34   H     H_    0.738469 0.207972 0.101367 0.351319
S5    S     S_3+6 0.116880 0.254122 0.235358 0.013614
O29   O     O_2   0.145386 0.324386 0.139813 -0.335979
O30   O     O_2   0.123400 0.172956 0.157433 -0.274360
O31   O     O_3   0.008498 0.266499 0.286327 -0.509735
H35   H     H_    0.974232 0.273420 0.199094 0.375219
S6    S     S_3+6 0.124815 0.750218 0.223938 -0.022478
O32   O     O_2   0.028731 0.720618 0.248247 -0.246533
O33   O     O_2   0.122899 0.840486 0.179605 -0.318216
O34   O     O_3   0.172934 0.693236 0.098261 -0.552201
H36   H     H_    0.238382 0.707984 0.101227 0.351256

loop_
_geom_bond_atom_site_label_1
_geom_bond_atom_site_label_2
_ccdc_geom_bond_type
C34   O16   A    
Cu2   Cu4   S    
C58   C62   A    
C40   C60   A    
Cu2   O11   S    
C18   H28   S    
Cu2   N4    S    
C13   C32   S    
O34   H36   S    
C42   H14   S    
Cu1   N3    S    
C14   C31   S    
Cu3   O5    S    
C1    C62   S    
S4    O28   S    
C16   C56   A    
C53   C59   A    
C54   C60   A    
C3    C64   S    
C3    O3    A    
C33   O15   A    
C4    C63   S    
C27   N1    A    
C50   C54   A    
C19   C21   A    
C24   C26   A    
C38   C42   A    
C20   C22   A    
C7    H3    S    
C16   C33   S    
S5    O31   S    
Cu3   O6    S    
C30   N2    A    
C43   H15   S    
C36   N4    A    
C39   C59   A    
C9    C13   A    
Cu1   O9    S    
C5    H1    S    
C36   H8    S    
Cu4   O16   S    
C38   C58   A    
C11   C15   A    
C50   H22   S    
C12   C16   A    
O25   H33   S    
Cu1   Cu3   S    
C40   H12   S    
C17   H27   S    
C45   C49   A    
Cu2   O12   S    
C1    O1    A    
C15   C34   S    
C18   C20   A    
C2    C61   S    
Cu3   N1    S    
S3    O25   S    
C51   H23   S    
C28   N2    A    
C41   H13   S    
C6    H2    S    
C23   H5    S    
S6    O34   S    
C31   O13   A    
C29   H25   S    
C44   C46   A    
C46   C50   A    
C13   C53   A    
S1    O18   D    
C19   H29   S    
C8    H4    S    
C29   N1    A    
C17   C27   A    
C18   C28   A    
S6    O33   D    
C10   C14   A    
C39   C43   A    
C38   H10   S    
C44   H16   S    
C37   H9    S    
C12   S6    S    
C39   H11   S    
C42   C48   A    
C45   H17   S    
Cu3   O14   S    
Cu4   N2    S    
Cu1   O10   S    
S4    O27   D    
Cu4   O15   S    
C2    O2    A    
S5    O29   D    
C35   H7    S    
C48   H20   S    
C41   C47   A    
C5    C61   A    
Cu4   O8    S    
C32   O14   A    
C57   C61   A    
C43   C45   A    
C7    C63   A    
C8    C64   A    
S2    O22   S    
C8    C10   A    
C14   C54   A    
C15   C55   A    
C21   C23   A    
C5    C11   A    
C22   C24   A    
C59   C63   A    
C52   H24   S    
C34   O12   A    
Cu1   O1    S    
Cu2   O3    S    
C40   C44   A    
O22   H32   S    
S2    O21   D    
S3    O23   D    
S1    O19   S    
C7    C9    A    
C4    O8    A    
C32   O10   A    
C26   C28   A    
C10   S4    S    
C49   H21   S    
S6    O32   D    
C35   N3    A    
C47   C51   A    
S1    O17   D    
C24   H6    S    
C22   S2    S    
S4    O26   D    
C9    S3    S    
C25   C27   A    
O28   H34   S    
C29   C35   A    
C33   O11   A    
C30   C36   A    
C60   C64   A    
C6    C62   A    
C55   C57   A    
C30   H26   S    
C26   N4    A    
C6    C12   A    
S5    O30   D    
C25   N3    A    
Cu2   O4    S    
C4    O4    A    
C3    O7    A    
C49   C53   A    
C2    O6    A    
C17   C19   A    
C56   C58   A    
C51   C55   A    
Cu4   O7    S    
C23   C25   A    
C37   C41   A    
Cu3   O13   S    
C1    O5    A    
C48   C52   A    
C20   H30   S    
C21   S1    S    
C31   O9    A    
O31   H35   S    
Cu1   O2    S    
C46   H18   S    
O19   H31   S    
C37   C57   A    
C52   C56   A    
C11   S5    S    
S2    O20   D    
S3    O24   D    
C47   H19   S    
