data_mof_unit_61921.cif
_audit_creation_date              2012-12-10T16:53:54-0500
_audit_creation_method            fapswitch 2.2
_symmetry_space_group_name_H-M    P1
_symmetry_Int_Tables_number       1
_space_group_crystal_system       triclinic
_cell_length_a                    7.85527
_cell_length_b                    8.617399
_cell_length_c                    10.621687
_cell_angle_alpha                 91.891864
_cell_angle_beta                  83.432057
_cell_angle_gamma                 94.209718
_cell_volume                      712.137284963

loop_
_atom_site_label
_atom_site_type_symbol
_atom_type_description
_atom_site_fract_x
_atom_site_fract_y
_atom_site_fract_z
_atom_type_partial_charge
C1    C     C_R   0.545355 0.794302 0.492701 0.930152
C2    C     C_3   0.504304 0.525259 0.121966 -0.020274
C3    C     C_3   0.401623 0.373807 0.077217 0.060469
C4    C     C_3   0.691844 0.525447 0.053464 -0.499868
C5    C     C_2   0.565990 0.958311 0.489083 -0.440895
C6    C     C_2   0.428955 0.041695 0.480251 0.248391
C7    C     C_R   0.500175 0.507663 0.741949 0.827743
C8    C     C_R   0.453866 0.205648 0.497045 0.829701
C9    C     C_R   0.503489 0.512749 0.258720 0.800063
C10   C     C_3   0.390614 0.650865 0.941779 -0.360544
C11   C     C_3   0.427371 0.681246 0.084289 0.415485
C12   C     C_3   0.425836 0.360365 0.932168 -0.539745
C13   C     C_3   0.690250 0.553287 0.910748 0.098031
C14   C     C_3   0.501440 0.518208 0.878903 -0.000056
H1    H     H_    0.254394 0.613359 0.935812 0.160331
H2    H     H_    0.744532 0.410847 0.065186 0.161635
H3    H     H_    0.515288 0.268487 0.901149 0.163270
H4    H     H_    0.459401 0.273184 0.114210 0.143125
H5    H     H_    0.692730 0.010842 0.503271 0.153559
H6    H     H_    0.011648 0.373866 0.410708 0.154805
H7    H     H_    0.415502 0.757470 0.885240 0.149832
H8    H     H_    0.301575 0.324434 0.894921 0.202325
H9    H     H_    0.779059 0.471514 0.859224 0.158845
H10   H     H_    0.778451 0.612958 0.096610 0.206860
N1    N     N_2   0.950330 0.457950 0.465890 -0.068846
N2    N     N_2   0.049670 0.542050 0.534110 0.104102
O1    O     O_R   0.389250 0.738570 0.508370 -0.561145
O2    O     O_R   0.678390 0.711620 0.486510 -0.575120
O3    O     O_R   0.355430 0.513500 0.696140 -0.633478
O4    O     O_R   0.644580 0.486550 0.674270 -0.590223
O5    O     O_R   0.321610 0.288380 0.513490 -0.640579
O6    O     O_R   0.610750 0.261430 0.491630 -0.639028
O7    O     O_R   0.355420 0.513450 0.325730 -0.600624
O8    O     O_R   0.644570 0.486500 0.303860 -0.633214
Zn1   Zn    Zn3+2 0.306940 0.517990 0.514600 0.985577
Zn2   Zn    Zn3+2 0.693060 0.482010 0.485400 0.992462
O9    O     O_3   0.271575 0.973292 0.451828 -0.760104
H11   H     H_    0.191231 0.054171 0.441892 0.333953
O10   O     O_3   0.974598 0.658380 0.599732 -0.630252
H12   H     H_    0.070059 0.718759 0.636176 0.353250
N3    N     N_2   0.557192 0.811910 0.094442 -0.276434
H13   H     H_    0.618411 0.810231 0.175338 0.197810
C15   C     C_3   0.515029 0.968751 0.072920 -0.805034
H14   H     H_    0.634370 0.046929 0.067388 0.230145
H15   H     H_    0.425712 0.009152 0.153611 0.246863
H16   H     H_    0.458398 0.977909 0.983035 0.239779
N4    N     N_2   0.275614 0.714302 0.172451 -0.277642
H17   H     H_    0.305771 0.763696 0.257644 0.285949
C16   C     C_3   0.133001 0.784689 0.130009 -0.853187
H18   H     H_    0.060165 0.845919 0.210315 0.263432
H19   H     H_    0.046718 0.690237 0.096580 0.240620
H20   H     H_    0.176271 0.868968 0.054495 0.250737
N5    N     N_2   0.219323 0.369441 0.125416 -0.253668
H21   H     H_    0.146523 0.441018 0.081515 0.248944
C17   C     C_3   0.133498 0.217122 0.148284 -0.846152
H22   H     H_    0.140045 0.145738 0.059131 0.239983
H23   H     H_    0.996365 0.229225 0.183718 0.237079
H24   H     H_    0.193062 0.158339 0.221811 0.250594
N6    N     N_2   0.745912 0.713016 0.872206 -0.246855
H25   H     H_    0.710143 0.744917 0.786793 0.250673
C18   C     C_3   0.914563 0.778453 0.891603 -0.792636
H26   H     H_    0.905050 0.843333 0.983259 0.259040
H27   H     H_    0.960380 0.865660 0.818349 0.234631
H28   H     H_    0.006263 0.686390 0.885101 0.235354

loop_
_geom_bond_atom_site_label_1
_geom_bond_atom_site_label_2
_ccdc_geom_bond_type
C12   H3    S    
C4    H2    S    
C1    O2    A    
C2    C4    S    
C15   H14   S    
O9    H11   S    
C7    O3    A    
C18   H28   S    
C3    N5    S    
N3    H13   S    
O3    Zn1   S    
C11   N4    S    
N4    H17   S    
O4    Zn2   S    
C17   H22   S    
C16   H20   S    
N5    C17   S    
C2    C3    S    
C6    O9    S    
N6    H25   S    
N4    C16   S    
C7    O4    A    
N5    H21   S    
N3    C15   S    
C9    O7    A    
C5    C6    D    
C15   H15   S    
C13   H9    S    
C9    O8    A    
C13   N6    S    
C2    C11   S    
O6    Zn2   S    
O5    Zn1   S    
O7    Zn1   S    
C12   C14   S    
C5    H5    S    
C11   N3    S    
O8    Zn2   S    
C10   H1    S    
C17   H23   S    
C10   H7    S    
C18   H26   S    
C4    H10   S    
C15   H16   S    
C1    C5    S    
N2    O10   S    
N6    C18   S    
C10   C11   S    
N1    Zn2   S    
C8    O6    A    
C12   H8    S    
N2    Zn1   S    
O10   H12   S    
O2    Zn2   S    
C3    H4    S    
C18   H27   S    
C16   H18   S    
C10   C14   S    
C17   H24   S    
C4    C13   S    
C1    O1    A    
C6    C8    S    
C3    C12   S    
O1    Zn1   S    
N1    N2    D    
C13   C14   S    
C2    C9    S    
C7    C14   S    
C8    O5    A    
C16   H19   S    
H6    N1    S    
