data_mof_unit_63865.cif
_audit_creation_date              2012-12-10T18:57:52-0500
_audit_creation_method            fapswitch 2.2
_symmetry_space_group_name_H-M    P1
_symmetry_Int_Tables_number       1
_space_group_crystal_system       monoclinic
_cell_length_a                    36.993407
_cell_length_b                    30.256985
_cell_length_c                    21.493484
_cell_angle_alpha                 90.0
_cell_angle_beta                  54.872897
_cell_angle_gamma                 90.0
_cell_volume                      19676.3766544

loop_
_atom_site_label
_atom_site_type_symbol
_atom_type_description
_atom_site_fract_x
_atom_site_fract_y
_atom_site_fract_z
_atom_type_partial_charge
C1    C     C_R   0.913646 0.499993 0.586743 0.891811
C2    C     C_R   0.202988 0.540314 0.286373 0.668710
C3    C     C_R   0.009130 0.842583 0.935860 -0.200639
C4    C     C_R   0.500000 0.365688 0.000000 -0.043309
C5    C     C_R   1.000000 0.865688 0.000000 -0.043339
C6    C     C_R   0.500000 0.273948 0.000000 0.215452
C7    C     C_R   0.000000 0.773948 0.000000 0.215433
C8    C     C_R   0.962307 0.296879 0.056851 -0.168701
C9    C     C_R   0.037693 0.296879 0.943149 -0.168701
C10   C     C_R   0.538051 0.796844 0.980402 -0.168361
C11   C     C_R   0.461949 0.796844 0.019598 -0.168361
C12   C     C_R   0.962200 0.342688 0.056622 -0.179179
C13   C     C_R   0.297011 0.040308 0.713647 0.668721
C14   C     C_R   0.037800 0.342688 0.943378 -0.179179
C15   C     C_R   0.538156 0.842654 0.979943 -0.177961
C16   C     C_R   0.461844 0.842654 0.020057 -0.177961
C17   C     C_R   0.000000 0.365729 0.000000 -0.036635
C18   C     C_R   0.500000 0.865706 0.000000 -0.040221
C19   C     C_3   0.968036 0.535866 0.245967 -0.467675
C20   C     C_3   0.031964 0.535866 0.754033 -0.467676
C21   C     C_3   0.468234 0.036027 0.245753 -0.468178
C22   C     C_3   0.531766 0.036027 0.754247 -0.468179
C23   C     C_R   0.000000 0.273966 0.000000 0.105249
C24   C     C_R   0.702989 0.040308 0.286352 0.668721
C25   C     C_R   0.500000 0.773937 0.000000 0.102615
C26   C     C_R   0.487328 0.703089 0.958906 -0.164877
C27   C     C_R   0.512672 0.703089 0.041094 -0.164877
C28   C     C_R   0.011979 0.203106 0.934180 -0.164873
C29   C     C_R   0.988021 0.203106 0.065819 -0.164873
C30   C     C_R   0.487577 0.657277 0.958513 -0.176120
C31   C     C_R   0.512423 0.657277 0.041487 -0.176120
C32   C     C_R   0.011746 0.157296 0.934278 -0.176024
C33   C     C_R   0.988254 0.157296 0.065722 -0.176024
C34   C     C_R   0.500000 0.634210 0.000000 -0.032540
C35   C     C_R   0.842825 0.540007 0.667551 -0.281342
C36   C     C_R   0.000000 0.134223 0.000000 -0.033922
C37   C     C_R   0.500000 0.725996 0.000000 0.106866
C38   C     C_R   0.000000 0.226018 0.000000 0.107157
C39   C     C_3   0.046241 0.513226 0.242096 0.241946
C40   C     C_3   0.953758 0.513226 0.757904 0.241948
C41   C     C_3   0.546304 0.012974 0.242036 0.242324
C42   C     C_3   0.453696 0.012974 0.757964 0.242325
C43   C     C_3   0.987430 0.453131 0.297155 -0.383158
C44   C     C_3   0.012570 0.453131 0.702845 -0.383158
C45   C     C_3   0.487185 0.953188 0.297417 -0.384119
C46   C     C_R   0.157174 0.540007 0.332448 -0.281342
C47   C     C_3   0.512815 0.953188 0.702583 -0.384118
C48   C     C_3   0.999398 0.499759 0.311186 0.005804
C49   C     C_3   0.000602 0.499759 0.688814 0.005803
C50   C     C_3   0.499390 0.999757 0.311196 0.005958
C51   C     C_3   0.500610 0.999757 0.688804 0.005957
C52   C     C_3   0.000563 0.500144 0.189194 0.033930
C53   C     C_3   0.999437 0.500144 0.810805 0.033931
C54   C     C_3   0.500559 0.000120 0.189200 0.033716
C55   C     C_3   0.499441 0.000120 0.810800 0.033715
C56   C     C_3   0.047812 0.510654 0.168592 0.231904
C57   C     C_R   0.342824 0.040003 0.667573 -0.281383
C58   C     C_3   0.952188 0.510654 0.831408 0.231903
C59   C     C_3   0.547865 0.010367 0.168543 0.232128
C60   C     C_3   0.452135 0.010367 0.831457 0.232130
C61   C     C_R   0.657175 0.040003 0.332427 -0.281384
C62   C     C_R   0.865627 0.500131 0.635935 -0.131877
C63   C     C_R   0.134373 0.500131 0.364065 -0.131877
C64   C     C_R   0.365627 0.000130 0.635930 -0.131984
C65   C     C_R   0.086354 0.499993 0.413257 0.891809
C66   C     C_R   0.634373 0.000130 0.364070 -0.131984
C67   C     C_R   0.842222 0.460477 0.651566 -0.165105
C68   C     C_R   0.157778 0.460477 0.348434 -0.165106
C69   C     C_R   0.342223 0.960478 0.651529 -0.165230
C70   C     C_R   0.657777 0.960478 0.348471 -0.165231
C71   C     C_R   0.796419 0.460842 0.697378 -0.247066
C72   C     C_R   0.203581 0.460842 0.302622 -0.247065
C73   C     C_R   0.296419 0.960842 0.697339 -0.247120
C74   C     C_R   0.703580 0.960842 0.302661 -0.247119
C75   C     C_R   0.773965 0.500755 0.727791 -0.065430
C76   C     C_R   0.413646 0.999993 0.586741 0.891688
C77   C     C_R   0.226035 0.500755 0.272209 -0.065431
C78   C     C_R   0.273966 0.000751 0.727783 -0.065556
C79   C     C_R   0.726034 0.000751 0.272217 -0.065556
C80   C     C_R   0.702865 0.495613 0.739807 0.476907
C81   C     C_R   0.297135 0.495613 0.260193 0.476907
C82   C     C_R   0.202865 0.995701 0.739786 0.477054
C83   C     C_R   0.797135 0.995702 0.260214 0.477054
C84   C     C_R   0.657008 0.494959 0.786879 -0.176242
C85   C     C_R   0.342991 0.494959 0.213121 -0.176242
C86   C     C_R   0.157009 0.995052 0.786858 -0.178136
C87   C     C_R   0.586354 0.999993 0.413259 0.891686
C88   C     C_R   0.842991 0.995052 0.213142 -0.178135
C89   C     C_R   0.634339 0.500069 0.865784 -0.136235
C90   C     C_R   0.365661 0.500069 0.134216 -0.136235
C91   C     C_R   0.134340 0.000069 0.865780 -0.136644
C92   C     C_R   0.865660 0.000069 0.134220 -0.136645
C93   C     C_R   0.998510 0.499904 0.380143 0.883566
C94   C     C_R   0.001490 0.499904 0.619857 0.883565
C95   C     C_R   0.498498 0.999905 0.380155 0.883507
C96   C     C_R   0.501502 0.999905 0.619845 0.883508
C97   C     C_R   0.657820 0.505683 0.898083 -0.198621
C98   C     C_3   0.985753 0.453842 0.227249 0.282903
C99   C     C_R   0.342180 0.505683 0.101917 -0.198620
C100  C     C_R   0.157824 0.005589 0.898094 -0.196612
C101  C     C_R   0.842176 0.005589 0.101906 -0.196613
C102  C     C_R   0.703574 0.506219 0.851891 -0.136446
C103  C     C_R   0.296426 0.506219 0.148109 -0.136446
C104  C     C_R   0.203578 0.006123 0.851901 -0.136681
C105  C     C_R   0.796422 0.006123 0.148099 -0.136681
C106  C     C_R   0.726172 0.501066 0.773255 0.037789
C107  C     C_R   0.273827 0.501066 0.226745 0.037789
C108  C     C_R   0.226174 0.001061 0.773249 0.037713
C109  C     C_3   0.014247 0.453842 0.772751 0.282904
C110  C     C_R   0.773826 0.001062 0.226751 0.037713
C111  C     C_R   1.000000 0.586253 0.000000 0.910901
C112  C     C_R   0.500000 0.086253 0.000000 0.911159
C113  C     C_R   0.000212 0.500614 0.121245 0.882774
C114  C     C_R   0.999787 0.500614 0.878755 0.882774
C115  C     C_R   0.500212 0.000587 0.121246 0.882724
C116  C     C_R   0.499788 0.000587 0.878754 0.882724
C117  C     C_R   0.000000 0.413669 0.000000 0.872549
C118  C     C_R   0.500000 0.913661 0.000000 0.872633
C119  C     C_R   0.500000 0.413718 0.000000 0.879390
C120  C     C_3   0.485483 0.953906 0.227538 0.283600
C121  C     C_R   0.000000 0.913718 0.000000 0.879441
C122  C     C_R   0.586261 0.499941 0.913881 0.903141
C123  C     C_R   0.413739 0.499941 0.086119 0.903140
C124  C     C_R   0.086262 0.999942 0.913880 0.903262
C125  C     C_R   0.913738 0.999942 0.086120 0.903261
C126  C     C_R   0.500000 0.586228 0.000000 0.869876
C127  C     C_R   0.000000 0.086233 0.000000 0.870183
C128  C     C_R   0.038893 0.703161 0.947089 0.588821
C129  C     C_R   0.961107 0.703161 0.052911 0.588822
C130  C     C_R   0.538893 0.203161 0.947087 0.588856
C131  C     C_3   0.514517 0.953906 0.772462 0.283600
C132  C     C_R   0.461107 0.203161 0.052912 0.588856
C133  C     C_3   0.965214 0.533536 0.319938 -0.495377
C134  C     C_3   0.034785 0.533536 0.680062 -0.495377
C135  C     C_3   0.465382 0.033709 0.319753 -0.495079
C136  C     C_3   0.534618 0.033709 0.680247 -0.495077
C137  C     C_R   0.038903 0.657341 0.947359 -0.274560
C138  C     C_R   0.961097 0.657341 0.052641 -0.274560
C139  C     C_R   0.538903 0.157341 0.947358 -0.274516
C140  C     C_R   0.461097 0.157341 0.052642 -0.274516
C141  C     C_R   0.000000 0.634266 0.000000 -0.217206
C142  C     C_R   0.797012 0.540314 0.713627 0.668710
C143  C     C_R   0.500000 0.134266 0.000000 -0.217269
C144  C     C_R   1.000000 0.726072 0.000000 -0.208863
C145  C     C_R   0.500000 0.226072 0.000000 -0.208829
C146  C     C_R   0.490703 0.296769 0.064199 -0.079366
C147  C     C_R   0.509297 0.296769 0.935801 -0.079366
C148  C     C_R   0.990702 0.796769 0.064200 -0.079406
C149  C     C_R   0.009298 0.796769 0.935800 -0.079406
C150  C     C_R   0.490871 0.342583 0.064139 -0.200614
C151  C     C_R   0.509129 0.342583 0.935860 -0.200613
C152  C     C_R   0.990870 0.842583 0.064140 -0.200640
F1    F     F_    0.775124 0.579087 0.743203 -0.658942
F2    F     F_    0.224876 0.579087 0.256796 -0.658942
F3    F     F_    0.275121 0.079077 0.743256 -0.658691
F4    F     F_    0.724879 0.079077 0.256744 -0.658691
F5    F     F_    0.076846 0.725173 0.896181 -0.652988
F6    F     F_    0.923154 0.725173 0.103819 -0.652989
F7    F     F_    0.576846 0.225173 0.896178 -0.653010
F8    F     F_    0.423154 0.225173 0.103822 -0.653010
H1    H     H_    0.971380 0.567089 0.333212 0.201955
H2    H     H_    0.139651 0.570896 0.343467 0.188642
H3    H     H_    0.744823 0.996577 0.365557 0.343868
H4    H     H_    0.938550 0.411796 0.258161 0.327775
H5    H     H_    0.061449 0.411796 0.741839 0.327775
H6    H     H_    0.437991 0.912158 0.258920 0.330995
H7    H     H_    0.562009 0.912158 0.741080 0.330995
H8    H     H_    0.360347 0.070890 0.656578 0.188694
H9    H     H_    0.639653 0.070890 0.343422 0.188695
H10   H     H_    0.859217 0.429361 0.627803 0.176718
H11   H     H_    0.140783 0.429361 0.372198 0.176718
H12   H     H_    0.359219 0.929365 0.627742 0.176788
H13   H     H_    0.640781 0.929366 0.372258 0.176788
H14   H     H_    0.778414 0.430237 0.708630 0.179946
H15   H     H_    0.221585 0.430237 0.291370 0.179946
H16   H     H_    0.278416 0.930240 0.708566 0.179970
H17   H     H_    0.028620 0.567089 0.666788 0.201956
H18   H     H_    0.721584 0.930240 0.291434 0.179970
H19   H     H_    0.639159 0.490638 0.761275 0.187041
H20   H     H_    0.360841 0.490638 0.238725 0.187042
H21   H     H_    0.139159 0.990804 0.761240 0.186791
H22   H     H_    0.860841 0.990805 0.238760 0.186791
H23   H     H_    0.640904 0.509794 0.958867 0.174323
H24   H     H_    0.359096 0.509794 0.041133 0.174323
H25   H     H_    0.140910 0.009626 0.958890 0.175148
H26   H     H_    0.859090 0.009625 0.041110 0.175148
H27   H     H_    0.931279 0.523532 0.367821 0.214296
H28   H     H_    0.471711 0.067231 0.332864 0.201983
H29   H     H_    0.068721 0.523532 0.632179 0.214296
H30   H     H_    0.431393 0.023875 0.367669 0.214458
H31   H     H_    0.568607 0.023875 0.632330 0.214458
H32   H     H_    0.721499 0.510382 0.877409 0.164818
H33   H     H_    0.278501 0.510382 0.122591 0.164818
H34   H     H_    0.221505 0.010215 0.877429 0.164906
H35   H     H_    0.778495 0.010215 0.122570 0.164906
H36   H     H_    0.069204 0.639997 0.906197 0.201233
H37   H     H_    0.930796 0.639997 0.093803 0.201233
H38   H     H_    0.569204 0.139997 0.906195 0.201227
H39   H     H_    0.528289 0.067231 0.667136 0.201982
H40   H     H_    0.430796 0.139997 0.093805 0.201227
H41   H     H_    0.483642 0.279075 0.113882 0.151910
H42   H     H_    0.516358 0.279075 0.886118 0.151910
H43   H     H_    0.983640 0.779075 0.113883 0.151919
H44   H     H_    0.016359 0.779075 0.886117 0.151919
H45   H     H_    0.483600 0.359840 0.114287 0.165720
H46   H     H_    0.516400 0.359840 0.885713 0.165720
H47   H     H_    0.983599 0.859840 0.114287 0.165722
H48   H     H_    0.016401 0.859840 0.885713 0.165722
H49   H     H_    0.932948 0.279289 0.100761 0.143415
H50   H     H_    0.008959 0.428369 0.185630 0.127958
H51   H     H_    0.067052 0.279289 0.899239 0.143415
H52   H     H_    0.567677 0.779245 0.964786 0.144383
H53   H     H_    0.432323 0.779245 0.035214 0.144383
H54   H     H_    0.932803 0.360029 0.100957 0.166255
H55   H     H_    0.067197 0.360029 0.899043 0.166255
H56   H     H_    0.567847 0.859985 0.964606 0.167330
H57   H     H_    0.432152 0.859985 0.035394 0.167330
H58   H     H_    0.477717 0.720689 0.926657 0.139572
H59   H     H_    0.522282 0.720689 0.073343 0.139572
H60   H     H_    0.021039 0.220698 0.883192 0.139030
H61   H     H_    0.991041 0.428369 0.814370 0.127958
H62   H     H_    0.978961 0.220698 0.116808 0.139030
H63   H     H_    0.477722 0.639964 0.926398 0.159932
H64   H     H_    0.522277 0.639964 0.073602 0.159932
H65   H     H_    0.021064 0.139995 0.882925 0.161211
H66   H     H_    0.978936 0.139995 0.117075 0.161211
H67   H     H_    0.934331 0.531221 0.259681 0.260161
H68   H     H_    0.065668 0.531221 0.740319 0.260161
H69   H     H_    0.434509 0.031580 0.259464 0.260151
H70   H     H_    0.565491 0.031580 0.740536 0.260152
H71   H     H_    0.979525 0.569282 0.220118 0.153918
H72   H     H_    0.508525 0.928292 0.186061 0.125973
H73   H     H_    0.020475 0.569282 0.779882 0.153918
H74   H     H_    0.479922 0.069377 0.219716 0.153915
H75   H     H_    0.520078 0.069377 0.780284 0.153916
H76   H     H_    0.052699 0.548298 0.249375 0.057518
H77   H     H_    0.947301 0.548298 0.750625 0.057518
H78   H     H_    0.552938 0.048017 0.249119 0.057334
H79   H     H_    0.447062 0.048017 0.750881 0.057333
H80   H     H_    0.058316 0.543576 0.139788 0.051270
H81   H     H_    0.941684 0.543575 0.860212 0.051271
H82   H     H_    0.558562 0.043222 0.139532 0.051995
H83   H     H_    0.491474 0.928292 0.813939 0.125973
H84   H     H_    0.441438 0.043222 0.860468 0.051995
H85   H     H_    0.012483 0.428409 0.287432 0.202547
H86   H     H_    0.987516 0.428409 0.712568 0.202547
H87   H     H_    0.512125 0.928345 0.287785 0.202388
H88   H     H_    0.487875 0.928345 0.712215 0.202387
H89   H     H_    0.955012 0.442266 0.348488 0.185090
H90   H     H_    0.044988 0.442266 0.651512 0.185090
H91   H     H_    0.454724 0.942483 0.348826 0.185138
H92   H     H_    0.545275 0.942482 0.651174 0.185138
H93   H     H_    0.088266 0.499589 0.266637 0.322977
H94   H     H_    0.860348 0.570896 0.656533 0.188642
H95   H     H_    0.911734 0.499589 0.733363 0.322978
H96   H     H_    0.588259 0.999148 0.266657 0.322959
H97   H     H_    0.411741 0.999149 0.733343 0.322959
H98   H     H_    0.108058 0.491900 0.091379 0.361631
H99   H     H_    0.891942 0.491900 0.908621 0.361632
H100  H     H_    0.607999 0.991255 0.091447 0.361323
H101  H     H_    0.392001 0.991255 0.908553 0.361324
H102  H     H_    0.755172 0.496445 0.634460 0.343832
H103  H     H_    0.244828 0.496446 0.365540 0.343832
H104  H     H_    0.255177 0.996577 0.634443 0.343868
O1    O     O_R   0.934520 0.536930 0.565470 -0.625735
O2    O     O_R   0.434550 0.499990 0.013170 -0.622499
O3    O     O_R   0.065450 0.999990 0.986830 -0.620418
O4    O     O_R   0.934550 0.999990 0.013170 -0.620417
O5    O     O_R   0.500010 0.565460 0.947720 -0.622619
O6    O     O_R   0.499990 0.565460 0.052280 -0.622620
O7    O     O_R   0.000010 0.065460 0.947720 -0.622861
O8    O     O_R   0.999990 0.065460 0.052280 -0.622862
O9    O     O_R   0.934480 0.463010 0.565510 -0.620174
O10   O     O_R   0.065520 0.463010 0.434490 -0.620173
O11   O     O_R   0.434480 0.963010 0.565510 -0.620228
O12   O     O_R   0.065480 0.536930 0.434530 -0.625734
O13   O     O_R   0.565520 0.963010 0.434490 -0.620228
O14   O     O_R   0.999990 0.536930 0.407410 -0.639121
O15   O     O_R   0.000010 0.536930 0.592590 -0.639121
O16   O     O_R   0.499990 0.036930 0.407410 -0.639105
O17   O     O_R   0.500010 0.036930 0.592590 -0.639106
O18   O     O_R   0.999940 0.463010 0.407450 -0.613464
O19   O     O_R   0.000060 0.463010 0.592550 -0.613464
O20   O     O_R   0.499940 0.963010 0.407450 -0.613281
O21   O     O_R   0.500060 0.963010 0.592550 -0.613281
O22   O     O_R   0.963000 0.565420 0.036990 -0.632593
O23   O     O_R   0.434520 0.036930 0.565470 -0.625664
O24   O     O_R   0.037000 0.565420 0.963010 -0.632594
O25   O     O_R   0.463000 0.065420 0.036990 -0.632510
O26   O     O_R   0.537000 0.065420 0.963010 -0.632512
O27   O     O_R   0.963020 0.499940 0.129580 -0.586770
O28   O     O_R   0.036980 0.499940 0.870420 -0.586770
O29   O     O_R   0.463020 0.999940 0.129580 -0.584531
O30   O     O_R   0.536980 0.999940 0.870420 -0.584531
O31   O     O_R   0.036940 0.500000 0.055660 -0.601619
O32   O     O_R   0.963060 0.500000 0.944340 -0.601619
O33   O     O_R   0.536940 0.000000 0.055660 -0.603891
O34   O     O_R   0.565480 0.036930 0.434530 -0.625663
O35   O     O_R   0.463060 0.000000 0.944340 -0.603890
O36   O     O_R   0.963020 0.434470 0.036970 -0.612639
O37   O     O_R   0.036980 0.434470 0.963030 -0.612640
O38   O     O_R   0.463020 0.934470 0.036970 -0.612989
O39   O     O_R   0.536980 0.934470 0.963030 -0.612990
O40   O     O_R   0.499930 0.434510 0.947790 -0.623688
O41   O     O_R   0.500070 0.434510 0.052210 -0.623689
O42   O     O_R   0.999930 0.934510 0.947790 -0.623684
O43   O     O_R   0.000070 0.934510 0.052210 -0.623684
O44   O     O_3   0.078763 0.485662 0.236419 -0.719563
O45   O     O_R   0.565440 0.499980 0.882290 -0.624009
O46   O     O_3   0.921237 0.485662 0.763581 -0.719564
O47   O     O_3   0.578683 0.985255 0.236521 -0.720062
O48   O     O_3   0.421317 0.985255 0.763479 -0.720063
O49   O     O_3   0.078255 0.478222 0.118943 -0.703649
O50   O     O_3   0.921745 0.478222 0.881057 -0.703650
O51   O     O_3   0.578117 0.977751 0.119100 -0.707006
O52   O     O_3   0.421883 0.977751 0.880900 -0.707007
O53   O     O_3   0.723036 0.491218 0.662446 -0.759088
O54   O     O_3   0.276964 0.491218 0.337554 -0.759088
O55   O     O_3   0.223036 0.991393 0.662412 -0.759266
O56   O     O_R   0.434560 0.499980 0.117710 -0.624008
O57   O     O_3   0.776964 0.991394 0.337588 -0.759266
O58   O     O_3   0.942671 0.444178 0.249312 -0.750775
O59   O     O_3   0.057329 0.444178 0.750688 -0.750776
O60   O     O_3   0.442335 0.944500 0.249714 -0.747230
O61   O     O_3   0.557665 0.944500 0.750286 -0.747229
O62   O     O_R   0.065440 0.999980 0.882290 -0.626143
O63   O     O_R   0.934560 0.999980 0.117710 -0.626142
O64   O     O_R   0.565450 0.499990 0.986830 -0.622500
Zn1   Zn    Zn3+2 0.000000 0.549330 0.500000 0.957037
Zn2   Zn    Zn3+2 0.500030 0.499980 0.069780 0.973366
Zn3   Zn    Zn3+2 0.999970 0.999980 0.930220 0.973182
Zn4   Zn    Zn3+2 0.000030 0.999980 0.069780 0.973182
Zn5   Zn    Zn3+2 0.500000 0.049330 0.500000 0.957121
Zn6   Zn    Zn3+2 0.000000 0.450610 0.500000 0.973257
Zn7   Zn    Zn3+2 0.500000 0.950610 0.500000 0.973305
Zn8   Zn    Zn3+2 0.950610 0.499940 0.049380 1.007399
Zn9   Zn    Zn3+2 0.049390 0.499940 0.950620 1.007398
Zn10  Zn    Zn3+2 0.450610 0.999940 0.049380 1.007003
Zn11  Zn    Zn3+2 0.549390 0.999940 0.950620 1.007002
Zn12  Zn    Zn3+2 0.499970 0.499980 0.930220 0.973366

loop_
_geom_bond_atom_site_label_1
_geom_bond_atom_site_label_2
_ccdc_geom_bond_type
C99   C103  A    
C105  C110  A    
C63   C65   S    
C24   C61   A    
C26   H58   S    
C152  H47   S    
C12   H54   S    
O19   Zn6   S    
C52   C113  S    
C53   C114  S    
C27   H59   S    
C109  O59   S    
C146  H41   S    
C40   O46   S    
C6    C146  A    
O33   Zn11  S    
C29   C33   A    
C100  C104  A    
C8    C23   A    
C118  O38   A    
C78   C108  S    
O20   Zn7   S    
C93   O18   A    
C122  O64   A    
C146  C150  A    
C70   C74   A    
C35   H94   S    
O32   Zn8   S    
C76   O23   A    
C91   C100  A    
O25   Zn10  S    
C18   C118  S    
C79   C110  S    
O22   Zn8   S    
C83   C88   A    
C28   H60   S    
C65   O12   A    
O15   Zn1   S    
C56   H80   S    
C97   H23   S    
C41   H78   S    
C29   H62   S    
C3    C149  A    
C40   C58   S    
C27   C31   A    
C28   C32   A    
O31   Zn9   S    
H95   O46   S    
C30   C34   A    
C20   C53   S    
O40   Zn12  S    
C47   C131  S    
C130  F7    S    
C69   H12   S    
C88   H22   S    
C39   C56   S    
C22   H70   S    
C68   C72   A    
C96   O21   A    
O11   Zn7   S    
C128  C144  A    
C45   C120  S    
C10   H52   S    
C74   C79   A    
C132  C140  A    
C135  H30   S    
C109  H61   S    
C134  H29   S    
C53   C109  S    
C41   O47   S    
C126  O6    A    
C138  C141  A    
C85   C90   A    
C113  O27   A    
C4    C150  A    
C114  O28   A    
C115  O33   A    
C50   C135  S    
C140  H40   S    
O42   Zn3   S    
C120  O60   S    
C45   C50   S    
H100  O51   S    
C52   C98   S    
C134  H17   S    
H99   O50   S    
C103  C107  A    
O14   Zn1   S    
C20   C134  S    
C21   C135  S    
C24   F4    S    
C15   C18   A    
O7    Zn3   S    
C53   C58   S    
O30   Zn11  S    
C90   C123  S    
C140  C143  A    
C1    C62   S    
C120  H72   S    
C60   O52   S    
C129  C144  A    
C66   C70   A    
O24   Zn9   S    
C72   C77   A    
O17   Zn5   S    
C132  C145  A    
H5    O59   S    
C68   H11   S    
C13   C57   A    
C89   C122  S    
C11   C25   A    
C40   C49   S    
C80   C106  A    
C72   H15   S    
C19   H67   S    
C139  C143  A    
C29   C38   A    
C86   H21   S    
C111  O24   A    
O39   Zn11  S    
C119  O40   A    
C80   O53   S    
C121  O43   A    
C127  O7    A    
C112  O25   A    
C14   C17   A    
O1    Zn1   S    
C129  F6    S    
C128  F5    S    
O23   Zn5   S    
C54   C59   S    
C31   C34   A    
H3    O57   S    
O3    Zn4   S    
C9    C23   A    
C122  O45   A    
C76   O11   A    
C147  C151  A    
H103  O54   S    
C51   C136  S    
C43   H89   S    
C24   C79   A    
C8    C12   A    
O13   Zn7   S    
C47   H92   S    
C83   C110  A    
C64   C69   A    
C10   C25   A    
C26   C30   A    
O26   Zn11  S    
C90   C99   A    
C63   C68   A    
C95   O16   A    
C119  O41   A    
C148  C152  A    
C30   H63   S    
C17   C117  S    
C96   O17   A    
C20   H68   S    
C71   H14   S    
C21   C54   S    
C91   C124  S    
C100  H25   S    
H7    O61   S    
C45   H91   S    
C6    C147  A    
C123  O2    A    
C43   H85   S    
C85   H20   S    
O2    Zn12  S    
C111  O22   A    
H6    O60   S    
C118  O39   A    
C111  C141  S    
C35   C142  A    
C22   H75   S    
C138  H37   S    
C20   H73   S    
O4    Zn3   S    
O35   Zn10  S    
C104  H34   S    
C81   C85   A    
C101  H26   S    
C94   O19   A    
C113  O31   A    
C81   C107  A    
C114  O32   A    
C115  O29   A    
C80   C84   A    
C139  H38   S    
C21   H74   S    
O5    Zn12  S    
C116  O30   A    
C59   H82   S    
O6    Zn2   S    
H102  O53   S    
H97   O48   S    
C86   C91   A    
C39   H76   S    
C81   O54   S    
O27   Zn8   S    
C125  O63   A    
O38   Zn10  S    
C19   C52   S    
C116  O35   A    
C12   C17   A    
C102  H32   S    
C4    C119  S    
C69   C73   A    
C58   O50   S    
C97   C102  A    
C44   H86   S    
C44   C109  S    
C137  H36   S    
C55   C60   S    
C92   C125  S    
C130  C145  A    
C130  C139  A    
C47   H88   S    
C131  O61   S    
C67   H10   S    
C60   H84   S    
C48   C93   S    
C136  H31   S    
C33   H66   S    
C57   H8    S    
C6    C145  S    
C47   C51   S    
C82   C86   A    
C22   C136  S    
C84   H19   S    
C9    C14   A    
C11   C16   A    
O36   Zn8   S    
C34   C126  S    
C21   H69   S    
C54   C115  S    
C132  F8    S    
C149  H44   S    
C93   O14   A    
C92   C101  A    
C11   H53   S    
C44   H90   S    
C55   C131  S    
C32   C36   A    
C41   C50   S    
C104  C108  A    
C56   O49   S    
C137  C141  A    
H101  O52   S    
C123  O56   A    
C87   O34   A    
O37   Zn9   S    
C15   H56   S    
C3    C5    A    
C42   H79   S    
C26   C37   A    
C22   C55   S    
C82   O55   S    
C19   C133  S    
C23   C38   S    
C46   C63   A    
C124  O3    A    
C73   H16   S    
C2    C77   A    
C112  C143  S    
O9    Zn6   S    
C39   O44   S    
C67   C71   A    
O16   Zn5   S    
C75   C106  S    
C95   O20   A    
C55   C116  S    
C117  O37   A    
O12   Zn1   S    
C103  H33   S    
C39   C48   S    
C44   C49   S    
C49   C134  S    
C121  O42   A    
C54   C120  S    
C112  O26   A    
C126  O5    A    
C43   C98   S    
C45   H87   S    
H98   O49   S    
C2    C46   A    
C98   H50   S    
C117  O36   A    
O18   Zn6   S    
C5    C152  A    
C62   C67   A    
O45   Zn12  S    
C3    H48   S    
C9    H51   S    
C10   C15   A    
O63   Zn4   S    
C50   C95   S    
C5    C121  S    
C87   O13   A    
C13   F3    S    
C136  H39   S    
C25   C37   S    
C94   O15   A    
C7    C149  A    
C61   C66   A    
C129  C138  A    
C88   C92   A    
C74   H18   S    
C83   O57   S    
C73   C78   A    
C49   C94   S    
C43   C48   S    
C1    O9    A    
O10   Zn6   S    
C51   C96   S    
C142  F1    S    
C7    C144  S    
C101  C105  A    
H4    O58   S    
C33   C36   A    
C48   C133  S    
C77   C107  S    
O43   Zn4   S    
C41   C59   S    
O64   Zn2   S    
C42   C60   S    
C66   C87   S    
C133  H27   S    
H104  O55   S    
C13   C78   A    
C31   H64   S    
C89   C97   A    
C58   H81   S    
C128  C137  A    
C59   O51   S    
C40   H77   S    
C75   C142  A    
O21   Zn7   S    
C28   C38   A    
O28   Zn9   S    
H93   O44   S    
C64   C76   S    
C1    O1    A    
C16   H57   S    
C99   H24   S    
C16   C18   A    
C82   C108  A    
C127  O8    A    
C125  O4    A    
O29   Zn10  S    
C36   C127  S    
C84   C89   A    
C8    H49   S    
C135  H28   S    
C57   C64   A    
C7    C148  A    
C105  H35   S    
C4    C151  A    
C42   O48   S    
C65   O10   A    
O8    Zn4   S    
C147  H42   S    
C150  H45   S    
C133  H1    S    
C42   C51   S    
C131  H83   S    
C71   C75   A    
H96   O47   S    
C27   C37   A    
C14   H55   S    
C102  C106  A    
C35   C62   A    
C151  H46   S    
C70   H13   S    
C124  O62   A    
C61   H9    S    
C32   H65   S    
C98   O58   S    
O34   Zn5   S    
C2    F2    S    
C46   H2    S    
O62   Zn3   S    
O56   Zn2   S    
O41   Zn2   S    
C19   H71   S    
C52   C56   S    
C148  H43   S    
