data_mof_unit_13467.cif
_audit_creation_date              2012-12-10T17:55:26-0500
_audit_creation_method            fapswitch 2.2
_symmetry_space_group_name_H-M    P1
_symmetry_Int_Tables_number       1
_space_group_crystal_system       triclinic
_cell_length_a                    10.841081
_cell_length_b                    9.509585
_cell_length_c                    10.919292
_cell_angle_alpha                 89.94169
_cell_angle_beta                  90.248507
_cell_angle_gamma                 89.372412
_cell_volume                      1125.636712

loop_
_atom_site_label
_atom_site_type_symbol
_atom_type_description
_atom_site_fract_x
_atom_site_fract_y
_atom_site_fract_z
_atom_type_partial_charge
C1    C     C_R   0.261879 0.501221 0.498628 0.810559
C2    C     C_R   0.737624 0.499328 0.496059 0.823303
C3    C     C_R   0.504260 0.499775 0.264959 0.901369
C4    C     C_R   0.501277 0.499662 0.734863 0.915663
C5    C     C_2   0.551689 0.394263 0.932154 0.420504
C6    C     C_2   0.526320 0.382722 0.065047 0.425531
C7    C     C_2   0.496777 0.497755 0.867170 -0.481793
C8    C     C_2   0.521444 0.500765 0.133051 -0.504035
C9    C     C_R   0.064680 0.387250 0.539147 -0.255558
C10   C     C_R   0.937368 0.385606 0.537902 -0.248059
C11   C     C_R   0.871100 0.498842 0.488116 -0.082978
C12   C     C_R   0.127551 0.504522 0.495113 -0.086920
C13   C     C_R   0.932523 0.613501 0.434905 0.202745
C14   C     C_R   0.061475 0.620907 0.445531 0.194499
C15   C     C_R   0.430988 0.075395 0.416822 -0.006676
C16   C     C_R   0.569754 0.073497 0.582625 -0.021630
C17   C     C_R   0.431727 0.926522 0.416254 -0.024311
C18   C     C_R   0.569541 0.924612 0.582797 -0.016936
Cu1   Cu    Cu3+1 0.500000 0.640660 0.500000 0.953587
Cu2   Cu    Cu3+1 0.500000 0.359340 0.500000 0.972690
H1    H     H_    0.442745 0.580165 0.910880 0.105579
H2    H     H_    0.535447 0.603047 0.091315 0.118177
H3    H     H_    0.114084 0.297958 0.577918 0.169043
H4    H     H_    0.890585 0.296443 0.577595 0.167042
H5    H     H_    0.375072 0.132299 0.350726 0.132703
H6    H     H_    0.625868 0.128849 0.648575 0.156808
H7    H     H_    0.376990 0.871144 0.349182 0.136210
H8    H     H_    0.625366 0.867724 0.649011 0.123380
N1    N     N_R   0.500000 0.852070 0.500000 -0.155520
N2    N     N_R   0.500000 0.147940 0.500000 -0.162641
O1    O     O_R   0.319640 0.618740 0.499990 -0.555862
O2    O     O_R   0.680360 0.618740 0.500010 -0.554975
O3    O     O_R   0.319620 0.381170 0.499990 -0.605512
O4    O     O_R   0.680380 0.381170 0.500010 -0.594518
O5    O     O_R   0.500000 0.618750 0.321940 -0.592520
O6    O     O_R   0.500000 0.618750 0.678060 -0.605592
O7    O     O_R   0.499970 0.381180 0.321940 -0.524578
O8    O     O_R   0.500030 0.381180 0.678060 -0.539174
O9    O     O_3   0.620040 0.290703 0.872362 -0.568712
C19   C     C_3   0.738055 0.278429 0.926421 -0.328036
H9    H     H_    0.733633 0.223810 0.016229 0.204036
H10   H     H_    0.782989 0.382644 0.936521 0.145323
H11   H     H_    0.797290 0.213503 0.865588 0.169643
O10   O     O_3   0.519566 0.251223 0.120369 -0.548680
C20   C     C_3   0.426843 0.171033 0.063444 -0.298117
H12   H     H_    0.456559 0.133517 0.971804 0.198584
H13   H     H_    0.338006 0.230586 0.056478 0.136437
H14   H     H_    0.410049 0.076527 0.120345 0.161842
N3    N     N_2   0.864155 0.718512 0.369023 -0.411880
H15   H     H_    0.896358 0.819675 0.374840 0.255685
C21   C     C_3   0.831565 0.679031 0.245208 -0.683968
H16   H     H_    0.915968 0.668512 0.188424 0.203235
H17   H     H_    0.770497 0.761225 0.204421 0.232165
H18   H     H_    0.781202 0.577930 0.244509 0.223699
N4    N     N_2   0.124322 0.742754 0.403963 -0.425766
H19   H     H_    0.097930 0.776539 0.317914 0.240954
C22   C     C_3   0.128307 0.855767 0.492938 -0.680320
H20   H     H_    0.033964 0.888998 0.520476 0.203159
H21   H     H_    0.174988 0.948085 0.452763 0.209373
H22   H     H_    0.180020 0.821828 0.576032 0.251738

loop_
_geom_bond_atom_site_label_1
_geom_bond_atom_site_label_2
_ccdc_geom_bond_type
Cu2   O8    S    
C8    H2    S    
N4    H19   S    
C4    O6    A    
N4    C22   S    
C17   N1    A    
C9    C10   A    
Cu1   Cu2   S    
C3    O5    A    
C21   H18   S    
Cu1   O1    S    
C19   H11   S    
C2    O4    A    
C5    O9    S    
C14   N4    S    
C1    O3    A    
C6    O10   S    
C18   N1    A    
Cu1   O5    S    
C13   C14   A    
C15   C17   A    
Cu2   O7    S    
C11   C13   A    
C22   H20   S    
C1    C12   S    
C4    C7    S    
C6    C8    D    
C2    C11   S    
C19   H10   S    
C19   H9    S    
C12   C14   A    
C3    C8    S    
Cu1   O6    S    
C20   H13   S    
C16   H6    S    
C5    C6    S    
C9    C12   A    
C13   N3    S    
C22   H21   S    
C15   H5    S    
C10   C11   A    
Cu2   O3    S    
C21   H17   S    
C16   N2    A    
Cu2   O4    S    
Cu1   N1    S    
C20   H12   S    
C1    O1    A    
C18   H8    S    
O10   C20   S    
C3    O7    A    
C15   N2    A    
C2    O2    A    
N3    H15   S    
C20   H14   S    
O9    C19   S    
C5    C7    D    
C9    H3    S    
C22   H22   S    
Cu2   N2    S    
C10   H4    S    
C7    H1    S    
Cu1   O2    S    
C16   C18   A    
C21   H16   S    
C4    O8    A    
N3    C21   S    
C17   H7    S    
