data_mof_unit_23535.cif
_audit_creation_date              2012-12-10T18:45:08-0500
_audit_creation_method            fapswitch 2.2
_symmetry_space_group_name_H-M    P1
_symmetry_Int_Tables_number       1
_space_group_crystal_system       triclinic
_cell_length_a                    10.765524
_cell_length_b                    9.863781
_cell_length_c                    10.637695
_cell_angle_alpha                 89.672458
_cell_angle_beta                  90.099935
_cell_angle_gamma                 89.301608
_cell_volume                      1129.49952836

loop_
_atom_site_label
_atom_site_type_symbol
_atom_type_description
_atom_site_fract_x
_atom_site_fract_y
_atom_site_fract_z
_atom_type_partial_charge
C1    C     C_R   0.260190 0.500603 0.500961 0.936139
C2    C     C_R   0.739846 0.499058 0.500617 0.871304
C3    C     C_R   0.933931 0.602874 0.436847 0.033100
C4    C     C_R   0.062612 0.603841 0.437209 0.016678
C5    C     C_R   0.564857 0.070791 0.588775 -0.143690
C6    C     C_R   0.437019 0.073844 0.410021 -0.131330
C7    C     C_R   0.565680 0.926684 0.588716 0.156890
C8    C     C_R   0.436974 0.929909 0.409408 0.155682
C9    C     C_R   0.501165 0.500161 0.260677 0.874830
C10   C     C_R   0.500056 0.499908 0.739316 0.916962
C11   C     C_R   0.733333 0.516088 0.130297 -0.150338
C12   C     C_R   0.731333 0.530644 0.868874 -0.170273
C13   C     C_R   0.844750 0.528178 0.064530 -0.152079
C14   C     C_R   0.843618 0.536856 0.933957 -0.135092
C15   C     C_R   0.617976 0.514340 0.934116 0.044930
C16   C     C_R   0.618614 0.510504 0.065512 0.067894
C17   C     C_R   0.504058 0.499829 0.128337 -0.155752
C18   C     C_R   0.503589 0.500342 0.871581 -0.145361
C19   C     C_R   0.390642 0.487413 0.064671 0.030062
C20   C     C_R   0.390781 0.486958 0.934899 0.089192
C21   C     C_R   0.066297 0.398103 0.568305 0.072014
C22   C     C_R   0.938187 0.394401 0.565594 0.007524
C23   C     C_R   0.872359 0.497679 0.500341 -0.116595
C24   C     C_R   0.127686 0.501497 0.502802 -0.108671
H1    H     H_    0.616811 0.124645 0.659489 0.134852
H2    H     H_    0.386711 0.130081 0.338180 0.134860
N1    N     N_R   0.500000 0.857200 0.500000 -0.072585
N2    N     N_R   0.500000 0.142810 0.500000 -0.085658
O1    O     O_R   0.316770 0.614620 0.499990 -0.588485
O2    O     O_R   0.683230 0.614620 0.500010 -0.583456
O3    O     O_R   0.316800 0.385290 0.500000 -0.608569
O4    O     O_R   0.683200 0.385290 0.500000 -0.641800
O5    O     O_R   0.500010 0.614690 0.316770 -0.594842
O6    O     O_R   0.499990 0.614690 0.683230 -0.605646
O7    O     O_R   0.500040 0.385360 0.316770 -0.628619
O8    O     O_R   0.499960 0.385360 0.683230 -0.618205
Zn1   Zn    Zn3+2 0.500000 0.653120 0.500000 0.990336
Zn2   Zn    Zn3+2 0.500000 0.346880 0.500000 0.943644
N3    N     N_3   0.274884 0.475125 0.130546 -0.484083
H3    H     H_    0.279094 0.388438 0.187481 0.189031
H4    H     H_    0.263554 0.559737 0.188159 0.193868
N4    N     N_3   0.276681 0.473726 0.866148 -0.456340
H5    H     H_    0.217488 0.554189 0.890496 0.191032
H6    H     H_    0.234997 0.383428 0.894484 0.197026
H7    H     H_    0.737792 0.509836 0.231620 0.136206
H8    H     H_    0.734104 0.538433 0.767585 0.123654
H9    H     H_    0.932098 0.531348 0.114954 0.135513
H10   H     H_    0.929895 0.547658 0.882897 0.135780
N5    N     N_3   0.134622 0.297343 0.639050 -0.418071
H11   H     H_    0.115646 0.202103 0.601367 0.199171
H12   H     H_    0.103095 0.298670 0.731909 0.191096
N6    N     N_3   0.878154 0.286236 0.632241 -0.479318
H13   H     H_    0.811927 0.325847 0.693945 0.193164
H14   H     H_    0.836391 0.221451 0.567787 0.212585
N7    N     N_3   0.865217 0.707611 0.371276 -0.432834
H15   H     H_    0.891290 0.709201 0.276824 0.173333
H16   H     H_    0.885585 0.801269 0.411374 0.186022
N8    N     N_3   0.127781 0.707143 0.369519 -0.440509
H17   H     H_    0.102771 0.703697 0.274663 0.165211
H18   H     H_    0.102186 0.801669 0.405777 0.183140
N9    N     N_3   0.637117 0.853384 0.680388 -0.397566
H19   H     H_    0.729737 0.882666 0.671755 0.160014
H20   H     H_    0.606125 0.882368 0.769474 0.170491
N10   N     N_3   0.372863 0.860509 0.311923 -0.390909
H21   H     H_    0.282929 0.901077 0.306309 0.153769
H22   H     H_    0.416850 0.883369 0.226990 0.169674

loop_
_geom_bond_atom_site_label_1
_geom_bond_atom_site_label_2
_ccdc_geom_bond_type
C15   C18   A    
C20   N4    S    
N7    H15   S    
O3    Zn2   S    
O4    Zn2   S    
O6    Zn1   S    
C11   C16   A    
C3    C23   A    
C19   C20   A    
C12   C15   A    
N2    Zn2   S    
C2    O2    A    
N10   H21   S    
N5    H12   S    
O8    Zn2   S    
C10   O6    A    
C13   C14   A    
C9    O5    A    
C11   C13   A    
C1    O1    A    
C6    H2    S    
N4    H6    S    
C8    N10   S    
C4    C24   A    
C5    H1    S    
C21   N5    S    
C6    C8    A    
C2    O4    A    
C9    C17   S    
C13   H9    S    
C17   C19   A    
C12   C14   A    
C22   N6    S    
C18   C20   A    
N7    H16   S    
N9    H19   S    
C10   C18   S    
C9    O7    A    
C11   H7    S    
N4    H5    S    
N3    H3    S    
N8    H18   S    
C15   C16   A    
C5    N2    A    
N1    Zn1   S    
C6    N2    A    
C1    O3    A    
O7    Zn2   S    
C7    N1    A    
N6    H13   S    
N3    H4    S    
C1    C24   S    
C19   N3    S    
N5    H11   S    
C21   C24   A    
O1    Zn1   S    
C2    C23   S    
C5    C7    A    
C8    N1    A    
C22   C23   A    
C7    N9    S    
C14   H10   S    
C4    N8    S    
N8    H17   S    
C21   C22   A    
C3    N7    S    
N9    H20   S    
O5    Zn1   S    
C3    C4    A    
O2    Zn1   S    
N6    H14   S    
C16   C17   A    
C10   O8    A    
C12   H8    S    
N10   H22   S    
