data_mof_unit_60262.cif
_audit_creation_date              2012-12-10T17:10:05-0500
_audit_creation_method            fapswitch 2.2
_symmetry_space_group_name_H-M    P1
_symmetry_Int_Tables_number       1
_space_group_crystal_system       triclinic
_cell_length_a                    37.077846
_cell_length_b                    30.207512
_cell_length_c                    21.401608
_cell_angle_alpha                 90.000558
_cell_angle_beta                  54.700784
_cell_angle_gamma                 90.000633
_cell_volume                      19563.3600041

loop_
_atom_site_label
_atom_site_type_symbol
_atom_type_description
_atom_site_fract_x
_atom_site_fract_y
_atom_site_fract_z
_atom_type_partial_charge
C1    C     C_R   0.085459 0.500006 0.414443 0.813478
C2    C     C_R   0.914541 0.500006 0.585557 0.813460
C3    C     C_R   0.585458 0.000006 0.414444 0.813452
C4    C     C_R   0.414541 0.000005 0.585556 0.813425
C5    C     C_3   0.999240 0.500242 0.689516 -0.086986
C6    C     C_3   0.000761 0.500239 0.310481 -0.086978
C7    C     C_3   0.499240 0.000246 0.689516 -0.086988
C8    C     C_3   0.500761 0.000241 0.310482 -0.086980
C9    C     C_R   0.343094 0.479972 0.112493 -0.242594
C10   C     C_R   0.656904 0.479959 0.887496 -0.242587
C11   C     C_R   0.843093 0.979982 0.112486 -0.242606
C12   C     C_R   0.156905 0.979961 0.887497 -0.242595
C13   C     C_R   0.366147 0.504292 0.134378 -0.096140
C14   C     C_R   0.633852 0.504291 0.865623 -0.096126
C15   C     C_R   0.866147 0.004294 0.134380 -0.096151
C16   C     C_R   0.133852 0.004291 0.865622 -0.096131
C17   C     C_R   0.343043 0.530058 0.201902 0.090630
C18   C     C_R   0.656956 0.530068 0.798114 0.090607
C19   C     C_R   0.843042 0.030051 0.201914 0.090634
C20   C     C_R   0.156957 0.030064 0.798108 0.090602
C21   C     C_R   0.296418 0.528272 0.249990 0.068996
C22   C     C_R   0.703581 0.528283 0.750026 0.069001
C23   C     C_R   0.796417 0.028262 0.250004 0.068993
C24   C     C_R   0.203581 0.028278 0.750019 0.069000
C25   C     C_R   0.273387 0.503298 0.227455 0.059433
C26   C     C_R   0.726611 0.503297 0.772547 0.059431
C27   C     C_R   0.773387 0.003297 0.227459 0.059433
C28   C     C_R   0.226612 0.003294 0.772543 0.059430
C29   C     C_R   0.297116 0.479744 0.157808 0.111567
C30   C     C_R   0.702882 0.479729 0.842180 0.111569
C31   C     C_R   0.797116 0.979753 0.157802 0.111564
C32   C     C_R   0.202882 0.979731 0.842179 0.111567
C33   C     C_R   0.272148 0.550843 0.320069 -0.166375
C34   C     C_R   0.727851 0.550869 0.679963 -0.166375
C35   C     C_R   0.772147 0.050822 0.320094 -0.166383
C36   C     C_R   0.227851 0.050859 0.679950 -0.166383
C37   C     C_R   0.226361 0.548615 0.367136 -0.184166
C38   C     C_R   0.773638 0.548643 0.632895 -0.184165
C39   C     C_R   0.726360 0.048592 0.367162 -0.184176
C40   C     C_R   0.273639 0.048632 0.632882 -0.184175
C41   C     C_R   0.202823 0.524280 0.345502 0.097937
C42   C     C_R   0.797176 0.524294 0.654515 0.097931
C43   C     C_R   0.702822 0.024267 0.345517 0.097934
C44   C     C_R   0.297176 0.024286 0.654505 0.097926
C45   C     C_R   0.999522 0.500031 0.620835 0.792177
C46   C     C_R   0.000479 0.500031 0.379164 0.792219
C47   C     C_R   0.499521 0.000032 0.620836 0.792121
C48   C     C_R   0.500479 0.000031 0.379164 0.792174
C49   C     C_R   0.226595 0.502116 0.274162 -0.006908
C50   C     C_R   0.773403 0.502116 0.725840 -0.006914
C51   C     C_R   0.726594 0.002115 0.274166 -0.006916
C52   C     C_R   0.273404 0.002113 0.725835 -0.006922
C53   C     C_R   0.203963 0.478857 0.249011 0.096773
C54   C     C_R   0.796035 0.478842 0.750976 0.096770
C55   C     C_R   0.703962 0.978865 0.249006 0.096769
C56   C     C_R   0.296035 0.978842 0.750975 0.096766
C57   C     C_R   0.228768 0.455637 0.178962 -0.177870
C58   C     C_R   0.771230 0.455608 0.821011 -0.177876
C59   C     C_R   0.728767 0.955656 0.178946 -0.177874
C60   C     C_R   0.271231 0.955612 0.821013 -0.177882
C61   C     C_R   0.274648 0.455841 0.134457 -0.185535
C62   C     C_R   0.725350 0.455812 0.865516 -0.185533
C63   C     C_R   0.774647 0.955859 0.134441 -0.185551
C64   C     C_R   0.225350 0.955816 0.865518 -0.185545
C65   C     C_R   0.156276 0.521332 0.393936 0.079766
C66   C     C_R   0.843722 0.521347 0.606079 0.079785
C67   C     C_R   0.656275 0.021318 0.393950 0.079744
C68   C     C_R   0.343723 0.021340 0.606070 0.079765
C69   C     C_R   0.133767 0.500187 0.366662 -0.052114
C70   C     C_R   0.866232 0.500187 0.633339 -0.052143
C71   C     C_R   0.633766 0.000186 0.366665 -0.052117
C72   C     C_R   0.366232 0.000186 0.633336 -0.052156
C73   C     C_R   0.157298 0.479869 0.293535 0.083413
C74   C     C_R   0.842700 0.479855 0.706454 0.083419
C75   C     C_R   0.657297 0.979877 0.293531 0.083420
C76   C     C_R   0.342700 0.979856 0.706453 0.083428
C77   C     C_R   1.000000 0.414412 0.000000 0.822298
C78   C     C_R   0.500000 0.914413 0.999999 0.822368
C79   C     C_R   0.999971 0.499961 0.879718 0.827952
C80   C     C_R   0.000029 0.499959 0.120281 0.827914
C81   C     C_R   0.499972 0.999964 0.879718 0.827979
C82   C     C_R   0.500029 0.999960 0.120281 0.827937
C83   C     C_R   0.000000 0.585704 0.000000 0.800906
C84   C     C_R   0.500000 0.085704 0.000000 0.800919
C85   C     C_3   0.041301 0.495914 0.687388 -0.201767
C86   C     C_3   0.958689 0.496027 0.312619 -0.201766
C87   C     C_3   0.541291 0.995811 0.687396 -0.201748
C88   C     C_3   0.458696 0.995943 0.312614 -0.201752
C89   C     C_R   0.500000 0.414484 1.000000 0.873497
C90   C     C_R   0.000000 0.914484 1.000000 0.873499
C91   C     C_R   0.414444 0.501959 0.085714 0.846916
C92   C     C_R   0.585555 0.501959 0.914286 0.846923
C93   C     C_R   0.914444 0.001960 0.085715 0.846900
C94   C     C_R   0.085555 0.001959 0.914286 0.846906
C95   C     C_R   0.499999 0.585624 0.000001 0.806902
C96   C     C_R   1.000000 0.085624 0.000000 0.806870
C97   C     C_R   0.527168 0.656950 0.014388 -0.205285
C98   C     C_R   0.472830 0.656949 0.985610 -0.205284
C99   C     C_R   0.027219 0.156947 0.014272 -0.205292
C100  C     C_R   0.972779 0.156946 0.985731 -0.205298
C101  C     C_R   0.499998 0.633991 0.000001 -0.049687
C102  C     C_R   0.999999 0.133989 0.000001 -0.049631
C103  C     C_R   0.471709 0.703427 0.986761 0.107080
C104  C     C_R   0.528292 0.703428 0.013231 0.107081
C105  C     C_R   0.971655 0.203424 0.986892 0.107095
C106  C     C_R   0.028343 0.203425 0.013113 0.107095
C107  C     C_R   0.500000 0.726694 0.999996 -0.015077
C108  C     C_R   0.999999 0.226692 0.000003 -0.015096
C109  C     C_R   0.443033 0.727258 0.975197 0.166275
C110  C     C_R   0.556973 0.727260 0.024782 0.166303
C111  C     C_R   0.942925 0.227255 0.975460 0.166311
C112  C     C_R   0.057072 0.227257 0.024546 0.166330
C113  C     C_R   0.942788 0.273639 0.977418 -0.181598
C114  C     C_R   0.057208 0.273641 0.022589 -0.181661
C115  C     C_R   0.442894 0.773642 0.977158 -0.181517
C116  C     C_R   0.557111 0.773644 0.022822 -0.181588
C117  C     C_R   0.970988 0.296687 0.989393 0.077569
C118  C     C_R   0.029008 0.296688 0.010613 0.077576
C119  C     C_R   0.471041 0.796690 0.989261 0.077586
C120  C     C_R   0.528961 0.796691 0.010727 0.077590
C121  C     C_3   0.016762 0.461952 0.753450 0.185827
C122  C     C_3   0.983134 0.461996 0.246653 0.185806
C123  C     C_3   0.516667 0.961913 0.753546 0.185839
C124  C     C_3   0.483211 0.961963 0.246576 0.185815
C125  C     C_R   0.999998 0.273299 0.000003 0.055113
C126  C     C_R   0.500001 0.773302 0.999995 0.055077
C127  C     C_R   0.970676 0.342995 0.990715 -0.192481
C128  C     C_R   0.029321 0.342995 0.009290 -0.192599
C129  C     C_R   0.470725 0.842997 0.990589 -0.192417
C130  C     C_R   0.529275 0.842998 0.009403 -0.192558
C131  C     C_R   0.999999 0.366088 0.000002 -0.037553
C132  C     C_R   0.500000 0.866090 0.999998 -0.037529
C133  C     C_R   0.538154 0.343535 0.942479 0.066613
C134  C     C_R   0.461846 0.343535 0.057519 0.066616
C135  C     C_R   0.038152 0.843535 0.942472 0.066614
C136  C     C_R   0.961848 0.843535 0.057526 0.066619
C137  C     C_R   0.500000 0.366337 0.999999 -0.132226
C138  C     C_R   1.000000 0.866337 0.999999 -0.132236
C139  C     C_R   0.461842 0.296944 0.057903 0.041729
C140  C     C_R   0.538159 0.296944 0.942098 0.041728
C141  C     C_R   0.961844 0.796944 0.057910 0.041724
C142  C     C_R   0.038156 0.796944 0.942089 0.041725
C143  C     C_R   0.500000 0.273667 0.000000 -0.000354
C144  C     C_R   0.000000 0.773667 0.000000 -0.000358
C145  C     C_R   0.424509 0.273019 0.114846 -0.169686
C146  C     C_R   0.575492 0.273019 0.885155 -0.169677
C147  C     C_R   0.924515 0.773019 0.114863 -0.169692
C148  C     C_R   0.075486 0.773019 0.885138 -0.169685
C149  C     C_R   0.924218 0.726980 0.115354 0.132868
C150  C     C_R   0.075783 0.726980 0.884648 0.132876
C151  C     C_R   0.424212 0.226980 0.115337 0.132871
C152  C     C_R   0.575789 0.226980 0.884665 0.132880
C153  C     C_R   0.961858 0.703505 0.057879 0.069740
C154  C     C_R   0.038143 0.703505 0.942123 0.069739
C155  C     C_R   0.461855 0.203505 0.057871 0.069743
C156  C     C_R   0.538146 0.203506 0.942132 0.069742
C157  C     C_3   0.999781 0.499900 0.811525 -0.064193
C158  C     C_3   0.000220 0.499896 0.188473 -0.064186
C159  C     C_3   0.499784 0.999904 0.811522 -0.064194
C160  C     C_3   0.500219 0.999899 0.188475 -0.064185
C161  C     C_R   0.000000 0.726905 0.000001 0.032135
C162  C     C_R   0.500000 0.226906 0.000001 0.032142
C163  C     C_R   0.962363 0.657215 0.056855 -0.195194
C164  C     C_R   0.037638 0.657215 0.943148 -0.195175
C165  C     C_R   0.462360 0.157215 0.056846 -0.195184
C166  C     C_R   0.537641 0.157216 0.943157 -0.195161
C167  C     C_R   0.000000 0.634142 0.000001 -0.089485
C168  C     C_R   0.500000 0.134142 0.000001 -0.089458
C169  C     C_3   0.023758 0.533748 0.746657 0.123413
C170  C     C_3   0.976337 0.533812 0.253245 0.123511
C171  C     C_3   0.523847 0.033691 0.746566 0.123322
C172  C     C_3   0.476266 0.033764 0.253319 0.123440
C173  C     C_3   0.982124 0.538315 0.747657 0.209358
C174  C     C_3   0.017984 0.538263 0.252234 0.209338
C175  C     C_3   0.482224 0.038364 0.747558 0.209385
C176  C     C_3   0.517904 0.038302 0.252315 0.209354
C177  C     C_3   0.957812 0.504132 0.813350 -0.248936
C178  C     C_3   0.042200 0.504012 0.186638 -0.248989
C179  C     C_3   0.457826 0.004244 0.813339 -0.248904
C180  C     C_3   0.542190 0.004101 0.186647 -0.248959
C181  C     C_3   0.974896 0.465959 0.754339 -0.211002
C182  C     C_3   0.025010 0.465888 0.245754 -0.211035
C183  C     C_3   0.474810 0.966027 0.754429 -0.210981
C184  C     C_3   0.525080 0.965941 0.245683 -0.211018
Cu1   Cu    Cu3+1 0.000000 0.544460 0.500000 1.032703
Cu2   Cu    Cu3+1 0.500000 0.044460 0.500000 1.032757
Cu3   Cu    Cu3+1 0.000000 0.455520 0.500000 0.990734
Cu4   Cu    Cu3+1 0.500000 0.955520 0.500000 0.990774
Cu5   Cu    Cu3+1 0.955530 0.500030 0.044440 0.998523
Cu6   Cu    Cu3+1 0.044470 0.500030 0.955560 0.998443
Cu7   Cu    Cu3+1 0.455530 0.000030 0.044440 0.998486
Cu8   Cu    Cu3+1 0.544470 0.000030 0.955560 0.998391
Cu9   Cu    Cu3+1 0.500020 0.499960 0.062730 1.034317
Cu10  Cu    Cu3+1 0.499980 0.499960 0.937270 1.034321
Cu11  Cu    Cu3+1 0.000020 0.999960 0.062730 1.034324
Cu12  Cu    Cu3+1 0.999980 0.999960 0.937270 1.034326
H1    H     H_    0.209799 0.566771 0.420416 0.165801
H2    H     H_    0.790200 0.566811 0.579628 0.165803
H3    H     H_    0.709798 0.066739 0.420451 0.165798
H4    H     H_    0.290200 0.066795 0.579610 0.165801
H5    H     H_    0.213177 0.436623 0.157891 0.159419
H6    H     H_    0.786821 0.436582 0.842069 0.159430
H7    H     H_    0.713176 0.936649 0.157867 0.159423
H8    H     H_    0.286821 0.936588 0.842073 0.159437
H9    H     H_    0.292632 0.437441 0.081173 0.152888
H10   H     H_    0.707366 0.437402 0.918789 0.152894
H11   H     H_    0.792631 0.937468 0.081148 0.152886
H12   H     H_    0.207366 0.937409 0.918794 0.152894
H13   H     H_    0.547992 0.638019 0.024793 0.158528
H14   H     H_    0.452005 0.638017 0.975208 0.158524
H15   H     H_    0.048082 0.138015 0.024586 0.158477
H16   H     H_    0.951917 0.138013 0.975415 0.158473
H17   H     H_    0.920712 0.291974 0.969128 0.150618
H18   H     H_    0.079284 0.291977 0.030881 0.150589
H19   H     H_    0.420858 0.791977 0.968768 0.150654
H20   H     H_    0.579150 0.791980 0.031205 0.150618
H21   H     H_    0.948315 0.361171 0.982911 0.148858
H22   H     H_    0.051682 0.361172 0.017094 0.148794
H23   H     H_    0.448402 0.861175 0.982693 0.148892
H24   H     H_    0.551599 0.861176 0.017298 0.148818
H25   H     H_    0.075534 0.492448 0.635197 0.155895
H26   H     H_    0.924447 0.492653 0.364816 0.155860
H27   H     H_    0.575512 0.992257 0.635206 0.155925
H28   H     H_    0.424462 0.992499 0.364808 0.155886
H29   H     H_    0.394919 0.289533 0.160161 0.203437
H30   H     H_    0.605081 0.289534 0.839839 0.203438
H31   H     H_    0.894927 0.789533 0.160185 0.203437
H32   H     H_    0.105073 0.789534 0.839816 0.203439
H33   H     H_    0.933782 0.638623 0.100535 0.189161
H34   H     H_    0.066218 0.638623 0.899467 0.189153
H35   H     H_    0.433777 0.138623 0.100520 0.189155
H36   H     H_    0.566224 0.138624 0.899483 0.189146
H37   H     H_    0.923573 0.507498 0.865637 0.181759
H38   H     H_    0.076448 0.507282 0.134341 0.181753
H39   H     H_    0.423597 0.007699 0.865620 0.181769
H40   H     H_    0.576431 0.007443 0.134356 0.181756
H41   H     H_    0.954791 0.437994 0.756445 0.171886
H42   H     H_    0.045038 0.437867 0.243722 0.171942
H43   H     H_    0.454632 0.938112 0.756612 0.171834
H44   H     H_    0.545166 0.937961 0.243593 0.171900
H45   H     H_    0.361161 0.460712 0.060062 0.170549
H46   H     H_    0.638837 0.460689 0.939917 0.170544
H47   H     H_    0.861160 0.960728 0.060048 0.170549
H48   H     H_    0.138837 0.960694 0.939920 0.170542
H49   H     H_    0.287987 0.569943 0.340482 0.186850
H50   H     H_    0.712012 0.569979 0.659561 0.186852
H51   H     H_    0.787986 0.069914 0.340515 0.186850
H52   H     H_    0.212013 0.069966 0.659545 0.186852
O1    O     O_R   0.064870 0.537550 0.435160 -0.567494
O2    O     O_R   0.935130 0.537550 0.564840 -0.567549
O3    O     O_R   0.564870 0.037550 0.435160 -0.567492
O4    O     O_R   0.435130 0.037550 0.564840 -0.567560
O5    O     O_R   0.435150 0.499980 0.117890 -0.540785
O6    O     O_R   0.564850 0.499980 0.882110 -0.540784
O7    O     O_R   0.935150 0.999980 0.117890 -0.540781
O8    O     O_R   0.064850 0.999980 0.882110 -0.540780
O9    O     O_R   0.435090 0.499970 0.011940 -0.599069
O10   O     O_R   0.564910 0.499970 0.988060 -0.599067
O11   O     O_R   0.935090 0.999970 0.011940 -0.599074
O12   O     O_R   0.064910 0.999970 0.988060 -0.599071
O13   O     O_R   0.500060 0.564850 0.052930 -0.577064
O14   O     O_R   0.499940 0.564850 0.947070 -0.577059
O15   O     O_R   0.000060 0.064850 0.052930 -0.577042
O16   O     O_R   0.999940 0.064850 0.947070 -0.577036
O17   O     O_R   0.064850 0.462440 0.435150 -0.580379
O18   O     O_R   0.935150 0.462440 0.564850 -0.580348
O19   O     O_R   0.564850 0.962440 0.435150 -0.580378
O20   O     O_R   0.435150 0.962440 0.564850 -0.580341
O21   O     O_R   0.999990 0.537540 0.591580 -0.563346
O22   O     O_R   0.000010 0.537540 0.408420 -0.563372
O23   O     O_R   0.499990 0.037540 0.591580 -0.563324
O24   O     O_R   0.500010 0.037540 0.408420 -0.563353
O25   O     O_R   0.999980 0.462440 0.591580 -0.583446
O26   O     O_R   0.000020 0.462440 0.408420 -0.583473
O27   O     O_R   0.499980 0.962440 0.591580 -0.583413
O28   O     O_R   0.500020 0.962440 0.408420 -0.583449
O29   O     O_R   0.962450 0.435150 0.037500 -0.576888
O30   O     O_R   0.037550 0.435150 0.962500 -0.576920
O31   O     O_R   0.462450 0.935150 0.037500 -0.576867
O32   O     O_R   0.537550 0.935150 0.962500 -0.576909
O33   O     O_R   0.962450 0.500030 0.945950 -0.590232
O34   O     O_R   0.037550 0.500030 0.054050 -0.590252
O35   O     O_R   0.462450 0.000030 0.945950 -0.590221
O36   O     O_R   0.537550 0.000030 0.054050 -0.590243
O37   O     O_R   0.037540 0.500060 0.870890 -0.571199
O38   O     O_R   0.962460 0.500060 0.129110 -0.571144
O39   O     O_R   0.537540 0.000060 0.870890 -0.571250
O40   O     O_R   0.462460 0.000060 0.129110 -0.571184
O41   O     O_R   0.962440 0.564920 0.037550 -0.585087
O42   O     O_R   0.037560 0.564920 0.962450 -0.585086
O43   O     O_R   0.462440 0.064920 0.037550 -0.585103
O44   O     O_R   0.537560 0.064920 0.962450 -0.585102
O45   O     O_R   0.499970 0.435080 0.053010 -0.563745
O46   O     O_R   0.500030 0.435080 0.946990 -0.563740
O47   O     O_R   0.999970 0.935080 0.053010 -0.563745
O48   O     O_R   0.000030 0.935080 0.946990 -0.563739
I1    I     I_    0.043518 0.400963 0.760071 -0.352882
I2    I     I_    0.956213 0.401077 0.240208 -0.352660
I3    I     I_    0.543265 0.900855 0.760326 -0.353155
I4    I     I_    0.456414 0.900990 0.240002 -0.352882
C185  C     C_3   0.131260 0.539661 0.475049 -0.830500
H53   H     H_    0.095943 0.530321 0.511873 0.225762
H54   H     H_    0.145722 0.526327 0.504390 0.224421
H55   H     H_    0.133353 0.576351 0.473246 0.244672
C186  C     C_3   0.868738 0.539694 0.524979 -0.830487
H56   H     H_    0.904054 0.530355 0.488147 0.225764
H57   H     H_    0.854274 0.526376 0.495631 0.224430
H58   H     H_    0.866646 0.576385 0.526807 0.244655
C187  C     C_3   0.631258 0.039633 0.475073 -0.830510
H59   H     H_    0.595941 0.030293 0.511892 0.225766
H60   H     H_    0.645720 0.026288 0.504409 0.224419
H61   H     H_    0.633350 0.076324 0.473288 0.244680
C188  C     C_3   0.368739 0.039680 0.524965 -0.830485
H62   H     H_    0.404056 0.030340 0.488136 0.225772
H63   H     H_    0.354276 0.026355 0.495619 0.224426
H64   H     H_    0.366648 0.076371 0.526783 0.244659
C189  C     C_3   0.133267 0.460831 0.261153 -0.834913
H65   H     H_    0.147427 0.474883 0.203405 0.228389
H66   H     H_    0.136784 0.424252 0.257085 0.236667
H67   H     H_    0.097612 0.468820 0.295059 0.229854
C190  C     C_3   0.866731 0.460803 0.738829 -0.834996
H68   H     H_    0.852565 0.474839 0.796589 0.228342
H69   H     H_    0.863219 0.424224 0.742865 0.236716
H70   H     H_    0.902383 0.468799 0.704935 0.229833
C191  C     C_3   0.633266 0.960848 0.261143 -0.834997
H71   H     H_    0.647422 0.974911 0.203404 0.228373
H72   H     H_    0.636788 0.924269 0.257055 0.236685
H73   H     H_    0.597610 0.968832 0.295057 0.229832
C192  C     C_3   0.366731 0.960808 0.738830 -0.835089
H74   H     H_    0.352565 0.974846 0.796589 0.228314
H75   H     H_    0.363219 0.924228 0.742870 0.236746
H76   H     H_    0.402383 0.968804 0.704935 0.229807
C193  C     C_3   0.412196 0.704161 0.961245 -0.841049
H77   H     H_    0.431560 0.683795 0.908458 0.239520
H78   H     H_    0.388981 0.682654 0.010809 0.237404
H79   H     H_    0.392224 0.728045 0.953666 0.236510
C194  C     C_3   0.587818 0.704164 0.038714 -0.841095
H80   H     H_    0.611020 0.682646 0.989158 0.237408
H81   H     H_    0.607806 0.728047 0.046254 0.236498
H82   H     H_    0.568460 0.683809 0.091514 0.239518
C195  C     C_3   0.912025 0.204158 0.961656 -0.841083
H83   H     H_    0.931342 0.183793 0.908861 0.239493
H84   H     H_    0.888849 0.182648 0.011246 0.237433
H85   H     H_    0.892013 0.228040 0.954176 0.236501
C196  C     C_3   0.087971 0.204160 0.038351 -0.841117
H86   H     H_    0.068653 0.183800 0.091150 0.239492
H87   H     H_    0.111146 0.182648 0.988765 0.237437
H88   H     H_    0.107987 0.228044 0.045823 0.236491
I5    I     I_    0.595962 0.380700 0.858596 -0.344905
I6    I     I_    0.404037 0.380699 0.141401 -0.344910
I7    I     I_    0.095958 0.880699 0.858580 -0.344898
I8    I     I_    0.904041 0.880699 0.141415 -0.344894
I9    I     I_    0.865001 0.696111 0.206140 -0.337717
I10   I     I_    0.135000 0.696112 0.793863 -0.337674
I11   I     I_    0.364989 0.196111 0.206107 -0.337707
I12   I     I_    0.635012 0.196112 0.793896 -0.337659
C197  C     C_3   0.051657 0.572081 0.742584 -0.783358
H89   H     H_    0.064346 0.591532 0.689718 0.248732
H90   H     H_    0.031252 0.593811 0.793296 0.236424
H91   H     H_    0.079982 0.559121 0.741604 0.243840
C198  C     C_3   0.948546 0.572221 0.257205 -0.783477
H92   H     H_    0.935907 0.591706 0.310020 0.248791
H93   H     H_    0.969015 0.593894 0.206436 0.236396
H94   H     H_    0.920190 0.559339 0.258208 0.243821
C199  C     C_3   0.551847 0.071953 0.742381 -0.783262
H95   H     H_    0.564577 0.091371 0.689468 0.248677
H96   H     H_    0.531502 0.093734 0.793039 0.236459
H97   H     H_    0.580144 0.058922 0.741418 0.243859
C200  C     C_3   0.448394 0.072117 0.257366 -0.783397
H98   H     H_    0.435719 0.091576 0.310219 0.248744
H99   H     H_    0.468815 0.093832 0.206640 0.236419
H100  H     H_    0.420061 0.059177 0.258352 0.243835
I13   I     I_    0.952704 0.599336 0.748044 -0.323915
I14   I     I_    0.047574 0.599197 0.251696 -0.323990
I15   I     I_    0.452960 0.099467 0.747816 -0.323843
I16   I     I_    0.547368 0.099301 0.251886 -0.323927
I17   I     I_    0.378345 0.575400 0.225977 -0.338067
I18   I     I_    0.621652 0.575421 0.774061 -0.338085
I19   I     I_    0.878343 0.075387 0.226003 -0.338080
I20   I     I_    0.121653 0.075417 0.774053 -0.338108

loop_
_geom_bond_atom_site_label_1
_geom_bond_atom_site_label_2
_ccdc_geom_bond_type
C79   O37   A    
C197  H89   S    
C55   C59   A    
C16   C94   S    
C135  I7    S    
C154  C161  A    
C116  H20   S    
C194  H80   S    
C74   C190  S    
C193  H77   S    
C133  C137  A    
C46   O26   A    
Cu4   O20   S    
C17   I17   S    
C96   C102  S    
C26   C50   A    
C193  H79   S    
C21   C33   A    
Cu3   O17   S    
C164  H34   S    
C9    C13   A    
C123  C183  S    
C157  C169  S    
C54   C74   A    
C11   C15   A    
C135  C142  A    
C152  C156  A    
C70   C74   A    
C85   C121  S    
C151  C155  A    
C40   C44   A    
C200  H100  S    
C78   O32   A    
C187  H60   S    
C176  I16   S    
C13   C91   S    
Cu8   O39   S    
C41   C49   A    
C155  C162  A    
C25   C29   A    
C198  H94   S    
C73   C189  S    
C20   I20   S    
C27   C31   A    
Cu7   Cu8   S    
C28   C32   A    
C4    O4    A    
C141  C144  A    
C159  C179  S    
C6    C174  S    
C185  H53   S    
C145  H29   S    
C17   C21   A    
C153  C161  A    
C134  I6    S    
C87   H27   S    
C189  H67   S    
C19   C23   A    
C15   C93   S    
C136  C141  A    
C84   C168  S    
C31   C63   A    
C82   C160  S    
C10   C30   A    
C156  C166  A    
C16   C20   A    
C87   C171  S    
Cu9   O10   S    
C160  C172  S    
Cu6   O37   S    
C115  H19   S    
C111  C113  A    
C196  H88   S    
C130  H24   S    
C174  I14   S    
Cu2   O3    S    
C178  C182  S    
Cu1   O22   S    
C179  H39   S    
C197  H91   S    
C75   C191  S    
C142  C144  A    
C128  H22   S    
C194  H82   S    
C170  C174  S    
C185  H55   S    
Cu6   O30   S    
Cu10  O14   S    
C80   O38   A    
C123  I3    S    
C177  H37   S    
C57   C61   A    
C79   O33   A    
Cu7   O43   S    
C59   C63   A    
C7    C183  S    
C60   C64   A    
C90   O48   A    
C158  C178  S    
C199  H95   S    
C104  C110  A    
C66   C70   A    
C123  C159  S    
C155  C165  A    
C49   C53   A    
C124  C160  S    
C51   C55   A    
C127  C131  A    
C141  C147  A    
Cu1   O1    S    
Cu11  Cu12  S    
Cu3   O26   S    
C111  C195  S    
C95   O13   A    
C180  H40   S    
C190  H68   S    
C173  I13   S    
C165  H35   S    
C103  C107  A    
C152  I12   S    
C184  H44   S    
C104  C107  A    
C180  C184  S    
C11   H47   S    
C114  H18   S    
Cu11  O15   S    
C148  H32   S    
C140  C143  A    
C88   C124  S    
C9    H45   S    
C112  C114  A    
C83   O41   A    
C99   H15   S    
C24   C36   A    
C97   H13   S    
C6    C182  S    
C154  C164  A    
C148  C150  A    
C124  C184  S    
C94   O8    A    
C1    O1    A    
C89   O46   A    
C188  H63   S    
C2    O18   A    
C86   C170  S    
C77   C131  S    
C191  H72   S    
C78   C132  S    
C160  C180  S    
C149  C153  A    
C93   O11   A    
C139  C143  A    
Cu2   O23   S    
C60   H8    S    
C94   O12   A    
C12   H48   S    
C88   H28   S    
C150  I10   S    
C55   C75   A    
C44   C52   A    
C96   O16   A    
C166  C168  A    
C192  H75   S    
C38   H2    S    
Cu5   Cu6   S    
C175  I15   S    
C90   C138  S    
C27   C51   A    
C195  H84   S    
C22   C34   A    
C29   C61   A    
C71   C75   A    
C110  C194  S    
C12   C16   A    
C32   C64   A    
C10   C14   A    
C199  H97   S    
C134  C139  A    
C178  H38   S    
C147  H31   S    
C158  C170  S    
C91   O5    A    
C65   C185  S    
C83   C167  S    
C116  C120  A    
Cu5   O33   S    
C8    C88   S    
C77   O30   A    
Cu12  O11   S    
C119  C126  A    
C34   H50   S    
Cu2   O24   S    
C80   C158  S    
C84   O44   A    
C190  H70   S    
C114  C118  A    
C33   H49   S    
C58   H6    S    
C42   C50   A    
C113  C117  A    
C48   O28   A    
Cu9   Cu10  S    
C115  C119  A    
Cu5   O41   S    
C128  C131  A    
Cu9   O45   S    
Cu11  O47   S    
C99   C106  A    
C21   C25   A    
C166  H36   S    
C18   C22   A    
C5    C173  S    
C24   C28   A    
C8    C176  S    
C26   C30   A    
Cu4   O27   S    
C90   O47   A    
C165  C168  A    
C6    C86   S    
C13   C17   A    
Cu10  O9    S    
C87   C123  S    
C106  C108  A    
C45   O25   A    
C119  C129  A    
C62   H10   S    
C68   C188  S    
C37   C41   A    
C89   O45   A    
C176  C180  S    
C56   C60   A    
C48   O24   A    
C43   C67   A    
C57   H5    S    
C169  C173  S    
C117  C125  A    
C95   C101  S    
C61   H9    S    
C200  H99   S    
C92   O6    A    
C58   C62   A    
C47   O27   A    
C80   O34   A    
Cu11  O7    S    
C144  C161  A    
C134  C137  A    
C15   C19   A    
C198  H93   S    
C50   C54   A    
C159  C171  S    
C18   I18   S    
C56   C76   A    
C147  C149  A    
C78   O31   A    
C110  C116  A    
C120  C126  A    
C187  H61   S    
C181  H41   S    
C98   C103  A    
C189  H66   S    
C39   H3    S    
C171  C199  S    
C7    C87   S    
C81   O35   A    
C86   C122  S    
C121  I1    S    
C69   C73   A    
C130  C132  A    
C81   O39   A    
C118  C125  A    
Cu5   O29   S    
C196  H87   S    
C82   O40   A    
C174  C178  S    
Cu2   O4    S    
C124  I4    S    
Cu1   O21   S    
C129  C132  A    
C193  H78   S    
C105  C111  A    
C82   O36   A    
C197  H90   S    
C63   H11   S    
C5    C181  S    
C194  H81   S    
C185  H54   S    
C3    O19   A    
Cu4   O19   S    
C140  C146  A    
C53   C57   A    
C40   H4    S    
Cu3   O18   S    
C195  H83   S    
C5    C45   S    
C1    C69   S    
Cu10  O6    S    
C7    C47   S    
C35   C39   A    
C112  C196  S    
C8    C48   S    
C91   O9    A    
C98   H14   S    
Cu12  O16   S    
C117  C127  A    
C19   I19   S    
Cu3   O25   S    
C153  C163  A    
C89   C137  S    
C30   C62   A    
Cu2   Cu4   S    
C4    C72   S    
C127  H21   S    
C121  C181  S    
C164  C167  A    
C3    O3    A    
C79   C157  S    
C92   O10   A    
C93   O7    A    
C4    O20   A    
C98   C101  A    
C67   C187  S    
Cu12  O8    S    
C103  C109  A    
C2    O2    A    
C129  H23   S    
C43   C51   A    
C188  H62   S    
Cu6   O42   S    
C65   C69   A    
C66   C186  S    
C67   C71   A    
C41   C65   A    
C191  H71   S    
C23   C35   A    
C25   C49   A    
C97   C104  A    
Cu1   Cu3   S    
Cu10  O46   S    
Cu7   O35   S    
C59   H7    S    
C99   C102  A    
C39   C43   A    
C133  C140  A    
C186  H56   S    
C22   C26   A    
C2    C70   S    
Cu9   O5    S    
C135  C138  A    
C133  I5    S    
C88   C172  S    
C81   C159  S    
C192  H74   S    
C14   C18   A    
C3    C71   S    
Cu11  O12   S    
C10   H46   S    
C113  H17   S    
C72   C76   A    
C106  C112  A    
C187  H59   S    
C85   C169  S    
C45   O21   A    
C64   H12   S    
C100  C105  A    
C120  C130  A    
C169  C197  S    
C38   C42   A    
C199  H96   S    
C170  C198  S    
C177  C181  S    
C77   O29   A    
C183  H43   S    
Cu1   O2    S    
C95   O14   A    
C20   C24   A    
C190  H69   S    
C7    C175  S    
C172  C200  S    
C151  I11   S    
C37   H1    S    
C108  C125  A    
Cu8   O36   S    
C143  C162  A    
C136  I8    S    
C68   C72   A    
C8    C184  S    
C11   C31   A    
C121  C157  S    
Cu5   O38   S    
C12   C32   A    
C118  C128  A    
Cu7   O40   S    
C83   O42   A    
C179  C183  S    
C122  C158  S    
C105  C108  A    
C142  C148  A    
C36   C40   A    
C136  C138  A    
C188  H64   S    
C175  C179  S    
Cu4   O28   S    
C186  H57   S    
C171  C175  S    
C100  H16   S    
Cu9   O13   S    
Cu6   O34   S    
C122  I2    S    
C191  H73   S    
C163  C167  A    
C47   O23   A    
C173  C177  S    
Cu8   O44   S    
C186  H58   S    
Cu7   O31   S    
C100  C102  A    
C157  C177  S    
C14   C92   S    
C145  C151  A    
Cu8   O32   S    
C146  C152  A    
C96   O15   A    
C23   C27   A    
C36   H52   S    
C192  H76   S    
C44   C68   A    
Cu12  O48   S    
C182  H42   S    
C33   C37   A    
C200  H98   S    
C54   C58   A    
C195  H85   S    
C76   C192  S    
C139  C145  A    
C6    C46   S    
C34   C38   A    
C53   C73   A    
C107  C126  A    
C163  H33   S    
C9    C29   A    
C149  I9    S    
C198  H92   S    
C35   H51   S    
C5    C85   S    
C109  C193  S    
C28   C52   A    
C84   O43   A    
C85   H25   S    
C189  H65   S    
C109  C115  A    
C156  C162  A    
C172  C176  S    
C122  C182  S    
C1    O17   A    
C46   O22   A    
C150  C154  A    
C42   C66   A    
C86   H26   S    
C196  H86   S    
C146  H30   S    
C97   C101  A    
C52   C56   A    
