data_mof_unit_56571.cif
_audit_creation_date              2012-12-10T19:11:04-0500
_audit_creation_method            fapswitch 2.2
_symmetry_space_group_name_H-M    P1
_symmetry_Int_Tables_number       1
_space_group_crystal_system       triclinic
_cell_length_a                    10.786804
_cell_length_b                    9.088076
_cell_length_c                    7.783549
_cell_angle_alpha                 90.001975
_cell_angle_beta                  90.095551
_cell_angle_gamma                 90.010185
_cell_volume                      763.030311086

loop_
_atom_site_label
_atom_site_type_symbol
_atom_type_description
_atom_site_fract_x
_atom_site_fract_y
_atom_site_fract_z
_atom_type_partial_charge
C1    C     C_R   0.500018 0.220036 0.500000 0.854374
C2    C     C_R   0.259475 0.497441 0.499566 1.005603
C3    C     C_R   0.740506 0.497784 0.499925 0.940482
C4    C     C_R   0.500027 0.779969 0.500005 0.885239
C5    C     C_1   0.500048 0.065388 0.500009 -0.113921
C6    C     C_3   0.072663 0.369475 0.615557 0.187058
C7    C     C_3   0.071344 0.476345 0.309833 0.106099
C8    C     C_3   0.928505 0.372898 0.622756 0.075987
C9    C     C_3   0.927792 0.468303 0.312119 0.186463
C10   C     C_1   0.500049 0.934620 0.500016 -0.109856
C11   C     C_3   0.073628 0.650701 0.567185 0.523877
C12   C     C_3   0.926676 0.654241 0.557304 0.515485
C13   C     C_3   0.121852 0.497075 0.498291 -0.210454
C14   C     C_3   0.878013 0.496847 0.499587 -0.230485
Cu1   Cu    Cu3+1 0.500000 0.500010 0.669080 1.062645
Cu2   Cu    Cu3+1 0.500000 0.500010 0.330920 1.085145
H1    H     H_    0.106915 0.387125 0.748414 0.123466
H2    H     H_    0.098372 0.575423 0.233643 0.167058
H3    H     H_    0.902902 0.397201 0.758150 0.099595
H4    H     H_    0.894524 0.558441 0.227009 0.186524
N1    N     N_1   0.500000 0.499970 0.076820 -0.030307
N2    N     N_1   0.500000 0.499970 0.923180 -0.032580
O1    O     O_R   0.500000 0.288400 0.642760 -0.590700
O2    O     O_R   0.500000 0.288400 0.357240 -0.567742
O3    O     O_R   0.317700 0.499990 0.642790 -0.582156
O4    O     O_R   0.317700 0.499990 0.357210 -0.559596
O5    O     O_R   0.682300 0.499990 0.642790 -0.608466
O6    O     O_R   0.682300 0.499990 0.357210 -0.552475
O7    O     O_R   0.500000 0.711620 0.642810 -0.565120
O8    O     O_R   0.500000 0.711620 0.357190 -0.582096
O9    O     O_3   0.121991 0.231149 0.569570 -0.650946
H5    H     H_    0.079785 0.194579 0.465325 0.404949
O10   O     O_3   0.124224 0.352844 0.228866 -0.694562
H6    H     H_    0.109592 0.364370 0.103553 0.343380
O11   O     O_3   0.877694 0.234197 0.582844 -0.685955
H7    H     H_    0.794824 0.228292 0.637722 0.339522
O12   O     O_3   0.879384 0.338590 0.237870 -0.679786
H8    H     H_    0.923212 0.252156 0.285011 0.401821
O13   O     O_3   0.117718 0.678273 0.735840 -0.687046
H9    H     H_    0.077975 0.610430 0.818145 0.287634
O14   O     O_3   0.123303 0.761517 0.460272 -0.712260
H10   H     H_    0.112904 0.857370 0.519879 0.383626
O15   O     O_3   0.873929 0.701857 0.714615 -0.689539
H11   H     H_    0.876357 0.622416 0.800797 0.302200
O16   O     O_3   0.888922 0.756326 0.430557 -0.717935
H12   H     H_    0.895723 0.856899 0.479694 0.385754

loop_
_geom_bond_atom_site_label_1
_geom_bond_atom_site_label_2
_ccdc_geom_bond_type
Cu2   O6    S    
C6    C8    S    
O15   H11   S    
Cu1   O7    S    
Cu2   N1    S    
C12   O15   S    
C11   C13   S    
O14   H10   S    
C9    H4    S    
Cu1   O5    S    
C4    O7    A    
C9    C14   S    
C7    H2    S    
C1    O1    A    
C9    O12   S    
C6    O9    S    
C5    C10   T    
C2    O4    A    
N1    N2    T    
C6    C13   S    
C11   O13   S    
C7    O10   S    
O12   H8    S    
C3    C14   S    
C1    C5    S    
Cu1   O1    S    
C3    O6    A    
C12   C14   S    
C11   O14   S    
C2    O3    A    
C3    O5    A    
Cu2   O4    S    
Cu1   O3    S    
C8    H3    S    
C4    C10   S    
Cu1   Cu2   S    
C6    H1    S    
C7    C13   S    
O10   H6    S    
C1    O2    A    
Cu2   O2    S    
O13   H9    S    
C7    C9    S    
C2    C13   S    
C8    C14   S    
O16   H12   S    
Cu2   O8    S    
C8    O11   S    
Cu1   N2    S    
C4    O8    A    
O9    H5    S    
C11   C12   S    
C12   O16   S    
O11   H7    S    
