data_mof_unit_26599.cif
_audit_creation_date              2012-12-10T17:20:25-0500
_audit_creation_method            fapswitch 2.2
_symmetry_space_group_name_H-M    P1
_symmetry_Int_Tables_number       1
_space_group_crystal_system       triclinic
_cell_length_a                    11.690965
_cell_length_b                    10.741833
_cell_length_c                    9.622921
_cell_angle_alpha                 91.35136
_cell_angle_beta                  89.325559
_cell_angle_gamma                 91.269655
_cell_volume                      1207.76023313

loop_
_atom_site_label
_atom_site_type_symbol
_atom_type_description
_atom_site_fract_x
_atom_site_fract_y
_atom_site_fract_z
_atom_type_partial_charge
C1    C     C_R   0.498599 0.262776 0.498671 0.776636
C2    C     C_R   0.191194 0.060810 0.612638 -0.138413
C3    C     C_R   0.190629 0.931100 0.612601 0.224287
C4    C     C_R   0.289488 0.867174 0.575338 -0.166967
C5    C     C_R   0.391008 0.932787 0.538224 0.077229
C6    C     C_R   0.391134 0.064221 0.537195 0.100308
C7    C     C_R   0.492042 0.128811 0.496073 -0.085734
C8    C     C_R   0.589792 0.065216 0.454497 -0.146557
C9    C     C_R   0.590236 0.936770 0.457568 -0.153935
C10   C     C_R   0.492733 0.870878 0.501358 -0.072289
C11   C     C_R   0.653435 0.662207 0.140026 -0.226234
C12   C     C_R   0.284197 0.499616 0.500600 0.786171
C13   C     C_R   0.724852 0.740413 0.061192 0.415459
C14   C     C_R   0.699988 0.757282 0.921637 -0.268759
C15   C     C_R   0.600572 0.702022 0.868154 0.151090
C16   C     C_R   0.559262 0.591927 0.928162 0.156754
C17   C     C_R   0.569880 0.583636 0.075201 0.138164
C18   C     C_R   0.436521 0.416440 0.072586 -0.012065
C19   C     C_R   0.439472 0.413964 0.924593 -0.018249
C20   C     C_R   0.498502 0.737155 0.500913 0.784643
C21   C     C_R   0.715801 0.500291 0.499377 0.815233
C22   C     C_1   0.162441 0.499522 0.501459 -0.149538
C23   C     C_1   0.059910 0.499580 0.500581 0.048157
C24   C     C_1   0.940088 0.499911 0.499027 0.065743
C25   C     C_1   0.837557 0.500187 0.498373 -0.109408
C26   C     C_R   0.290207 0.127183 0.575055 -0.214919
Cu1   Cu    Cu3+1 0.499990 0.499990 0.640660 0.980903
Cu2   Cu    Cu3+1 0.500010 0.500010 0.359340 0.975215
H1    H     H_    0.666652 0.115491 0.422224 0.167297
H2    H     H_    0.741879 0.832705 0.866593 0.213461
H3    H     H_    0.389630 0.343626 0.868526 0.144500
H4    H     H_    0.286653 0.227714 0.574882 0.135942
H5    H     H_    0.114552 0.110485 0.641232 0.164942
H6    H     H_    0.286122 0.766546 0.576242 0.147410
H7    H     H_    0.667249 0.888345 0.426959 0.185699
H8    H     H_    0.384071 0.348396 0.126514 0.142656
H9    H     H_    0.667035 0.665897 0.248988 0.229818
N1    N     N_R   0.501070 0.501210 0.147910 -0.178889
N2    N     N_R   0.501110 0.501290 0.852040 -0.187008
O1    O     O_R   0.499990 0.319640 0.618810 -0.577244
O2    O     O_R   0.500000 0.319660 0.381240 -0.573551
O3    O     O_R   0.337190 0.500000 0.618790 -0.571033
O4    O     O_R   0.337200 0.500030 0.381210 -0.563076
O5    O     O_R   0.500000 0.680340 0.618760 -0.559955
O6    O     O_R   0.500010 0.680360 0.381190 -0.584713
O7    O     O_R   0.662800 0.499970 0.618790 -0.567345
O8    O     O_R   0.662810 0.500000 0.381210 -0.585150
I1    I     I_    0.475513 0.843382 0.874486 -0.305515
I2    I     I_    0.040081 0.831735 0.669092 -0.314431
S1    S     S_3+6 0.834139 0.830482 0.141495 0.008390
O9    O     O_2   0.935985 0.839369 0.045187 -0.235362
O10   O     O_2   0.790607 0.958926 0.172234 -0.294194
O11   O     O_3   0.872494 0.765209 0.290662 -0.562419
H10   H     H_    0.930315 0.823604 0.331548 0.386846

loop_
_geom_bond_atom_site_label_1
_geom_bond_atom_site_label_2
_ccdc_geom_bond_type
S1    O10   D    
C23   C24   S    
Cu2   O8    S    
C26   H4    S    
C6    C7    A    
C9    C10   A    
Cu2   O4    S    
C20   O6    A    
Cu2   N1    S    
Cu1   O1    S    
C19   H3    S    
C2    C3    A    
C3    I2    S    
C5    C10   A    
C2    C26   A    
C13   C14   A    
C11   C13   A    
Cu1   O3    S    
C6    C26   A    
C19   N2    A    
C15   I1    S    
C14   H2    S    
C8    H1    S    
C2    H5    S    
C1    O2    A    
C20   O5    A    
S1    O9    D    
C12   O4    A    
C17   N1    A    
C22   C23   T    
C18   N1    A    
C5    C6    A    
C4    H6    S    
Cu2   O6    S    
S1    O11   S    
C16   C17   A    
C15   C16   A    
C16   N2    A    
C13   S1    S    
C12   C22   S    
Cu2   O2    S    
C7    C8    A    
C18   C19   A    
C24   C25   T    
Cu1   O7    S    
C9    H7    S    
C21   O7    A    
C10   C20   S    
Cu1   Cu2   S    
C11   H9    S    
C21   C25   S    
C14   C15   A    
C4    C5    A    
C12   O3    A    
C1    O1    A    
C1    C7    S    
C18   H8    S    
Cu1   O5    S    
C11   C17   A    
C3    C4    A    
O11   H10   S    
Cu1   N2    S    
C8    C9    A    
C21   O8    A    
