data_mof_unit_63098.cif
_audit_creation_date              2012-10-26T19:37:44-0400
_audit_creation_method            fapswitch 2.2
_symmetry_space_group_name_H-M    P1
_symmetry_Int_Tables_number       1
_space_group_crystal_system       triclinic
_cell_length_a                    11.712699
_cell_length_b                    15.817026
_cell_length_c                    17.121114
_cell_angle_alpha                 96.010119
_cell_angle_beta                  90.615296
_cell_angle_gamma                 92.038791
_cell_volume                      3152.09362575

loop_
_atom_site_label
_atom_site_type_symbol
_atom_type_description
_atom_site_fract_x
_atom_site_fract_y
_atom_site_fract_z
_atom_type_partial_charge
C1    C     C_R   0.499050 0.489807 0.348591 0.550051
C2    C     C_R   0.476516 0.108808 0.483443 0.168300
C3    C     C_R   0.592126 0.848057 0.565856 -0.159179
C4    C     C_R   0.407877 0.151943 0.434142 -0.159178
C5    C     C_R   0.586418 0.758711 0.561372 -0.025278
C6    C     C_R   0.413584 0.241289 0.438627 -0.025277
C7    C     C_R   0.283832 0.500388 0.499901 0.546513
C8    C     C_R   0.716167 0.499611 0.500099 0.546514
C9    C     C_1   0.162276 0.500977 0.499932 -0.029708
C10   C     C_1   0.837724 0.499023 0.500068 -0.029706
C11   C     C_1   0.059863 0.500502 0.499970 -0.048774
C12   C     C_R   0.500950 0.510193 0.651408 0.550052
C13   C     C_1   0.940137 0.499498 0.500030 -0.048773
C14   C     C_R   0.498277 0.484543 0.262607 0.005556
C15   C     C_R   0.501723 0.515457 0.737393 0.005556
C16   C     C_R   0.501366 0.559142 0.224929 -0.150504
C17   C     C_R   0.498647 0.440858 0.775071 -0.150506
C18   C     C_R   0.501091 0.554451 0.143411 -0.090231
C19   C     C_R   0.498924 0.445549 0.856589 -0.090231
C20   C     C_R   0.497685 0.474537 0.098046 0.227173
C21   C     C_R   0.502317 0.525463 0.901953 0.227174
C22   C     C_R   0.494206 0.400380 0.135815 -0.109885
C23   C     C_R   0.494489 0.405070 0.217467 -0.154511
C24   C     C_R   0.505784 0.599620 0.864185 -0.109885
C25   C     C_3   0.741822 0.274721 0.582132 -0.118238
C26   C     C_3   0.258174 0.725276 0.417880 -0.118229
C27   C     C_R   0.505500 0.594930 0.782533 -0.154511
C28   C     C_R   0.443262 0.751991 0.461677 0.404264
C29   C     C_R   0.556737 0.248009 0.538324 0.404267
C30   C     C_R   0.449232 0.841811 0.463260 -0.107364
C31   C     C_R   0.550767 0.158189 0.536740 -0.107366
C32   C     C_R   0.523486 0.891192 0.516556 0.168298
Cu1   Cu    Cu3+1 0.494550 0.415220 0.496180 0.997702
Cu2   Cu    Cu3+1 0.505450 0.584780 0.503820 0.997698
H1    H     H_    0.495967 0.378741 0.741654 0.158738
H2    H     H_    0.397184 0.872239 0.422616 0.124209
H3    H     H_    0.650570 0.883607 0.607553 0.116228
H4    H     H_    0.349434 0.116392 0.392444 0.116228
H5    H     H_    0.640516 0.726579 0.599529 0.131735
H6    H     H_    0.359487 0.273420 0.400469 0.131733
H7    H     H_    0.797535 0.327168 0.611282 0.146640
H8    H     H_    0.766084 0.266106 0.519087 0.115508
H9    H     H_    0.759204 0.216746 0.611012 0.098992
H10   H     H_    0.233918 0.733878 0.480927 0.115512
H11   H     H_    0.202462 0.672831 0.388726 0.146640
H12   H     H_    0.504057 0.621259 0.258346 0.158732
H13   H     H_    0.240785 0.783256 0.389011 0.098987
H14   H     H_    0.496422 0.386668 0.883669 0.137885
H15   H     H_    0.503604 0.613332 0.116331 0.137885
H16   H     H_    0.491440 0.338665 0.101682 0.117925
H17   H     H_    0.508541 0.661336 0.898318 0.117925
H18   H     H_    0.491902 0.346513 0.245120 0.130837
H19   H     H_    0.508077 0.653487 0.754880 0.130837
H20   H     H_    0.602815 0.127761 0.577385 0.124206
N1    N     N_2   0.497650 0.465642 0.014807 -0.250812
N2    N     N_2   0.502352 0.534359 0.985193 -0.250812
N3    N     N_R   0.513630 0.712130 0.509560 -0.211862
N4    N     N_R   0.486370 0.287870 0.490440 -0.211860
N5    N     N_2   0.532669 0.982712 0.522324 -0.238638
N6    N     N_2   0.467333 0.017288 0.477674 -0.238638
O1    O     O_R   0.494910 0.420530 0.382500 -0.522365
O2    O     O_3   0.373080 0.702744 0.407908 -0.535780
O3    O     O_R   0.505090 0.579470 0.617500 -0.522365
O4    O     O_R   0.504100 0.563720 0.388950 -0.453507
O5    O     O_R   0.495900 0.436280 0.611050 -0.453506
O6    O     O_R   0.332600 0.428410 0.496780 -0.506378
O7    O     O_R   0.667400 0.571590 0.503220 -0.506379
O8    O     O_R   0.341800 0.571600 0.503230 -0.465242
O9    O     O_R   0.658200 0.428400 0.496770 -0.465238
O10   O     O_3   0.626917 0.297257 0.592094 -0.535782

loop_
_geom_bond_atom_site_label_1
_geom_bond_atom_site_label_2
_ccdc_geom_bond_type
C25   H8    S    
Cu2   O7    S    
C21   N2    S    
C2    C4    A    
N1    N2    D    
C12   C15   S    
Cu1   N4    S    
C25   O10   S    
C30   H2    S    
Cu2   N3    S    
C11   C13   S    
C12   O5    A    
C6    N4    A    
C15   C27   A    
C26   H11   S    
C24   C27   A    
C5    N3    A    
C22   H16   S    
C25   H9    S    
C24   H17   S    
C28   C30   A    
Cu1   Cu2   S    
C26   O2    S    
Cu1   O5    S    
N5    N6    D    
C29   C31   A    
C16   C18   A    
C25   H7    S    
C28   N3    A    
C7    O6    A    
C30   C32   A    
C9    C11   T    
C23   H18   S    
C2    N6    S    
C26   H13   S    
C20   N1    S    
C2    C31   A    
Cu2   O4    S    
Cu1   O9    S    
C17   C19   A    
C14   C23   A    
C4    H4    S    
Cu1   O6    S    
C18   C20   A    
C5    H5    S    
C31   H20   S    
C3    C32   A    
C14   C16   A    
C4    C6    A    
C26   H10   S    
C1    O4    A    
C7    C9    S    
C6    H6    S    
C1    O1    A    
C29   N4    A    
C3    H3    S    
C8    O7    A    
Cu1   O1    S    
C29   O10   S    
C21   C24   A    
C16   H12   S    
C15   C17   A    
C12   O3    A    
C8    O9    A    
C19   H14   S    
Cu2   O3    S    
C27   H19   S    
C1    C14   S    
C17   H1    S    
C32   N5    S    
C19   C21   A    
C7    O8    A    
C22   C23   A    
C8    C10   S    
C18   H15   S    
C20   C22   A    
Cu2   O8    S    
C3    C5    A    
C10   C13   T    
C28   O2    S    
