data_mof_unit_50759.cif
_audit_creation_date              2012-12-10T19:11:30-0500
_audit_creation_method            fapswitch 2.2
_symmetry_space_group_name_H-M    P1
_symmetry_Int_Tables_number       1
_space_group_crystal_system       triclinic
_cell_length_a                    10.853259
_cell_length_b                    10.207444
_cell_length_c                    10.562831
_cell_angle_alpha                 89.954506
_cell_angle_beta                  91.687401
_cell_angle_gamma                 90.912111
_cell_volume                      1169.53730689

loop_
_atom_site_label
_atom_site_type_symbol
_atom_type_description
_atom_site_fract_x
_atom_site_fract_y
_atom_site_fract_z
_atom_type_partial_charge
C1    C     C_R   0.258193 0.499305 0.498324 0.881133
C2    C     C_3   0.915464 0.437653 0.384761 -0.410546
C3    C     C_3   0.381930 0.076670 0.550791 0.230968
C4    C     C_3   0.395260 0.919319 0.575139 0.326759
C5    C     C_3   0.529201 0.080039 0.366326 -0.215222
C6    C     C_3   0.497653 0.920834 0.362993 -0.202597
C7    C     C_3   0.599576 0.080665 0.581993 -0.334484
C8    C     C_3   0.611497 0.923542 0.563292 -0.319302
C9    C     C_R   0.489283 0.499911 0.257936 0.960875
C10   C     C_R   0.740503 0.500332 0.509247 0.813710
C11   C     C_R   0.507502 0.500020 0.740004 0.829228
C12   C     C_3   0.480052 0.499976 0.119510 -0.000722
C13   C     C_3   0.459857 0.616493 0.029944 0.156529
C14   C     C_3   0.409025 0.411849 0.023214 0.181491
C15   C     C_3   0.386547 0.529402 0.936314 -0.319438
C16   C     C_3   0.507240 0.499660 0.873829 -0.018062
C17   C     C_3   0.580856 0.590604 0.964069 -0.201187
C18   C     C_3   0.528823 0.379451 0.957604 -0.149515
C19   C     C_3   0.601708 0.470370 0.052095 -0.208170
C20   C     C_2   0.463600 0.138330 0.250893 1.069033
C21   C     C_2   0.373346 0.879408 0.295619 0.878991
C22   C     C_2   0.666471 0.119943 0.335426 0.934671
C23   C     C_3   0.072648 0.630498 0.548435 -0.373639
C24   C     C_2   0.593251 0.858409 0.278909 1.005701
C25   C     C_2   0.063115 0.571133 0.261184 0.911278
C26   C     C_2   0.113033 0.347986 0.303967 0.878044
C27   C     C_3   0.074411 0.394597 0.597406 -0.455225
C28   C     C_3   0.933123 0.639965 0.530717 -0.126576
C29   C     C_3   0.934715 0.412432 0.622538 -0.065962
C30   C     C_3   0.054463 0.464511 0.363214 -0.096778
C31   C     C_3   0.119040 0.497530 0.498633 -0.013403
C32   C     C_3   0.877067 0.498292 0.511790 0.064796
H1    H     H_    0.298593 0.554572 0.886141 0.127899
H2    H     H_    0.690569 0.445659 0.100524 0.191487
H3    H     H_    0.113052 0.711208 0.496580 0.258157
H4    H     H_    0.091012 0.294333 0.561330 0.196938
H5    H     H_    0.100556 0.644490 0.649979 0.140504
H6    H     H_    0.128000 0.405002 0.688512 0.144418
H7    H     H_    0.896249 0.682938 0.618797 0.130232
H8    H     H_    0.927101 0.466827 0.713554 0.127334
H9    H     H_    0.263532 0.191160 0.439688 0.289083
H10   H     H_    0.192813 0.077829 0.513945 0.139994
H11   H     H_    0.215278 0.873993 0.619107 0.139737
H12   H     H_    0.856148 0.472058 0.303955 0.179077
H13   H     H_    0.231628 0.876416 0.464572 0.220939
H14   H     H_    0.325646 0.234530 0.660049 0.231975
H15   H     H_    0.282161 0.091833 0.715556 0.153956
H16   H     H_    0.486717 0.944857 0.763659 0.183657
H17   H     H_    0.401486 0.800012 0.742664 0.228334
H18   H     H_    0.447663 0.127634 0.059326 0.344985
H19   H     H_    0.219038 0.916697 0.189165 0.355182
H20   H     H_    0.847207 0.075130 0.328697 0.375720
H21   H     H_    0.670568 0.847437 0.107635 0.337907
H22   H     H_    0.427712 0.804755 0.980406 0.200874
H23   H     H_    0.894299 0.331202 0.390134 0.269830
H24   H     H_    0.317493 0.734940 0.065688 0.208519
H25   H     H_    0.303959 0.258842 0.958070 0.150777
H26   H     H_    0.226058 0.370225 0.034532 0.225183
H27   H     H_    0.856962 0.685865 0.350994 0.263298
H28   H     H_    0.866685 0.814002 0.456276 0.240494
H29   H     H_    0.794935 0.297772 0.689939 0.181782
H30   H     H_    0.929618 0.224543 0.693817 0.184056
H31   H     H_    0.018949 0.624640 0.081358 0.330247
H32   H     H_    0.104710 0.159430 0.245919 0.380283
H33   H     H_    0.689835 0.128714 0.566593 0.195216
H34   H     H_    0.695643 0.902512 0.513742 0.226610
H35   H     H_    0.585497 0.106359 0.682448 0.173604
H36   H     H_    0.633018 0.873681 0.654449 0.152607
H37   H     H_    0.651180 0.664374 0.936016 0.139431
H38   H     H_    0.558705 0.282475 0.923536 0.168332
N1    N     N_3   0.499750 0.138610 0.497240 -0.117369
N2    N     N_3   0.873570 0.284291 0.636780 -0.436985
N3    N     N_3   0.499750 0.861390 0.497240 -0.102669
N4    N     N_3   0.273987 0.095969 0.465332 -0.444477
N5    N     N_3   0.277364 0.851724 0.548387 -0.407401
N6    N     N_3   0.356306 0.139812 0.673280 -0.458583
N7    N     N_3   0.415863 0.896105 0.713556 -0.488365
N8    N     N_3   0.413064 0.744772 0.058868 -0.384593
N9    N     N_3   0.308234 0.318157 0.038769 -0.354229
N10   N     N_3   0.908426 0.729554 0.424422 -0.396263
O1    O     O_R   0.314910 0.616040 0.499970 -0.549867
O2    O     O_R   0.510970 0.118567 0.130537 -0.772896
O3    O     O_2   0.337244 0.767308 0.306774 -0.540249
O4    O     O_R   0.297548 0.961279 0.222705 -0.803658
O5    O     O_2   0.690002 0.230381 0.296973 -0.599642
O6    O     O_R   0.765112 0.034554 0.352003 -0.843785
O7    O     O_2   0.668686 0.783784 0.322998 -0.617390
O8    O     O_R   0.600627 0.892145 0.151216 -0.782573
O9    O     O_2   0.120345 0.673018 0.279706 -0.608120
O10   O     O_R   0.006420 0.548924 0.142082 -0.836218
O11   O     O_2   0.214890 0.364568 0.261942 -0.599138
O12   O     O_R   0.314910 0.383960 0.499970 -0.658621
O13   O     O_R   0.053518 0.225834 0.291422 -0.827221
O14   O     O_R   0.500080 0.616020 0.313900 -0.562192
O15   O     O_R   0.500080 0.383980 0.313900 -0.561801
O16   O     O_R   0.685320 0.616040 0.499930 -0.594333
O17   O     O_R   0.685320 0.383960 0.499930 -0.591201
O18   O     O_R   0.500150 0.616060 0.686000 -0.646902
O19   O     O_R   0.500150 0.383940 0.686000 -0.644320
O20   O     O_2   0.366592 0.192934 0.258746 -0.535380
Zn1   Zn    Zn3+2 0.500150 0.654960 0.499940 0.994945
Zn2   Zn    Zn3+2 0.500150 0.345040 0.499940 0.970457

loop_
_geom_bond_atom_site_label_1
_geom_bond_atom_site_label_2
_ccdc_geom_bond_type
C18   H38   S    
C8    H34   S    
C20   O2    S    
C27   C29   S    
C14   C18   S    
H14   N6    S    
C7    C8    S    
C5    C20   S    
O1    Zn1   S    
C17   H37   S    
C25   O10   S    
C11   O18   A    
C2    C32   S    
H15   N6    S    
C29   C32   S    
C2    H23   S    
C7    N1    S    
C30   C31   S    
C27   H6    S    
C1    O1    A    
C15   C16   S    
C1    C31   S    
H24   N8    S    
C12   C19   S    
C11   O19   A    
C18   C19   S    
C22   O5    D    
C3    N4    S    
H25   N9    S    
C4    N5    S    
H9    N4    S    
C5    C22   S    
C21   O3    D    
O14   Zn1   S    
C2    H12   S    
C16   C17   S    
H13   N5    S    
C9    O15   A    
O17   Zn2   S    
O15   Zn2   S    
O12   Zn2   S    
C29   N2    S    
C26   O13   S    
N3    Zn1   S    
O16   Zn1   S    
C9    C12   S    
H11   N5    S    
H10   N4    S    
C27   C31   S    
C28   C32   S    
C28   H7    S    
C26   O11   D    
C14   N9    S    
C6    C21   S    
C23   C31   S    
H16   N7    S    
C10   O17   A    
C3    N1    S    
C7    H33   S    
C11   C16   S    
C20   O20   D    
C21   O4    S    
C10   O16   A    
C6    C24   S    
H30   N2    S    
C23   C28   S    
C3    N6    S    
C24   O8    S    
C4    N3    S    
H26   N9    S    
H29   N2    S    
N1    Zn2   S    
C12   C14   S    
C8    H36   S    
C1    O12   A    
C23   H3    S    
C13   C15   S    
C3    C4    S    
H18   O2    S    
C6    N3    S    
C25   C30   S    
C13   N8    S    
H28   N10   S    
C19   H2    S    
H27   N10   S    
H32   O13   S    
C26   C30   S    
C27   H4    S    
O18   Zn1   S    
C25   O9    D    
C13   C17   S    
C2    C30   S    
H20   O6    S    
C4    N7    S    
C5    N1    S    
C23   H5    S    
C5    C6    S    
C9    O14   A    
H31   O10   S    
C8    N3    S    
C17   C19   S    
H17   N7    S    
H21   O8    S    
C22   O6    S    
C28   N10   S    
C24   O7    D    
C7    H35   S    
C10   C32   S    
O19   Zn2   S    
C12   C13   S    
C16   C18   S    
C14   C15   S    
C29   H8    S    
H19   O4    S    
C15   H1    S    
H22   N8    S    
