data_mof_unit_9469.cif
_audit_creation_date              2012-10-26T21:02:27-0400
_audit_creation_method            fapswitch 2.2
_symmetry_space_group_name_H-M    P1
_symmetry_Int_Tables_number       1
_space_group_crystal_system       triclinic
_cell_length_a                    12.336791
_cell_length_b                    13.152347
_cell_length_c                    15.07174
_cell_angle_alpha                 75.970161
_cell_angle_beta                  101.90643
_cell_angle_gamma                 117.371787
_cell_volume                      2094.12077495

loop_
_atom_site_label
_atom_site_type_symbol
_atom_type_description
_atom_site_fract_x
_atom_site_fract_y
_atom_site_fract_z
_atom_type_partial_charge
Br1   Br    Br    0.463498 0.274348 0.260264 -0.453286
Br2   Br    Br    0.883979 0.730218 0.295459 -0.448363
Br3   Br    Br    0.568921 0.267418 0.547759 -0.559825
Br4   Br    Br    0.155346 0.262439 0.970746 -0.523722
C1    C     C_R   0.855227 0.285636 0.507728 0.541601
C2    C     C_R   0.047231 0.431590 0.835366 -0.117865
C3    C     C_R   0.001444 0.500051 0.767817 -0.045724
C4    C     C_R   0.000716 0.500425 0.671044 0.523100
C5    C     C_R   0.953542 0.565859 0.792334 -0.114418
C6    C     C_R   0.287674 0.031713 0.374180 -0.071320
C7    C     C_R   0.233749 0.838681 0.464539 -0.001586
C8    C     C_R   0.816170 0.078042 0.567647 0.282342
C9    C     C_R   0.742838 0.958806 0.570433 0.279182
C10   C     C_R   0.620770 0.921675 0.529578 -0.163072
C11   C     C_R   0.576373 0.002543 0.477615 -0.011089
C12   C     C_R   0.948529 0.560419 0.071388 -0.029325
C13   C     C_R   0.661535 0.119279 0.455310 -0.045967
C14   C     C_R   0.449712 0.972859 0.450252 0.013335
C15   C     C_R   0.412885 0.055566 0.390168 0.033934
C16   C     C_R   0.146340 0.714945 0.486129 0.565394
C17   C     C_R   0.502955 0.161890 0.350801 0.189821
C18   C     C_R   0.626427 0.192701 0.383152 -0.046005
C19   C     C_R   0.358733 0.865949 0.486358 -0.177583
C20   C     C_R   0.198815 0.926265 0.414693 0.265182
C21   C     C_R   0.777241 0.159849 0.508505 -0.042909
C22   C     C_R   0.370389 0.370240 0.673155 0.269555
C23   C     C_R   0.085189 0.354419 0.089886 -0.062651
C24   C     C_R   0.753680 0.644278 0.371515 0.329862
C25   C     C_R   0.655588 0.673859 0.344880 -0.114414
C26   C     C_R   0.556041 0.621458 0.394713 -0.147678
C27   C     C_R   0.552630 0.537688 0.473062 -0.031848
C28   C     C_R   0.997801 0.496949 0.329085 0.554157
C29   C     C_R   0.654226 0.507781 0.498921 0.139124
C30   C     C_R   0.452474 0.483871 0.527929 -0.085579
C31   C     C_R   0.468301 0.423186 0.617670 0.042091
C32   C     C_R   0.578217 0.409653 0.646697 0.268650
C33   C     C_R   0.645413 0.420614 0.576898 0.162148
C34   C     C_R   0.088873 0.357050 0.997559 0.149450
C35   C     C_R   0.338448 0.490129 0.497950 0.046760
C36   C     C_R   0.260529 0.379790 0.638840 0.064464
C37   C     C_R   0.947349 0.557561 0.164180 -0.144823
C38   C     C_R   0.993154 0.490192 0.232740 -0.014363
C39   C     C_R   0.034920 0.417970 0.208842 0.260297
C40   C     C_R   0.038125 0.420743 0.115502 0.002656
C41   C     C_R   0.994093 0.491588 0.046743 -0.047650
C42   C     C_3   0.914065 0.122675 0.707424 -0.074452
C43   C     C_3   0.756576 0.785730 0.581639 -0.120557
C44   C     C_3   0.676985 0.310821 0.759027 -0.088361
C45   C     C_R   0.044743 0.427071 0.928572 0.034139
C46   C     C_3   0.321464 0.190497 0.758682 -0.064586
C47   C     C_3   0.975834 0.241106 0.300563 -0.089264
C48   C     C_3   0.735090 0.648362 0.827663 -0.080152
C49   C     C_3   0.962874 0.814057 0.029995 -0.065691
C50   C     C_3   0.059081 0.956503 0.467523 -0.082382
C51   C     C_R   0.996607 0.494314 0.953395 -0.021476
C52   C     C_R   0.951097 0.564366 0.884823 -0.010438
C53   C     C_R   0.904077 0.631694 0.909766 0.278116
C54   C     C_R   0.907568 0.633316 0.003124 0.287987
Cu1   Cu    Cu3+1 0.098270 0.475420 0.521130 0.974347
Cu2   Cu    Cu3+1 0.901730 0.524580 0.478870 1.027601
H1    H     H_    0.913062 0.610211 0.183331 0.222077
H2    H     H_    0.120055 0.300312 0.141611 0.201419
H3    H     H_    0.082427 0.380499 0.814248 0.166988
H4    H     H_    0.918834 0.618669 0.738866 0.165941
H5    H     H_    0.852947 0.036867 0.744447 0.159111
H6    H     H_    0.877963 0.187669 0.702568 0.096708
H7    H     H_    0.004951 0.152676 0.749107 0.144073
H8    H     H_    0.758548 0.809477 0.505654 0.109628
H9    H     H_    0.665035 0.716653 0.599079 0.105907
H10   H     H_    0.824004 0.748896 0.609489 0.156492
H11   H     H_    0.759587 0.353906 0.721908 0.132194
H12   H     H_    0.257469 0.095305 0.332325 0.184063
H13   H     H_    0.618903 0.221654 0.743758 0.158688
H14   H     H_    0.709469 0.302504 0.833594 0.143003
H15   H     H_    0.336067 0.143063 0.828288 0.166324
H16   H     H_    0.360181 0.167332 0.710193 0.142095
H17   H     H_    0.220715 0.160649 0.740365 0.114527
H18   H     H_    0.008811 0.186069 0.356313 0.155904
H19   H     H_    0.933551 0.193794 0.241225 0.115632
H20   H     H_    0.905400 0.252957 0.327152 0.099263
H21   H     H_    0.704490 0.570227 0.796119 0.160365
H22   H     H_    0.702684 0.709077 0.778706 0.168563
H23   H     H_    0.383048 0.802066 0.533676 0.136400
H24   H     H_    0.691214 0.624658 0.891777 0.178892
H25   H     H_    0.040760 0.810462 0.081241 0.125155
H26   H     H_    0.929739 0.868815 0.051568 0.178993
H27   H     H_    0.995040 0.856862 0.960946 0.159038
H28   H     H_    0.962951 0.945779 0.454857 0.151711
H29   H     H_    0.119743 0.051276 0.462125 0.123404
H30   H     H_    0.072562 0.910439 0.538270 0.130739
H31   H     H_    0.562749 0.829744 0.538851 0.106182
H32   H     H_    0.693597 0.277046 0.354865 0.163037
H33   H     H_    0.187010 0.342579 0.682125 0.146575
H34   H     H_    0.321065 0.536089 0.431165 0.151382
H35   H     H_    0.485476 0.651781 0.372567 0.112452
H36   H     H_    0.657350 0.739967 0.285366 0.145138
N1    N     N_R   0.246280 0.438190 0.553160 -0.266877
N2    N     N_R   0.754320 0.561190 0.447410 -0.222544
O1    O     O_R   0.972510 0.318130 0.526570 -0.459747
O2    O     O_3   0.789273 0.882280 0.623929 -0.540837
O3    O     O_3   0.607145 0.375106 0.740343 -0.539873
O4    O     O_3   0.381477 0.310687 0.761187 -0.505741
O5    O     O_3   0.076899 0.348113 0.276584 -0.546783
O6    O     O_3   0.864302 0.704036 0.843168 -0.567775
O7    O     O_3   0.865056 0.702604 0.027227 -0.553251
O8    O     O_3   0.077860 0.908343 0.401327 -0.521043
O9    O     O_R   0.806530 0.359650 0.490890 -0.468448
O10   O     O_R   0.082980 0.479210 0.647590 -0.513335
O11   O     O_R   0.917000 0.520730 0.611900 -0.525415
O12   O     O_R   0.193470 0.640350 0.509110 -0.526637
O13   O     O_R   0.027490 0.681870 0.473430 -0.427513
O14   O     O_R   0.083000 0.479270 0.388100 -0.463134
O15   O     O_R   0.917020 0.520790 0.352410 -0.478673
O16   O     O_3   0.929499 0.113856 0.619810 -0.537303

loop_
_geom_bond_atom_site_label_1
_geom_bond_atom_site_label_2
_ccdc_geom_bond_type
C11   C14   A    
C51   C52   A    
Br1   C17   S    
C5    H4    S    
Cu1   O1    S    
C37   C38   A    
C31   C32   A    
C37   H1    S    
C36   H33   S    
C3    C4    S    
C43   H10   S    
C34   C45   A    
C26   H35   S    
C19   H23   S    
C32   C33   A    
C15   C17   A    
C42   H6    S    
Cu2   N2    S    
C26   C27   A    
C30   C31   A    
C35   N1    A    
C23   C34   A    
C47   O5    S    
C7    C20   A    
Cu1   O12   S    
C52   C53   A    
C11   C13   A    
C29   N2    A    
C48   H24   S    
C47   H20   S    
C43   H9    S    
Cu2   O11   S    
C23   C40   A    
C48   O6    S    
C1    O1    A    
C27   C29   A    
C49   H26   S    
C28   O15   A    
Cu1   Cu2   S    
C17   C18   A    
Cu2   O15   S    
C4    O10   A    
C8    O16   S    
C7    C16   S    
C50   O8    S    
C30   C35   A    
C44   H14   S    
C42   H5    S    
C36   N1    A    
C42   O16   S    
C14   C15   A    
C6    C20   A    
C45   C51   A    
C29   C33   A    
C43   O2    S    
C14   C19   A    
C32   O3    S    
C2    H3    S    
C39   C40   A    
C35   H34   S    
C25   C26   A    
C23   H2    S    
C46   H16   S    
C16   O13   A    
C6    C15   A    
Cu1   O14   S    
C27   C30   A    
C49   H27   S    
C5    C52   A    
C12   C54   A    
C48   H22   S    
C47   H19   S    
Br3   C33   S    
Cu2   O9    S    
C4    O11   A    
C50   H29   S    
C1    C21   S    
Br4   C34   S    
C46   O4    S    
Cu1   N1    S    
C16   O12   A    
C20   O8    S    
C38   C39   A    
C44   H11   S    
C46   H17   S    
C43   H8    S    
C40   C41   A    
C1    O9    A    
C24   N2    A    
C3    C5    A    
C53   O6    S    
C24   C25   A    
C28   C38   S    
C28   O14   A    
C44   H13   S    
C13   C18   A    
C12   C41   A    
C25   H36   S    
C49   H25   S    
C50   H30   S    
C2    C3    A    
Cu1   O10   S    
C8    C21   A    
C54   O7    S    
C13   C21   A    
C9    O2    S    
C47   H18   S    
C42   H7    S    
Cu2   O13   S    
C46   H15   S    
C22   O4    S    
C50   H28   S    
C22   C36   A    
C53   C54   A    
C44   O3    S    
C7    C19   A    
C2    C45   A    
C48   H21   S    
C39   O5    S    
C10   H31   S    
C49   O7    S    
C22   C31   A    
C8    C9    A    
C41   C51   A    
C18   H32   S    
C10   C11   A    
Br2   C24   S    
C9    C10   A    
C12   C37   A    
C6    H12   S    
