data_mof_unit_63888.cif
_audit_creation_date              2012-12-10T19:54:20-0500
_audit_creation_method            fapswitch 2.2
_symmetry_space_group_name_H-M    P1
_symmetry_Int_Tables_number       1
_space_group_crystal_system       triclinic
_cell_length_a                    15.771905
_cell_length_b                    14.992358
_cell_length_c                    14.28361
_cell_angle_alpha                 90.119082
_cell_angle_beta                  90.00718
_cell_angle_gamma                 91.753881
_cell_volume                      3375.88488094

loop_
_atom_site_label
_atom_site_type_symbol
_atom_type_description
_atom_site_fract_x
_atom_site_fract_y
_atom_site_fract_z
_atom_type_partial_charge
C1    C     C_R   0.500225 0.327943 0.499846 1.055159
C2    C     C_R   0.500478 0.672076 0.500060 1.056419
C3    C     C_R   0.458566 0.183323 0.568570 0.484357
C4    C     C_R   0.458311 0.813281 0.430277 0.519169
C5    C     C_R   0.502203 0.232009 0.499197 -0.468397
C6    C     C_R   0.502284 0.768136 0.500004 -0.473544
C7    C     C_R   0.547996 0.188708 0.429082 0.484127
C8    C     C_R   0.548849 0.815110 0.568931 0.462249
C9    C     C_R   0.550094 0.095628 0.428335 0.383689
C10   C     C_R   0.551150 0.908295 0.568443 0.393641
C11   C     C_R   0.505775 0.048170 0.498177 -0.126489
C12   C     C_R   0.506228 0.952202 0.498556 -0.129301
C13   C     C_R   0.464738 0.428805 0.104363 -0.199546
C14   C     C_R   0.567830 0.536559 0.895674 -0.197547
C15   C     C_R   0.461635 0.430949 0.202784 0.498523
C16   C     C_R   0.565837 0.539874 0.797269 0.480969
C17   C     C_R   0.538253 0.569470 0.203574 0.412981
C18   C     C_R   0.433705 0.460228 0.796524 0.398077
C19   C     C_R   0.534801 0.572771 0.105049 0.614751
C20   C     C_R   0.430583 0.463816 0.895074 0.620247
C21   C     C_R   0.499487 0.500900 0.053127 -0.125047
C22   C     C_R   0.499093 0.500472 0.946959 -0.118601
C23   C     C_R   0.338136 0.499751 0.499979 0.888622
C24   C     C_R   0.661864 0.500249 0.500030 0.889506
C25   C     C_3   0.969654 0.424477 0.537781 0.228067
C26   C     C_3   0.030342 0.575494 0.462482 0.226196
C27   C     C_3   0.025582 0.429796 0.449451 0.538704
C28   C     C_3   0.974412 0.570175 0.550813 0.536551
C29   C     C_1   0.249524 0.499493 0.499956 -0.058165
C30   C     C_1   0.750475 0.500494 0.500112 -0.067638
C31   C     C_3   0.027776 0.493397 0.587707 0.231908
C32   C     C_3   0.972224 0.506574 0.412557 0.226770
C33   C     C_3   0.083938 0.499280 0.499786 -0.236210
C34   C     C_3   0.916059 0.500691 0.500474 -0.234267
C35   C     C_1   0.174480 0.499321 0.499890 0.257175
C36   C     C_1   0.825518 0.500656 0.500281 0.250307
C37   C     C_R   0.460256 0.091388 0.567823 0.613644
C38   C     C_R   0.460186 0.905360 0.429798 0.606527
H1    H     H_    0.438127 0.370776 0.068529 0.263546
H2    H     H_    0.623150 0.564160 0.931465 0.259476
N1    N     N_R   0.500000 0.499980 0.252470 -0.245397
N2    N     N_R   0.500000 0.500020 0.747530 -0.253092
O1    O     O_R   0.500010 0.369070 0.579480 -0.614288
O2    O     O_R   0.499990 0.630930 0.420520 -0.574607
O3    O     O_R   0.500010 0.369060 0.420520 -0.568818
O4    O     O_R   0.499990 0.630940 0.579480 -0.601034
O5    O     O_R   0.376780 0.500000 0.579460 -0.605156
O6    O     O_R   0.623220 0.500000 0.420540 -0.634194
O7    O     O_R   0.376780 0.499990 0.420510 -0.633439
O8    O     O_R   0.623220 0.500010 0.579490 -0.611046
Zn1   Zn    Zn3+2 0.500000 0.500010 0.606140 1.033538
Zn2   Zn    Zn3+2 0.500000 0.499990 0.393860 1.044621
F1    F     F_    0.052379 0.357971 0.397599 -0.562154
F2    F     F_    0.947607 0.641997 0.602664 -0.557842
O9    O     O_3   0.581378 0.638099 0.248357 -0.632383
H3    H     H_    0.605871 0.613395 0.305805 0.366843
O10   O     O_3   0.368197 0.415323 0.751831 -0.615406
H4    H     H_    0.391506 0.389743 0.694137 0.402060
F3    F     F_    0.566580 0.646743 0.061142 -0.570298
F4    F     F_    0.360076 0.430824 0.939038 -0.571335
O11   O     O_3   0.936050 0.346115 0.577850 -0.648026
H5    H     H_    0.985849 0.310789 0.594849 0.391059
O12   O     O_3   0.063945 0.653856 0.422412 -0.637098
H6    H     H_    0.014145 0.689186 0.405424 0.388804
O13   O     O_3   0.941318 0.514307 0.321317 -0.649598
H7    H     H_    0.992299 0.516717 0.280732 0.388923
O14   O     O_3   0.058693 0.485661 0.678944 -0.629380
H8    H     H_    0.007716 0.483252 0.719535 0.388247
F5    F     F_    0.416727 0.044048 0.634166 -0.542110
F6    F     F_    0.416134 0.949229 0.363370 -0.536948
F7    F     F_    0.412563 0.224508 0.635394 -0.571283
F8    F     F_    0.411873 0.768310 0.364295 -0.537515
F9    F     F_    0.591985 0.236903 0.363632 -0.597242
F10   F     F_    0.593475 0.770545 0.634353 -0.619449
O15   O     O_3   0.595013 0.049316 0.361855 -0.656945
H9    H     H_    0.622236 0.091950 0.317410 0.410218
O16   O     O_3   0.596701 0.958168 0.633908 -0.663652
H10   H     H_    0.624260 0.917761 0.678587 0.413820
O17   O     O_3   0.418402 0.361985 0.246540 -0.663758
H11   H     H_    0.394999 0.385862 0.305057 0.375364
O18   O     O_3   0.631649 0.584971 0.753595 -0.658433
H12   H     H_    0.609103 0.609340 0.695037 0.411829

loop_
_geom_bond_atom_site_label_1
_geom_bond_atom_site_label_2
_ccdc_geom_bond_type
C25   C31   S    
O9    H3    S    
C38   F6    S    
C26   C32   S    
C37   F5    S    
C26   O12   S    
O1    Zn1   S    
O18   H12   S    
C7    F9    S    
O16   H10   S    
C2    O4    A    
C31   O14   S    
C1    C5    S    
C23   C29   S    
C19   C21   A    
C18   N2    A    
C23   O7    A    
C25   C34   S    
C11   C37   A    
C26   C33   S    
C17   C19   A    
C1    O1    A    
C15   O17   S    
C2    O2    A    
C31   C33   S    
C20   F4    S    
C17   O9    S    
N1    Zn2   S    
C34   C36   S    
N2    Zn1   S    
O2    Zn2   S    
C28   C34   S    
C21   C22   S    
C2    C6    S    
C10   O16   S    
C17   N1    A    
C24   O8    A    
C23   O5    A    
O14   H8    S    
C24   O6    A    
C15   N1    A    
C4    C6    A    
C5    C7    A    
C28   F2    S    
O5    Zn1   S    
O3    Zn2   S    
C19   F3    S    
O4    Zn1   S    
C27   C33   S    
O12   H6    S    
C32   C34   S    
C3    F7    S    
O15   H9    S    
C18   O10   S    
O7    Zn2   S    
C8    F10   S    
O8    Zn1   S    
C13   C21   A    
C25   O11   S    
C9    C11   A    
C10   C12   A    
C4    C38   A    
C13   C15   A    
C14   C16   A    
C16   N2    A    
C4    F8    S    
C7    C9    A    
C27   C32   S    
C28   C31   S    
C20   C22   A    
C3    C5    A    
C6    C8    A    
C11   C12   S    
C27   F1    S    
C25   C27   S    
C29   C35   T    
C26   C28   S    
C30   C36   T    
C14   C22   A    
C1    O3    A    
O10   H4    S    
C16   O18   S    
C33   C35   S    
C18   C20   A    
C12   C38   A    
O11   H5    S    
C24   C30   S    
C13   H1    S    
C14   H2    S    
O17   H11   S    
O6    Zn2   S    
C3    C37   A    
C8    C10   A    
O13   H7    S    
C9    O15   S    
C32   O13   S    
