data_mof_unit_64904.cif
_audit_creation_date              2012-12-10T18:24:14-0500
_audit_creation_method            fapswitch 2.2
_symmetry_space_group_name_H-M    P1
_symmetry_Int_Tables_number       1
_space_group_crystal_system       triclinic
_cell_length_a                    16.108619
_cell_length_b                    16.114698
_cell_length_c                    16.08883
_cell_angle_alpha                 95.907785
_cell_angle_beta                  84.369996
_cell_angle_gamma                 90.072147
_cell_volume                      4134.04159626

loop_
_atom_site_label
_atom_site_type_symbol
_atom_type_description
_atom_site_fract_x
_atom_site_fract_y
_atom_site_fract_z
_atom_type_partial_charge
C1    C     C_R   0.510684 0.724199 0.510829 0.514878
C2    C     C_1   0.487713 0.186521 0.482885 0.050893
C3    C     C_1   0.515850 0.482283 0.184666 0.005774
C4    C     C_R   0.489315 0.275830 0.489321 0.509936
C5    C     C_2   0.526373 0.469193 0.018364 -0.005610
C6    C     C_2   0.488088 0.527166 0.980407 -0.122176
C7    C     C_1   0.486575 0.522523 0.890429 -0.039982
C8    C     C_1   0.520417 0.476633 0.109049 -0.053849
C9    C     C_1   0.486854 0.517926 0.815155 0.022161
C10   C     C_R   0.510695 0.488194 0.274600 0.506874
C11   C     C_R   0.489238 0.511831 0.725414 0.510795
C12   C     C_1   0.111497 0.522630 0.523892 -0.033763
C13   C     C_R   0.724212 0.487974 0.488017 0.514428
C14   C     C_R   0.275770 0.511945 0.511907 0.510918
C15   C     C_1   0.813422 0.484519 0.484572 0.063584
C16   C     C_2   0.978144 0.480911 0.480746 -0.140045
C17   C     C_2   0.021576 0.530865 0.533156 0.049195
C18   C     C_2   0.982838 0.594096 0.600124 0.604524
C19   C     C_R   0.447221 0.977884 0.400123 0.022835
C20   C     C_R   0.363577 0.996990 0.391533 -0.084402
C21   C     C_R   0.323509 0.957067 0.325397 -0.101936
C22   C     C_R   0.366683 0.898281 0.267052 -0.097038
C23   C     C_1   0.888401 0.482579 0.482577 0.020633
C24   C     C_R   0.450129 0.879570 0.274511 -0.105994
C25   C     C_R   0.490476 0.919399 0.340476 -0.088695
C26   C     C_2   0.572596 0.019500 0.595064 0.587763
C27   C     C_R   0.573047 0.396726 0.971181 0.055096
C28   C     C_R   0.555648 0.315545 0.992249 -0.087380
C29   C     C_R   0.599329 0.247083 0.948313 -0.104913
C30   C     C_R   0.661115 0.259058 0.883509 -0.093102
C31   C     C_R   0.679708 0.339574 0.862857 -0.099816
C32   C     C_R   0.636272 0.408224 0.906674 -0.077627
C33   C     C_1   0.186506 0.516990 0.517540 0.027032
C34   C     C_1   0.515845 0.813319 0.516246 0.030257
C35   C     C_2   0.526758 0.978383 0.525768 0.042693
C36   C     C_2   0.489828 0.021117 0.470129 -0.037291
C37   C     C_1   0.488151 0.111377 0.477378 0.010225
C38   C     C_1   0.520581 0.888241 0.520759 -0.026467
H1    H     H_    0.011341 0.436452 0.433714 0.111828
H2    H     H_    0.507693 0.305181 0.042082 0.117166
H3    H     H_    0.585207 0.184702 0.964473 0.122951
H4    H     H_    0.694802 0.205986 0.849524 0.125616
H5    H     H_    0.728005 0.348844 0.813059 0.126408
H6    H     H_    0.652376 0.470274 0.890681 0.121307
H7    H     H_    0.454732 0.578814 0.018013 0.126643
H8    H     H_    0.878917 0.649917 0.661324 0.344863
H9    H     H_    0.329265 0.042273 0.436394 0.114598
H10   H     H_    0.258954 0.971711 0.319388 0.117873
H11   H     H_    0.335560 0.867437 0.215914 0.117079
H12   H     H_    0.483652 0.834377 0.229013 0.116898
H13   H     H_    0.555449 0.904963 0.344870 0.118137
H14   H     H_    0.630695 0.121334 0.644727 0.342534
O1    O     O_3   0.500000 0.500000 0.500000 -0.444737
O2    O     O_R   0.689040 0.536050 0.444000 -0.532417
O3    O     O_R   0.315570 0.560650 0.560630 -0.522976
O4    O     O_R   0.679800 0.444450 0.536560 -0.534368
O5    O     O_R   0.315590 0.458850 0.458810 -0.540852
O6    O     O_2   0.027652 0.637199 0.643894 -0.496602
O7    O     O_R   0.896298 0.604996 0.613965 -0.697303
O8    O     O_2   0.587856 0.979989 0.652855 -0.503528
O9    O     O_R   0.600288 0.101722 0.594099 -0.693063
O10   O     O_R   0.458170 0.444480 0.314880 -0.536020
O11   O     O_R   0.445130 0.560630 0.690220 -0.529428
O12   O     O_R   0.559450 0.679320 0.457680 -0.536759
O13   O     O_R   0.537250 0.315570 0.537220 -0.517981
O14   O     O_R   0.458120 0.689530 0.559970 -0.527097
O15   O     O_R   0.445170 0.315580 0.445130 -0.545181
O16   O     O_R   0.559480 0.536070 0.314410 -0.535926
O17   O     O_R   0.537220 0.458810 0.680490 -0.534848
Zn1   Zn    Zn3+2 0.430930 0.430930 0.430910 0.946899
Zn2   Zn    Zn3+2 0.575680 0.561790 0.430230 0.958305
Zn3   Zn    Zn3+2 0.562480 0.430910 0.562480 0.966258
Zn4   Zn    Zn3+2 0.430910 0.576380 0.576380 0.973321

loop_
_geom_bond_atom_site_label_1
_geom_bond_atom_site_label_2
_ccdc_geom_bond_type
C12   C17   S    
C19   C20   A    
O17   Zn3   S    
C2    C4    S    
C11   O17   A    
O16   Zn2   S    
C6    C7    S    
C6    H7    S    
C10   O16   A    
H8    O7    S    
C5    C8    S    
O13   Zn3   S    
C26   C35   S    
C35   C36   D    
O14   Zn4   S    
C30   C31   A    
H14   O9    S    
C13   O4    A    
C21   H10   S    
C14   C33   S    
C15   C23   T    
C14   O3    A    
C32   H6    S    
C3    C10   S    
C5    C27   S    
C21   C22   A    
C24   C25   A    
C9    C11   S    
C2    C37   T    
C10   O10   A    
C31   H5    S    
C12   C33   T    
C22   H11   S    
O1    Zn1   S    
C28   C29   A    
C26   O9    S    
C1    C34   S    
C1    O14   A    
C16   C23   S    
C11   O11   A    
C19   C36   S    
C13   C15   S    
C24   H12   S    
C5    C6    D    
C19   C25   A    
C22   C24   A    
C25   H13   S    
C3    C8    T    
C20   H9    S    
C28   H2    S    
C16   H1    S    
C29   C30   A    
O3    Zn4   S    
C1    O12   A    
C18   O7    S    
C35   C38   S    
C20   C21   A    
O10   Zn1   S    
C17   C18   S    
C13   O2    A    
O12   Zn2   S    
C27   C28   A    
C7    C9    T    
C14   O5    A    
O1    Zn4   S    
C4    O13   A    
C36   C37   S    
O11   Zn4   S    
O15   Zn1   S    
C29   H3    S    
C27   C32   A    
C34   C38   T    
O1    Zn3   S    
C26   O8    D    
C18   O6    D    
C30   H4    S    
O2    Zn2   S    
C31   C32   A    
O5    Zn1   S    
C16   C17   D    
O4    Zn3   S    
C4    O15   A    
O1    Zn2   S    
