data_mof_unit_16646.cif
_audit_creation_date              2012-12-11T15:59:35-0500
_audit_creation_method            fapswitch 2.2
_symmetry_space_group_name_H-M    P1
_symmetry_Int_Tables_number       1
_space_group_crystal_system       triclinic
_cell_length_a                    10.750243
_cell_length_b                    10.709463
_cell_length_c                    17.091501
_cell_angle_alpha                 99.778612
_cell_angle_beta                  99.530615
_cell_angle_gamma                 60.6696
_cell_volume                      1682.77532865

loop_
_atom_site_label
_atom_site_type_symbol
_atom_type_description
_atom_site_fract_x
_atom_site_fract_y
_atom_site_fract_z
_atom_type_partial_charge
C1    C     C_R   0.355085 0.777336 0.401681 0.543612
C2    C     C_R   0.813589 0.235903 0.193413 -0.003793
C3    C     C_R   0.825959 0.219220 0.274820 -0.008494
C4    C     C_R   0.925655 0.384738 0.310967 0.209686
C5    C     C_R   0.929426 0.386862 0.230784 -0.081518
C6    C     C_R   0.753857 0.162850 0.136313 -0.085383
C7    C     C_R   0.725055 0.061337 0.158653 -0.102801
C8    C     C_R   0.752368 0.033696 0.237774 -0.123570
C9    C     C_R   0.804147 0.109547 0.295246 -0.085943
C10   C     C_R   0.858299 0.313882 0.333022 -0.017656
C11   C     C_R   0.317693 0.861432 0.168587 0.007787
C12   C     C_R   0.369756 0.346080 0.357471 0.586917
C13   C     C_R   0.453539 0.812172 0.211436 0.017919
C14   C     C_R   0.462680 0.819238 0.295265 0.030401
C15   C     C_R   0.206172 0.899163 0.288285 -0.157602
C16   C     C_R   0.194950 0.908530 0.208392 -0.140565
C17   C     C_R   0.579902 0.755704 0.173159 -0.100258
C18   C     C_R   0.711070 0.720568 0.217631 -0.138221
C19   C     C_R   0.717919 0.744545 0.300408 -0.113080
C20   C     C_R   0.594926 0.796010 0.339015 -0.061675
C21   C     C_R   0.339721 0.845923 0.331423 -0.001233
C22   C     C_R   0.299570 0.275716 0.799334 -0.008977
C23   C     C_R   0.781421 0.371955 0.405130 0.538794
C24   C     C_R   0.427195 0.176464 0.763197 0.036088
C25   C     C_R   0.478310 0.226974 0.712760 0.037191
C26   C     C_R   0.246297 0.444683 0.705789 -0.146619
C27   C     C_R   0.208766 0.408305 0.768980 -0.149371
C28   C     C_R   0.509707 0.030633 0.779211 -0.086750
C29   C     C_R   0.648984 0.946461 0.757688 -0.110649
C30   C     C_R   0.708854 0.006442 0.720192 -0.112632
C31   C     C_R   0.624567 0.145458 0.698051 -0.081913
C32   C     C_R   0.380030 0.354075 0.676411 -0.003911
C33   C     C_1   0.845337 0.329244 0.705582 -0.060317
C34   C     C_R   0.357929 0.769244 0.627416 0.543872
C35   C     C_1   0.891919 0.294135 0.772039 -0.054355
C36   C     C_1   0.338850 0.809506 0.709429 -0.053504
C37   C     C_1   0.313130 0.837128 0.777511 -0.062094
C38   C     C_R   0.898381 0.307972 0.090348 0.540247
C39   C     C_R   0.318840 0.300217 0.120151 0.565091
C40   C     C_R   0.291335 0.895611 0.086994 0.542297
C41   C     C_R   0.942431 0.273587 0.854275 0.540624
C42   C     C_R   0.279358 0.252330 0.877159 0.528045
C43   C     C_R   0.279192 0.884326 0.857322 0.537000
C44   C     C_R   0.407053 0.375772 0.600019 0.544689
C45   C     C_R   0.777345 0.378577 0.629165 0.535692
C46   C     C_1   0.343177 0.335877 0.274182 -0.015978
C47   C     C_1   0.331035 0.326755 0.203442 -0.034131
C48   C     C_R   0.866411 0.320817 0.171616 -0.041708
Cr1   Cr    Cr6+3 0.608100 0.610860 0.522250 1.019909
Cr2   Cr    Cr6+3 0.288890 0.599990 0.488420 1.038777
Cr3   Cr    Cr6+3 0.603040 0.289190 0.489390 0.997354
Cr4   Cr    Cr6+3 0.053960 0.052250 0.967380 1.018472
Cr5   Cr    Cr6+3 0.059890 0.373160 0.992710 1.014048
Cr6   Cr    Cr6+3 0.373370 0.061690 0.991710 0.991876
H1    H     H_    0.806540 0.681200 0.187647 0.124870
H2    H     H_    0.818378 0.726258 0.334725 0.159502
H3    H     H_    0.604658 0.821677 0.402868 0.143353
H4    H     H_    0.170917 0.543790 0.680124 0.145587
H5    H     H_    0.468471 0.981298 0.809477 0.151918
H6    H     H_    0.109369 0.484179 0.794368 0.143822
H7    H     H_    0.711625 0.836434 0.772383 0.122621
H8    H     H_    0.819281 0.944357 0.706479 0.119226
H9    H     H_    0.674609 0.187702 0.669025 0.153968
H10   H     H_    0.729604 0.182702 0.074242 0.139998
H11   H     H_    0.985364 0.438689 0.214973 0.157547
H12   H     H_    0.684097 0.002006 0.114360 0.138690
H13   H     H_    0.732010 0.954711 0.255309 0.128615
H14   H     H_    0.831152 0.077718 0.355062 0.132502
H15   H     H_    0.110951 0.925121 0.315368 0.135151
H16   H     H_    0.578973 0.736765 0.108931 0.133453
H17   H     H_    0.087922 0.952564 0.177725 0.162135
O1    O     O_R   0.749810 0.499790 0.438040 -0.492757
O2    O     O_R   0.298970 0.468800 0.557390 -0.494305
O3    O     O_R   0.489400 0.255930 0.561910 -0.519269
O4    O     O_R   0.723890 0.306050 0.584610 -0.538149
O5    O     O_3   0.500010 0.500010 0.500020 -0.268300
O6    O     O_R   0.171100 0.914680 0.053100 -0.517835
O7    O     O_R   0.941680 0.184840 0.050710 -0.499738
O8    O     O_R   0.922080 0.403420 0.072610 -0.525956
O9    O     O_R   0.196880 0.369150 0.083850 -0.496335
O10   O     O_R   0.411730 0.181020 0.091530 -0.514706
O11   O     O_R   0.365010 0.944360 0.063320 -0.505347
O12   O     O_R   0.477660 0.726260 0.439290 -0.509826
O13   O     O_R   0.159380 0.906670 0.876210 -0.505430
O14   O     O_R   0.930820 0.177420 0.886730 -0.482425
O15   O     O_R   0.910360 0.395420 0.895720 -0.509223
O16   O     O_R   0.186010 0.361730 0.919870 -0.502203
O17   O     O_R   0.400000 0.173010 0.914630 -0.511094
O18   O     O_R   0.354140 0.936940 0.899340 -0.536293
O19   O     O_3   0.162410 0.162370 0.983930 -0.283377
O20   O     O_R   0.260150 0.743000 0.412270 -0.513867
O21   O     O_R   0.297740 0.466550 0.394720 -0.465217
O22   O     O_R   0.488080 0.253500 0.386430 -0.514956
O23   O     O_R   0.722670 0.303800 0.421940 -0.513937
O24   O     O_R   0.751130 0.502220 0.613520 -0.503911
O25   O     O_R   0.478890 0.728510 0.601960 -0.494300
O26   O     O_R   0.261470 0.745430 0.587750 -0.524617
O27   O     O_3   0.987910 0.453380 0.365736 -0.706738
H18   H     H_    0.004727 0.417442 0.418270 0.335465

loop_
_geom_bond_atom_site_label_1
_geom_bond_atom_site_label_2
_ccdc_geom_bond_type
C19   H2    S    
C25   C31   A    
C1    C21   S    
C4    O27   S    
C33   C45   S    
Cr4   O19   S    
C19   C20   A    
Cr3   O3    S    
C7    C8    A    
C26   C32   A    
C41   O15   A    
C26   C27   A    
C43   O18   A    
C14   C21   A    
C28   C29   A    
Cr5   O8    S    
C34   O25   A    
Cr6   O19   S    
C27   H6    S    
C30   C31   A    
C38   O8    A    
C15   C16   A    
C34   O26   A    
C14   C20   A    
C18   C19   A    
C6    H10   S    
Cr4   O13   S    
C8    C9    A    
Cr1   O1    S    
Cr5   O15   S    
C38   C48   S    
C25   C32   A    
C17   H16   S    
C1    O20   A    
C13   C14   A    
C43   O13   A    
C2    C6    A    
C16   H17   S    
Cr4   O7    S    
C15   H15   S    
C5    C48   A    
C29   H7    S    
C40   O11   A    
Cr5   O9    S    
Cr3   O5    S    
C39   O10   A    
Cr6   O18   S    
C12   C46   S    
Cr2   O2    S    
C38   O7    A    
C2    C48   A    
Cr1   O24   S    
C37   C43   S    
C29   C30   A    
C3    C9    A    
Cr2   O5    S    
C11   C16   A    
C17   C18   A    
C32   C44   S    
Cr1   O5    S    
Cr5   O16   S    
C24   C25   A    
C44   O3    A    
C26   H4    S    
C18   H1    S    
Cr3   O22   S    
C5    H11   S    
C22   C27   A    
C30   H8    S    
C22   C24   A    
C12   O22   A    
C42   O17   A    
C4    C10   A    
Cr4   O6    S    
C45   O24   A    
Cr6   O11   S    
C39   C47   S    
C28   H5    S    
Cr2   O21   S    
C44   O2    A    
C46   C47   T    
Cr4   O14   S    
Cr2   O26   S    
C23   O1    A    
C12   O21   A    
C24   C28   A    
Cr3   O4    S    
C4    C5    A    
C6    C7    A    
C10   C23   S    
C1    O12   A    
C31   H9    S    
C41   O14   A    
C23   O23   A    
C13   C17   A    
C45   O4    A    
C39   O9    A    
Cr1   O12   S    
C2    C3    A    
C9    H14   S    
C3    C10   A    
C7    H12   S    
Cr6   O17   S    
C11   C13   A    
C22   C42   S    
C33   C35   T    
C34   C36   S    
Cr1   O25   S    
C11   C40   S    
C35   C41   S    
Cr3   O23   S    
Cr2   O20   S    
C15   C21   A    
C8    H13   S    
C36   C37   T    
O27   H18   S    
Cr5   O19   S    
C40   O6    A    
C42   O16   A    
C20   H3    S    
Cr6   O10   S    
