data_mof_unit_29459.cif
_audit_creation_date              2012-12-10T18:31:50-0500
_audit_creation_method            fapswitch 2.2
_symmetry_space_group_name_H-M    P1
_symmetry_Int_Tables_number       1
_space_group_crystal_system       triclinic
_cell_length_a                    10.881642
_cell_length_b                    14.834613
_cell_length_c                    15.445121
_cell_angle_alpha                 82.35023
_cell_angle_beta                  88.759176
_cell_angle_gamma                 104.060241
_cell_volume                      2393.2252914

loop_
_atom_site_label
_atom_site_type_symbol
_atom_type_description
_atom_site_fract_x
_atom_site_fract_y
_atom_site_fract_z
_atom_type_partial_charge
C1    C     C_R   0.483569 0.441502 0.663413 0.985946
C2    C     C_3   0.120725 0.498876 0.504030 -0.395773
C3    C     C_3   0.087151 0.525211 0.403521 0.328538
C4    C     C_3   0.094913 0.575524 0.564766 -0.439776
C5    C     C_R   0.455687 0.408287 0.758586 -0.213083
C6    C     C_R   0.516393 0.597576 0.244543 -0.316247
C7    C     C_R   0.318203 0.301126 0.874444 -0.132180
C8    C     C_R   0.383632 0.317248 0.791641 -0.243308
C9    C     C_R   0.482396 0.476407 0.814876 0.660335
C10   C     C_R   0.411887 0.465779 0.894338 -0.088813
C11   C     C_R   0.330883 0.375521 0.925832 -0.134003
C12   C     C_R   0.742762 0.501884 0.497373 0.991569
C13   C     C_R   0.429306 0.539583 0.947657 -0.041350
C14   C     C_R   0.397545 0.513135 0.037820 0.007508
C15   C     C_R   0.308395 0.427747 0.066033 -0.093107
C16   C     C_R   0.272291 0.361038 0.010627 0.657204
C17   C     C_R   0.477735 0.637577 0.917038 -0.109533
C18   C     C_R   0.514894 0.701185 0.977186 0.650179
C19   C     C_R   0.505446 0.670207 0.067685 -0.213895
C20   C     C_R   0.452933 0.573630 0.097399 -0.082506
C21   C     C_R   0.550349 0.731882 0.129449 -0.205014
C22   C     C_R   0.556578 0.694742 0.216912 0.583709
C23   C     C_R   0.517397 0.558873 0.337267 1.032794
C24   C     C_R   0.466934 0.537642 0.184427 0.573301
C25   C     C_R   0.708607 0.846204 0.624996 0.640561
C26   C     C_R   0.659654 0.753395 0.613445 0.541008
C27   C     C_R   0.532352 0.798280 0.501264 0.793630
C28   C     C_R   0.579094 0.894723 0.508640 -0.269400
C29   C     C_R   0.667265 0.917555 0.573703 -0.454209
C30   C     C_R   0.536621 0.968276 0.458133 -0.068026
C31   C     C_R   0.562860 0.058821 0.485656 -0.183423
C32   C     C_R   0.663036 0.080846 0.542277 0.651706
C33   C     C_R   0.713554 0.011270 0.585714 0.689417
C34   C     C_R   0.257247 0.498248 0.503598 0.987294
C35   C     C_R   0.473836 0.957044 0.379429 0.758843
C36   C     C_R   0.412331 0.023178 0.342464 -0.198803
C37   C     C_R   0.415637 0.103965 0.379874 -0.121617
C38   C     C_R   0.492551 0.124296 0.451279 -0.071143
C39   C     C_R   0.345702 0.166214 0.344300 -0.294319
C40   C     C_R   0.353450 0.249101 0.378536 0.716786
C41   C     C_R   0.490597 0.207834 0.486053 0.727483
C42   C     C_3   0.889346 0.401857 0.529236 0.548735
C43   C     C_3   0.030100 0.394430 0.541896 -0.349696
C44   C     C_3   0.944691 0.533979 0.400365 0.338705
C45   C     C_3   0.947546 0.570089 0.565662 0.206023
C46   C     C_3   0.880739 0.505370 0.496418 -0.402569
H1    H     H_    0.828671 0.376703 0.590465 0.204745
H2    H     H_    0.263855 0.412385 0.131449 0.254173
H3    H     H_    0.362647 0.011390 0.283299 0.197610
H4    H     H_    0.287762 0.151779 0.289153 0.225615
N1    N     N_R   0.573860 0.731700 0.552730 -0.267623
N2    N     N_R   0.426060 0.268290 0.447230 -0.232136
O1    O     O_R   0.462770 0.383110 0.605620 -0.582952
O2    O     O_R   0.510160 0.531900 0.639510 -0.525411
O3    O     O_R   0.661510 0.425600 0.483070 -0.513956
O4    O     O_R   0.708900 0.574390 0.516960 -0.596825
O5    O     O_R   0.489840 0.468100 0.360490 -0.535179
O6    O     O_R   0.537230 0.616890 0.394380 -0.513148
O7    O     O_R   0.291100 0.425610 0.483040 -0.568465
O8    O     O_R   0.338490 0.574400 0.516930 -0.556997
Zn1   Zn    Zn3+2 0.468350 0.400660 0.477370 1.175737
Zn2   Zn    Zn3+2 0.531650 0.599340 0.522630 1.161804
F1    F     F_    0.827802 0.341205 0.473970 -0.496152
C47   C     C_2   0.174326 0.677884 0.532833 0.963424
O9    O     O_2   0.256818 0.717387 0.577437 -0.589782
O10   O     O_R   0.146657 0.730001 0.457296 -0.758375
H5    H     H_    0.201747 0.796660 0.446396 0.391976
C48   C     C_2   0.918352 0.624720 0.352961 0.983840
O11   O     O_2   0.809300 0.624426 0.335182 -0.574454
O12   O     O_R   0.013229 0.706325 0.325430 -0.737042
H6    H     H_    0.979219 0.759045 0.294269 0.389355
C49   C     C_2   0.181467 0.601367 0.342096 0.987435
O13   O     O_2   0.278865 0.648136 0.366840 -0.552500
O14   O     O_R   0.160671 0.611128 0.252508 -0.697627
H7    H     H_    0.230683 0.660613 0.216579 0.352672
F2    F     F_    0.186688 0.280261 0.043913 -0.604982
F3    F     F_    0.444383 0.443333 0.208580 -0.595942
F4    F     F_    0.602738 0.754299 0.274900 -0.539984
F5    F     F_    0.565136 0.793204 0.945842 -0.586617
C50   C     C_2   0.239958 0.205476 0.906782 1.099663
O15   O     O_2   0.291243 0.143293 0.933875 -0.556573
O16   O     O_R   0.107921 0.186638 0.904539 -0.684548
H8    H     H_    0.064775 0.118821 0.927670 0.389504
C51   C     C_2   0.384222 0.237467 0.743387 1.050589
O17   O     O_2   0.485057 0.219404 0.726592 -0.486894
O18   O     O_R   0.270442 0.181163 0.720299 -0.736171
H9    H     H_    0.284191 0.129055 0.687815 0.365718
F6    F     F_    0.586634 0.548842 0.794774 -0.570356
C52   C     C_2   0.472170 0.679732 0.825201 1.101457
O19   O     O_2   0.556385 0.746937 0.792375 -0.484400
O20   O     O_R   0.367977 0.646309 0.777592 -0.800415
H10   H     H_    0.375550 0.682172 0.716345 0.372481
C53   C     C_2   0.585617 0.835497 0.106915 1.193463
O21   O     O_2   0.689298 0.880864 0.124756 -0.518957
O22   O     O_R   0.498046 0.881351 0.068470 -0.716058
H11   H     H_    0.532283 0.952056 0.057278 0.376677
F7    F     F_    0.808310 0.036651 0.640213 -0.520561
F8    F     F_    0.547185 0.229381 0.559931 -0.558160
F9    F     F_    0.290759 0.311761 0.341836 -0.553232
F10   F     F_    0.794353 0.865321 0.686821 -0.476160
F11   F     F_    0.697854 0.684211 0.663135 -0.502793
F12   F     F_    0.440489 0.767939 0.447416 -0.537770
C54   C     C_2   0.046345 0.364381 0.639969 0.918849
O23   O     O_2   0.962321 0.357981 0.696155 -0.511458
O24   O     O_R   0.158328 0.341524 0.666394 -0.721109
H12   H     H_    0.154644 0.320317 0.731684 0.374366
F13   F     F_    0.725527 0.170291 0.548078 -0.532142
F14   F     F_    0.485710 0.890053 0.330419 -0.558054
C55   C     C_2   0.055068 0.310630 0.497382 1.197701
O25   O     O_2   0.008521 0.291054 0.428786 -0.390329
O26   O     O_R   0.128462 0.252663 0.537055 -0.741689
H13   H     H_    0.133783 0.199382 0.503425 0.332454
F15   F     F_    0.882651 0.467536 0.349932 -0.491435
F16   F     F_    0.094226 0.450061 0.361566 -0.536860
C56   C     C_2   0.925874 0.669313 0.564366 1.077241
O27   O     O_2   0.945735 0.707176 0.630182 -0.441536
O28   O     O_R   0.893371 0.720055 0.489250 -0.803823
H14   H     H_    0.888453 0.785643 0.497970 0.338928
F17   F     F_    0.888219 0.523050 0.645544 -0.585207
C57   C     C_2   0.133205 0.556522 0.660603 1.112065
O29   O     O_2   0.084015 0.585813 0.719507 -0.434644
O30   O     O_R   0.234247 0.516219 0.680120 -0.817151
H15   H     H_    0.238594 0.497386 0.745278 0.355609

loop_
_geom_bond_atom_site_label_1
_geom_bond_atom_site_label_2
_ccdc_geom_bond_type
O6    Zn2   S    
C23   O6    A    
C53   O21   D    
O22   H11   S    
C40   F9    S    
C7    C8    A    
C45   C46   S    
C7    C11   A    
C30   C35   A    
C1    C5    S    
C36   C37   A    
C19   C21   A    
C51   O18   S    
N2    Zn1   S    
C55   O26   S    
C26   F11   S    
C30   C31   A    
C56   O27   D    
C6    C22   A    
C29   C33   A    
O8    Zn2   S    
C18   C19   A    
C42   C46   S    
C1    O1    A    
C35   F14   S    
O1    Zn1   S    
C35   C36   A    
C57   O30   S    
C18   F5    S    
C56   O28   S    
C32   F13   S    
O12   H6    S    
C52   O20   S    
C9    C10   A    
C41   N2    A    
C49   O13   D    
C45   F17   S    
O10   H5    S    
C53   O22   S    
C16   F2    S    
C21   C22   A    
C34   O8    A    
N1    Zn2   S    
C15   H2    S    
C44   C46   S    
C4    C45   S    
C25   C29   A    
C3    C44   S    
O7    Zn1   S    
O14   H7    S    
C14   C20   A    
C17   C52   S    
C51   O17   D    
C22   F4    S    
C38   C41   A    
C49   O14   S    
O20   H10   S    
O18   H9    S    
C48   O11   D    
O2    Zn2   S    
C25   C26   A    
C40   N2    A    
C3    F16   S    
C12   C46   S    
C47   O10   S    
C2    C4    S    
C1    O2    A    
C5    C9    A    
C37   C38   A    
C11   C16   A    
C45   C56   S    
C25   F10   S    
C31   C32   A    
C2    C43   S    
C6    C24   A    
C17   C18   A    
C54   O24   S    
C12   O4    A    
C50   O16   S    
C44   F15   S    
C34   O7    A    
O4    Zn2   S    
C44   C48   S    
C42   C43   S    
C39   C40   A    
C57   O29   D    
C23   O5    A    
C28   C29   A    
O26   H13   S    
C8    C51   S    
C50   O15   D    
C10   C13   A    
C5    C8    A    
O5    Zn1   S    
O24   H12   S    
C4    C47   S    
C27   F12   S    
C26   N1    A    
C31   C38   A    
C13   C17   A    
C32   C33   A    
C19   C20   A    
C28   C30   A    
C2    C3    S    
C52   O19   D    
C9    F6    S    
O28   H14   S    
C47   O9    D    
C2    C34   S    
C21   C53   S    
C6    C23   S    
O3    Zn1   S    
C27   N1    A    
C3    C49   S    
C33   F7    S    
C42   H1    S    
C43   C54   S    
C12   O3    A    
C10   C11   A    
C24   F3    S    
C39   H4    S    
C37   C39   A    
O16   H8    S    
C55   O25   D    
C54   O23   D    
C48   O12   S    
C14   C15   A    
C4    C57   S    
C43   C55   S    
O30   H15   S    
C13   C14   A    
C42   F1    S    
C20   C24   A    
C41   F8    S    
C36   H3    S    
C15   C16   A    
C7    C50   S    
C27   C28   A    
