data_mof_unit_30081.cif
_audit_creation_date              2012-12-10T18:08:19-0500
_audit_creation_method            fapswitch 2.2
_symmetry_space_group_name_H-M    P1
_symmetry_Int_Tables_number       1
_space_group_crystal_system       triclinic
_cell_length_a                    12.631015
_cell_length_b                    13.135607
_cell_length_c                    14.156191
_cell_angle_alpha                 90.185529
_cell_angle_beta                  101.797052
_cell_angle_gamma                 84.17872
_cell_volume                      2286.9033743

loop_
_atom_site_label
_atom_site_type_symbol
_atom_type_description
_atom_site_fract_x
_atom_site_fract_y
_atom_site_fract_z
_atom_type_partial_charge
C1    C     C_R   0.440343 0.691475 0.495278 0.893060
C2    C     C_R   0.532098 0.039124 0.571434 0.081928
C3    C     C_R   0.641141 0.996928 0.600610 0.147081
C4    C     C_R   0.500538 0.501446 0.670580 0.863446
C5    C     C_R   0.661799 0.894324 0.628808 -0.240759
C6    C     C_R   0.576514 0.832878 0.611648 -0.147516
C7    C     C_R   0.510415 0.144851 0.573055 0.094461
C8    C     C_R   0.699358 0.160669 0.568807 -0.239976
C9    C     C_R   0.404120 0.801181 0.500572 -0.311772
C10   C     C_R   0.087018 0.348929 0.366016 -0.303991
C11   C     C_R   0.802307 0.624749 0.614615 0.028723
C12   C     C_1   0.497210 0.500088 0.227446 -0.213946
C13   C     C_R   0.906726 0.653782 0.639223 -0.255512
C14   C     C_R   0.986578 0.608390 0.593843 -0.168921
C15   C     C_R   0.962162 0.532150 0.524312 0.012940
C16   C     C_R   0.559027 0.309590 0.518506 0.868116
C17   C     C_R   0.853648 0.506420 0.500718 0.234599
C18   C     C_R   0.041155 0.479369 0.478915 -0.018154
C19   C     C_R   0.010245 0.402361 0.410959 0.196753
C20   C     C_R   0.903273 0.378757 0.388999 -0.282034
C21   C     C_R   0.826249 0.429818 0.433631 -0.207414
C22   C     C_R   0.150587 0.498935 0.498718 -0.022603
C23   C     C_R   0.725344 0.058927 0.601175 -0.197746
C24   C     C_R   0.193861 0.371265 0.389433 -0.028556
C25   C     C_R   0.499015 0.499978 0.329345 0.884466
C26   C     C_1   0.501980 0.502489 0.772436 -0.213080
C27   C     C_1   0.501613 0.502501 0.857673 -0.011892
C28   C     C_1   0.500126 0.501963 0.957382 0.002683
C29   C     C_1   0.498646 0.501323 0.042412 0.001974
C30   C     C_1   0.497323 0.500560 0.142157 -0.015390
C31   C     C_3   0.419721 0.188971 0.623165 -0.400981
C32   C     C_3   0.466438 0.236638 0.719258 -0.811149
C33   C     C_3   0.233540 0.763061 0.307493 0.137550
C34   C     C_R   0.590487 0.203860 0.552286 -0.083928
C35   C     C_3   0.163814 0.679765 0.264640 -0.770890
C36   C     C_3   0.169447 0.052590 0.318260 0.080273
C37   C     C_3   0.058944 0.063749 0.249940 -0.821550
C38   C     C_R   0.300396 0.841080 0.447866 0.389120
C39   C     C_R   0.271703 0.946911 0.440284 0.454023
C40   C     C_R   0.347500 0.012909 0.482923 -0.429076
C41   C     C_R   0.450161 0.974565 0.537341 0.019941
C42   C     C_R   0.476309 0.868330 0.550621 0.038303
H1    H     H_    0.763801 0.206024 0.560053 0.174695
H2    H     H_    0.809696 0.027314 0.620116 0.151894
H3    H     H_    0.326251 0.094172 0.471528 0.163331
H4    H     H_    0.590532 0.757006 0.643076 0.153857
H5    H     H_    0.254618 0.330848 0.355375 0.132678
H6    H     H_    0.514271 0.176540 0.770035 0.252337
H7    H     H_    0.520452 0.295230 0.709291 0.247746
H8    H     H_    0.399268 0.273158 0.751525 0.246800
H9    H     H_    0.359256 0.244326 0.577095 0.235576
H10   H     H_    0.372316 0.127634 0.641211 0.211589
H11   H     H_    0.318907 0.739075 0.300762 0.104488
H12   H     H_    0.879146 0.319700 0.337687 0.156152
H13   H     H_    0.203645 0.834918 0.264842 0.144542
H14   H     H_    0.077696 0.701587 0.269041 0.254521
H15   H     H_    0.168840 0.669015 0.187788 0.191594
H16   H     H_    0.193019 0.606409 0.304770 0.270301
H17   H     H_    0.231873 0.025509 0.275800 0.113931
H18   H     H_    0.185637 0.129228 0.347633 0.141390
H19   H     H_    0.994945 0.092934 0.289461 0.259511
H20   H     H_    0.059500 0.118558 0.190522 0.199550
H21   H     H_    0.039994 0.988462 0.218615 0.256413
H22   H     H_    0.064488 0.290747 0.313420 0.146798
H23   H     H_    0.181745 0.556326 0.548169 0.138816
H24   H     H_    0.741503 0.656734 0.652446 0.121251
H25   H     H_    0.066407 0.633370 0.615933 0.144389
H26   H     H_    0.925990 0.710428 0.694107 0.145822
H27   H     H_    0.746105 0.406555 0.415145 0.211193
H28   H     H_    0.742648 0.862074 0.663696 0.138057
N1    N     N_R   0.222200 0.444680 0.454480 -0.105045
N2    N     N_R   0.776970 0.554780 0.545050 -0.121246
O1    O     O_R   0.366740 0.627160 0.478260 -0.558253
O2    O     O_3   0.167032 0.983178 0.393736 -0.573958
O3    O     O_R   0.544830 0.662520 0.507340 -0.615161
O4    O     O_R   0.410930 0.482320 0.611740 -0.594891
O5    O     O_R   0.589030 0.517680 0.640820 -0.608300
O6    O     O_R   0.455170 0.337480 0.492660 -0.618810
O7    O     O_R   0.633260 0.372840 0.521740 -0.631812
O8    O     O_R   0.410970 0.482320 0.359180 -0.599873
O9    O     O_R   0.589070 0.517680 0.388260 -0.606669
O10   O     O_3   0.225165 0.776514 0.404865 -0.563961
Zn1   Zn    Zn3+2 0.381090 0.476390 0.480580 0.932878
Zn2   Zn    Zn3+2 0.618910 0.523610 0.519420 0.923273

loop_
_geom_bond_atom_site_label_1
_geom_bond_atom_site_label_2
_ccdc_geom_bond_type
C33   H13   S    
C15   C18   A    
C25   O8    A    
C41   C42   A    
C3    C23   A    
C2    C7    A    
C8    H1    S    
C31   H10   S    
C36   H17   S    
C37   H20   S    
C9    C42   A    
C29   C30   S    
C35   H16   S    
C36   C37   S    
O7    Zn2   S    
O3    Zn2   S    
C2    C41   A    
C8    C23   A    
C18   C19   A    
C39   O2    S    
C16   C34   S    
O6    Zn1   S    
C19   C20   A    
C14   H25   S    
C33   O10   S    
C11   H24   S    
C13   C14   A    
C38   O10   S    
C25   O9    A    
C32   H6    S    
O8    Zn1   S    
O4    Zn1   S    
C37   H21   S    
N1    Zn1   S    
C33   H11   S    
C40   H3    S    
C7    C31   S    
C1    O3    A    
C1    C9    S    
C20   H12   S    
C39   C40   A    
C11   N2    A    
O5    Zn2   S    
C10   C24   A    
C17   C21   A    
C23   H2    S    
C21   H27   S    
C38   C39   A    
C22   H23   S    
C5    H28   S    
C4    C26   S    
C31   C32   S    
C10   C19   A    
C26   C27   T    
C8    C34   A    
C32   H8    S    
N2    Zn2   S    
C36   O2    S    
C40   C41   A    
C7    C34   A    
C3    C5    A    
C22   N1    A    
O9    Zn2   S    
C15   C17   A    
C28   C29   T    
C6    H4    S    
C12   C30   T    
C35   H14   S    
C18   C22   A    
C24   H5    S    
C10   H22   S    
C31   H9    S    
C36   H18   S    
C37   H19   S    
C12   C25   S    
C35   H15   S    
C16   O7    A    
C1    O1    A    
C2    C3    A    
C4    O5    A    
C11   C13   A    
C5    C6    A    
C9    C38   A    
C33   C35   S    
C16   O6    A    
C32   H7    S    
C4    O4    A    
C20   C21   A    
C17   N2    A    
C6    C42   A    
C27   C28   S    
C14   C15   A    
O1    Zn1   S    
C24   N1    A    
C13   H26   S    
