data_mof_unit_57585.cif
_audit_creation_date              2013-03-05T15:54:35-0500
_audit_creation_method            fapswitch 2.2
_symmetry_space_group_name_H-M    P1
_symmetry_Int_Tables_number       1
_space_group_crystal_system       triclinic
_cell_length_a                    17.290686
_cell_length_b                    24.274688
_cell_length_c                    14.898098
_cell_angle_alpha                 90.094312
_cell_angle_beta                  125.419887
_cell_angle_gamma                 90.016011
_cell_volume                      5095.82093997

loop_
_atom_site_label
_atom_site_type_symbol
_atom_site_description
_atom_site_fract_x
_atom_site_fract_y
_atom_site_fract_z
_atom_type_partial_charge
C1    C     C_R   0.851304 0.652507 0.906609 -0.130609
C2    C     C_R   0.193115 0.621968 0.094706 -0.077065
C3    C     C_R   0.351304 0.152507 0.906609 -0.130608
C4    C     C_R   0.693115 0.121968 0.094706 -0.077065
H1    H     H_    0.819927 0.667754 0.824558 0.173664
H2    H     H_    0.253409 0.622493 0.179716 0.128538
H3    H     H_    0.319927 0.167754 0.824557 0.173663
H4    H     H_    0.753409 0.122493 0.179716 0.128539
N1    N     N_R   0.892620 0.603790 0.941770 -0.067338
N2    N     N_R   0.107380 0.603790 0.058230 -0.035316
N3    N     N_R   0.392620 0.103790 0.941770 -0.067338
N4    N     N_R   0.607380 0.103790 0.058230 -0.035316
C5    C     C_R   0.945752 0.348855 0.093418 -0.176978
C6    C     C_R   0.098274 0.379431 0.906816 -0.136215
C7    C     C_R   0.445752 0.848855 0.093418 -0.176978
C8    C     C_R   0.598274 0.879431 0.906816 -0.136216
H5    H     H_    0.995188 0.334998 0.177292 0.162030
H6    H     H_    0.073407 0.378193 0.821782 0.136790
H7    H     H_    0.495188 0.834997 0.177292 0.162030
H8    H     H_    0.573407 0.878193 0.821782 0.136790
N5    N     N_R   0.952270 0.397640 0.058010 -0.072019
N6    N     N_R   0.047730 0.397640 0.941990 -0.055289
N7    N     N_R   0.452270 0.897640 0.058010 -0.072019
N8    N     N_R   0.547730 0.897640 0.941990 -0.055289
C9    C     C_R   0.976688 0.546928 0.243511 -0.065232
C10   C     C_R   0.949525 0.546784 0.695642 -0.034209
C11   C     C_R   0.476688 0.046928 0.243511 -0.065232
C12   C     C_R   0.449525 0.046784 0.695642 -0.034209
H9    H     H_    0.958280 0.589238 0.242116 0.121335
H10   H     H_    0.927958 0.588622 0.667789 0.121708
H11   H     H_    0.458280 0.089238 0.242116 0.121335
H12   H     H_    0.427958 0.088622 0.667789 0.121708
N9    N     N_R   0.026310 0.529110 0.206760 -0.038871
N10   N     N_R   0.973690 0.529110 0.793240 -0.063586
N11   N     N_R   0.526310 0.029110 0.206760 -0.038871
N12   N     N_R   0.473690 0.029110 0.793240 -0.063586
C13   C     C_R   0.730304 0.455037 0.749648 -0.076442
C14   C     C_R   0.253577 0.454871 0.305507 -0.136765
C15   C     C_R   0.230305 0.955037 0.749648 -0.076438
C16   C     C_R   0.753577 0.954871 0.305507 -0.136765
H13   H     H_    0.706797 0.412925 0.735365 0.183068
H14   H     H_    0.264983 0.413010 0.334618 0.204861
H15   H     H_    0.206797 0.912925 0.735366 0.183067
H16   H     H_    0.764983 0.913010 0.334618 0.204860
N13   N     N_R   0.818570 0.472310 0.793020 -0.058346
N14   N     N_R   0.181430 0.472310 0.206980 -0.087218
N15   N     N_R   0.318570 0.972310 0.793020 -0.058345
N16   N     N_R   0.681430 0.972310 0.206980 -0.087218
C17   C     C_R   0.981284 0.455011 0.250292 -0.065152
C18   C     C_R   0.949797 0.455491 0.694258 -0.092502
C19   C     C_R   0.481284 0.955011 0.250292 -0.065152
C20   C     C_R   0.449797 0.955491 0.694258 -0.092501
H17   H     H_    0.971207 0.412383 0.261649 0.095169
H18   H     H_    0.930723 0.413520 0.665215 0.130373
H19   H     H_    0.471207 0.912383 0.261649 0.095169
H20   H     H_    0.430723 0.913520 0.665215 0.130373
N17   N     N_R   0.026930 0.472300 0.207330 -0.047896
N18   N     N_R   0.973070 0.472300 0.792670 -0.047967
N19   N     N_R   0.526930 0.972300 0.207330 -0.047896
N20   N     N_R   0.473070 0.972300 0.792670 -0.047967
C21   C     C_R   0.729560 0.547056 0.741526 0.343244
C22   C     C_R   0.251264 0.546042 0.308813 0.255333
C23   C     C_R   0.229561 0.047055 0.741527 0.343243
C24   C     C_R   0.751264 0.046042 0.308813 0.255336
N21   N     N_R   0.817960 0.529130 0.792460 -0.095554
N22   N     N_R   0.182040 0.529130 0.207540 -0.096405
N23   N     N_R   0.317960 0.029130 0.792460 -0.095553
N24   N     N_R   0.682040 0.029130 0.207540 -0.096405
C25   C     C_R   0.852494 0.348034 0.911045 0.314387
C26   C     C_R   0.187631 0.373263 0.090752 0.327273
C27   C     C_R   0.352494 0.848034 0.911045 0.314386
C28   C     C_R   0.687631 0.873263 0.090752 0.327274
N25   N     N_R   0.894850 0.397640 0.943830 -0.094268
N26   N     N_R   0.105150 0.397640 0.056170 -0.088913
N27   N     N_R   0.394850 0.897640 0.943830 -0.094269
N28   N     N_R   0.605150 0.897640 0.056170 -0.088913
C29   C     C_R   0.941276 0.653589 0.088935 -0.045590
C30   C     C_R   0.101137 0.625420 0.910754 -0.103950
C31   C     C_R   0.441276 0.153589 0.088935 -0.045591
C32   C     C_R   0.601137 0.125420 0.910754 -0.103950
H21   H     H_    0.987036 0.668896 0.172419 0.161336
H22   H     H_    0.075662 0.631816 0.826185 0.161168
H23   H     H_    0.487036 0.168896 0.172418 0.161335
H24   H     H_    0.575662 0.131816 0.826185 0.161168
N29   N     N_R   0.950040 0.603780 0.055950 -0.059421
N30   N     N_R   0.049960 0.603780 0.944050 -0.058644
N31   N     N_R   0.450040 0.103780 0.055950 -0.059421
N32   N     N_R   0.549960 0.103780 0.944050 -0.058644
C33   C     C_R   0.878880 0.684502 0.996094 0.037643
C34   C     C_R   0.191662 0.637188 0.005016 0.040337
C35   C     C_R   0.378880 0.184502 0.996094 0.037644
C36   C     C_R   0.691662 0.137188 0.005016 0.040337
C37   C     C_R   0.883862 0.316092 0.003750 -0.059985
C38   C     C_R   0.186580 0.363154 0.997440 -0.091160
C39   C     C_R   0.383862 0.816092 0.003750 -0.059985
C40   C     C_R   0.686580 0.863154 0.997440 -0.091159
C41   C     C_R   0.947990 0.501486 0.273136 0.029156
C42   C     C_R   0.934852 0.501548 0.631436 0.078243
C43   C     C_R   0.447990 0.001486 0.273136 0.029156
C44   C     C_R   0.434852 0.001548 0.631436 0.078244
C45   C     C_R   0.673439 0.501019 0.718128 -0.074942
C46   C     C_R   0.297961 0.500012 0.370060 0.050472
C47   C     C_R   0.173439 0.001020 0.718129 -0.074942
C48   C     C_R   0.797961 0.000012 0.370060 0.050471
Ni1   Ni    Ni4+2 0.934160 0.565860 0.869070 0.258363
Ni2   Ni    Ni4+2 0.065840 0.565860 0.130930 0.294039
Ni3   Ni    Ni4+2 0.434160 0.065860 0.869070 0.258363
Ni4   Ni    Ni4+2 0.565840 0.065860 0.130930 0.294039
Ni5   Ni    Ni4+2 0.067260 0.435560 0.132230 0.257438
Ni6   Ni    Ni4+2 0.932740 0.435560 0.867770 0.290679
Ni7   Ni    Ni4+2 0.567260 0.935560 0.132230 0.257438
Ni8   Ni    Ni4+2 0.432740 0.935560 0.867770 0.290679
C49   C     C_3   0.505333 0.448405 0.603352 -0.254069
C50   C     C_3   0.467594 0.459044 0.481537 -0.268419
C51   C     C_3   0.005333 0.948406 0.603354 -0.254071
C52   C     C_3   0.967595 0.959044 0.481539 -0.268417
C53   C     C_3   0.429697 0.488253 0.589494 0.408537
C54   C     C_3   0.533770 0.508465 0.517512 0.395719
C55   C     C_3   0.929697 0.988254 0.589494 0.408537
C56   C     C_3   0.033770 0.008464 0.517513 0.395721
H25   H     H_    0.524644 0.407996 0.645878 0.193753
H26   H     H_    0.455521 0.427547 0.420529 0.217553
H27   H     H_    0.024643 0.907997 0.645880 0.193753
H28   H     H_    0.955522 0.927547 0.420531 0.217553
C57   C     C_3   0.392898 0.498910 0.470380 -0.047350
C58   C     C_3   0.571791 0.498593 0.637385 -0.017615
C59   C     C_3   0.892899 0.998910 0.470380 -0.047348
C60   C     C_3   0.071792 0.998594 0.637386 -0.017618
C61   C     C_3   0.460215 0.548510 0.505211 -0.170869
C62   C     C_3   0.497167 0.537952 0.626985 -0.142031
C63   C     C_3   0.960216 0.048509 0.505211 -0.170869
C64   C     C_3   0.997167 0.037953 0.626985 -0.142031
H29   H     H_    0.443761 0.589171 0.463948 0.197791
H30   H     H_    0.508920 0.568725 0.688961 0.196311
H31   H     H_    0.943762 0.089170 0.463947 0.197791
H32   H     H_    0.008919 0.068726 0.688959 0.196313
C65   C     C_R   0.882666 0.240201 0.112007 0.210560
C66   C     C_R   0.221231 0.304969 0.889200 0.159802
C67   C     C_R   0.382666 0.740201 0.112007 0.210561
C68   C     C_R   0.721231 0.804969 0.889200 0.159802
C69   C     C_R   0.867188 0.257945 0.013642 0.026817
C70   C     C_R   0.254150 0.332815 0.987368 0.052080
C71   C     C_R   0.367188 0.757945 0.013642 0.026818
C72   C     C_R   0.754150 0.832815 0.987368 0.052080
C73   C     C_R   0.824651 0.220383 0.924879 -0.093881
C74   C     C_R   0.349615 0.325015 0.076269 -0.093972
C75   C     C_R   0.324651 0.720383 0.924879 -0.093881
C76   C     C_R   0.849615 0.825015 0.076269 -0.093971
H33   H     H_    0.823283 0.227809 0.852659 0.200098
H34   H     H_    0.384153 0.352010 0.146718 0.188055
H35   H     H_    0.323283 0.727809 0.852659 0.200098
H36   H     H_    0.884153 0.852010 0.146718 0.188055
C77   C     C_R   0.273579 0.675256 0.924519 -0.131059
C78   C     C_R   0.897881 0.778026 0.078265 -0.124516
C79   C     C_R   0.773579 0.175256 0.924519 -0.131059
C80   C     C_R   0.397881 0.278026 0.078265 -0.124515
H37   H     H_    0.230983 0.650528 0.850847 0.206985
H38   H     H_    0.966124 0.767783 0.152945 0.161491
H39   H     H_    0.730983 0.150528 0.850847 0.206985
H40   H     H_    0.466124 0.267783 0.152945 0.161491
C81   C     C_R   0.269506 0.666933 0.014941 0.003368
C82   C     C_R   0.851930 0.741960 0.987578 0.032538
C83   C     C_R   0.769506 0.166934 0.014941 0.003368
C84   C     C_R   0.351930 0.241960 0.987578 0.032538
C85   C     C_R   0.334833 0.695260 0.112917 0.148449
C86   C     C_R   0.770088 0.760513 0.889058 0.100343
C87   C     C_R   0.834833 0.195261 0.112917 0.148451
C88   C     C_R   0.270088 0.260513 0.889058 0.100343
C89   C     C_3   0.323280 0.721698 0.195651 -0.443962
C90   C     C_3   0.680639 0.730557 0.805133 -0.376683
C91   C     C_3   0.823280 0.221698 0.195651 -0.443963
C92   C     C_3   0.180639 0.230557 0.805133 -0.376684
C93   C     C_3   0.875990 0.270855 0.194561 -0.524610
C94   C     C_3   0.126903 0.279146 0.805885 -0.487412
C95   C     C_3   0.375990 0.770855 0.194561 -0.524610
C96   C     C_3   0.626903 0.779146 0.805885 -0.487412
H41   H     H_    0.363510 0.699722 0.275921 0.220354
H42   H     H_    0.669745 0.692373 0.837699 0.224823
H43   H     H_    0.863510 0.199722 0.275921 0.220355
H44   H     H_    0.169745 0.192373 0.837698 0.224824
H45   H     H_    0.248158 0.731189 0.162029 0.213942
H46   H     H_    0.672255 0.726038 0.725683 0.242400
H47   H     H_    0.748158 0.231189 0.162029 0.213942
H48   H     H_    0.172255 0.226038 0.725683 0.242400
H49   H     H_    0.946525 0.276921 0.273996 0.215988
H50   H     H_    0.085652 0.268935 0.839588 0.225350
H51   H     H_    0.446526 0.776921 0.273996 0.215988
H52   H     H_    0.585653 0.768935 0.839588 0.225350
H53   H     H_    0.831129 0.308435 0.160226 0.204489
H54   H     H_    0.086950 0.301819 0.726410 0.204637
H55   H     H_    0.331129 0.808435 0.160226 0.204489
H56   H     H_    0.586950 0.801819 0.726410 0.204637
C97   C     C_R   0.890941 0.551986 0.462123 0.007043
C98   C     C_R   0.887772 0.552338 0.367389 0.032139
C99   C     C_R   0.390941 0.051986 0.462123 0.007043
C100  C     C_R   0.387772 0.052338 0.367389 0.032139
C101  C     C_R   0.898630 0.502591 0.515099 0.122939
C102  C     C_R   0.899621 0.502907 0.327621 0.063201
C103  C     C_R   0.398630 0.002592 0.515099 0.122940
C104  C     C_R   0.399621 0.002907 0.327621 0.063201
C105  C     C_R   0.881642 0.453304 0.456141 -0.120458
C106  C     C_R   0.882148 0.453455 0.362450 -0.142733
C107  C     C_R   0.381642 0.953304 0.456141 -0.120458
C108  C     C_R   0.382148 0.953455 0.362450 -0.142733
H57   H     H_    0.879399 0.413941 0.488347 0.130971
H58   H     H_    0.881383 0.414202 0.327499 0.122097
H59   H     H_    0.379400 0.913941 0.488347 0.130971
H60   H     H_    0.381383 0.914202 0.327499 0.122097
C109  C     C_3   0.934508 0.608116 0.394916 0.044543
C110  C     C_3   0.938871 0.607274 0.499564 0.039201
C111  C     C_3   0.434508 0.108116 0.394916 0.044543
C112  C     C_3   0.438871 0.107274 0.499564 0.039201
H61   H     H_    0.006019 0.608939 0.411382 0.149234
H62   H     H_    0.895264 0.639286 0.504269 0.154620
H63   H     H_    0.506019 0.108939 0.411382 0.149234
H64   H     H_    0.395264 0.139286 0.504269 0.154620
N33   N     N_R   0.870606 0.650736 0.317757 0.256447
O1    O     O_R   0.903038 0.688206 0.285295 -0.361759
O2    O     O_R   0.782063 0.652558 0.283068 -0.328389
N34   N     N_R   0.037343 0.605679 0.597147 0.230002
O3    O     O_R   0.075666 0.650834 0.652911 -0.388666
O4    O     O_R   0.091650 0.563663 0.616007 -0.362683
N35   N     N_R   0.370606 0.150736 0.317757 0.256447
O5    O     O_R   0.403038 0.188206 0.285295 -0.361759
O6    O     O_R   0.282063 0.152558 0.283068 -0.328389
N36   N     N_R   0.537343 0.105679 0.597147 0.230002
O7    O     O_R   0.575666 0.150835 0.652911 -0.388666
O8    O     O_R   0.591650 0.063663 0.616007 -0.362683
N37   N     N_R   0.698559 0.598490 0.684326 0.224152
O9    O     O_R   0.742449 0.619411 0.645002 -0.387980
O10   O     O_R   0.625386 0.623896 0.668036 -0.452240
N38   N     N_R   0.246391 0.597118 0.354526 0.227965
O11   O     O_R   0.184670 0.634357 0.290385 -0.433871
O12   O     O_R   0.289984 0.602496 0.460352 -0.353570
N39   N     N_R   0.198559 0.098489 0.684325 0.224150
O13   O     O_R   0.242448 0.119410 0.645000 -0.387982
O14   O     O_R   0.125386 0.123896 0.668036 -0.452242
N40   N     N_R   0.746391 0.097118 0.354526 0.227965
O15   O     O_R   0.684670 0.134357 0.290385 -0.433871
O16   O     O_R   0.789985 0.102496 0.460352 -0.353571
N41   N     N_R   0.805848 0.328080 0.800831 0.207680
O17   O     O_R   0.836885 0.342717 0.743043 -0.410156
O18   O     O_R   0.721754 0.306237 0.750919 -0.389259
N42   N     N_R   0.241142 0.342949 0.191731 0.234000
O19   O     O_R   0.196254 0.316885 0.224903 -0.368843
O20   O     O_R   0.332504 0.348980 0.259653 -0.420451
N43   N     N_R   0.305848 0.828080 0.800831 0.207680
O21   O     O_R   0.336885 0.842717 0.743043 -0.410155
O22   O     O_R   0.221754 0.806237 0.750919 -0.389258
N44   N     N_R   0.741142 0.842949 0.191731 0.234000
O23   O     O_R   0.696254 0.816884 0.224902 -0.368843
O24   O     O_R   0.832504 0.848980 0.259653 -0.420451
N45   N     N_R   0.370798 0.477091 0.628080 0.255318
O25   O     O_R   0.410336 0.468755 0.732312 -0.366059
O26   O     O_R   0.278839 0.475602 0.559143 -0.343366
N46   N     N_R   0.591869 0.518662 0.477314 0.249532
O27   O     O_R   0.580331 0.563448 0.423067 -0.341707
O28   O     O_R   0.652621 0.481857 0.491398 -0.377485
N47   N     N_R   0.870797 0.977092 0.628080 0.255318
O29   O     O_R   0.910335 0.968757 0.732312 -0.366058
O30   O     O_R   0.778838 0.975603 0.559143 -0.343366
N48   N     N_R   0.091869 0.018660 0.477314 0.249535
O31   O     O_R   0.080322 0.063443 0.423053 -0.341714
O32   O     O_R   0.152626 0.981857 0.491405 -0.377485

loop_
_geom_bond_atom_site_label_1
_geom_bond_atom_site_label_2
_geom_bond_distance
_ccdc_geom_bond_type
C111  H63   1.112572 S    
C107  C108  1.400909 A    
C39   C71   1.465222 S    
C27   N27   1.344569 A    
C56   C63   1.525492 S    
C105  C106  1.400909 A    
C70   C74   1.407688 A    
N3    Ni3   1.853524 S    
C55   N47   1.456016 S    
N35   O5    1.300461 A    
N8    Ni8   1.865256 S    
C27   N43   1.429456 S    
C72   C76   1.407688 A    
C46   C57   1.444108 S    
N23   Ni3   1.863333 S    
N26   Ni5   1.848774 S    
N34   O4    1.302517 A    
C17   N17   1.339761 A    
N25   Ni6   1.850447 S    
N10   N18   1.379058 A    
C62   H30   1.109959 S    
C30   C34   1.397941 A    
C7    H7    1.081063 S    
C91   C93   1.507112 S    
C93   H49   1.111733 S    
N27   Ni8   1.850447 S    
C18   H18   1.080274 S    
C13   C45   1.378531 A    
C90   H42   1.112347 S    
C1    H1    1.076326 S    
N35   O6    1.302276 A    
C24   N24   1.334916 A    
C66   C88   1.371421 A    
C26   C38   1.400972 A    
C78   H38   1.082293 S    
C3    H3    1.076327 S    
C25   C37   1.392255 A    
C77   H37   1.080754 S    
C7    C39   1.378861 A    
N45   O25   1.300110 A    
C28   C40   1.400972 A    
C97   C101  1.399937 A    
C96   H56   1.111895 S    
C27   C39   1.392255 A    
C92   H44   1.112346 S    
C58   C62   1.539854 S    
N44   O24   1.298994 A    
N15   Ni8   1.840929 S    
N5    N25   1.386261 A    
C110  N34   1.464613 S    
N42   O19   1.300876 A    
C3    C35   1.366549 A    
N41   O17   1.300718 A    
N21   Ni1   1.863333 S    
C4    H4    1.077259 S    
C2    C34   1.373068 A    
C30   H22   1.078390 S    
C54   C58   1.523020 S    
C65   C69   1.397232 A    
N11   Ni4   1.853996 S    
C20   N20   1.338687 A    
C26   N42   1.432256 S    
C82   C86   1.398092 A    
C100  C111  1.505956 S    
C67   C95   1.497082 S    
C10   N10   1.330705 A    
N17   Ni5   1.853353 S    
N31   Ni4   1.875110 S    
C108  H60   1.081481 S    
N3    N31   1.386262 A    
C80   C84   1.405193 A    
N6    Ni6   1.865256 S    
C52   C59   1.544216 S    
N46   O28   1.300505 A    
C43   C104  1.465048 S    
C66   C94   1.498006 S    
C21   N37   1.430664 S    
N39   O13   1.301214 A    
C101  C105  1.409456 A    
C29   H21   1.081036 S    
C51   C52   1.554026 S    
C4    N4    1.323888 A    
N9    N17   1.379094 A    
C24   N40   1.439430 S    
C97   C98   1.380375 A    
C64   H32   1.109959 S    
N36   O8    1.302518 A    
N1    N29   1.386262 A    
C12   C44   1.378494 A    
C7    N7    1.328266 A    
N1    Ni1   1.853524 S    
C29   N29   1.345677 A    
C8    N8    1.328180 A    
C74   H34   1.076397 S    
C31   N31   1.345676 A    
C90   H46   1.111197 S    
N12   Ni3   1.852387 S    
C103  C107  1.409456 A    
N39   O14   1.298082 A    
C91   H43   1.112047 S    
C2    H2    1.077259 S    
C76   C78   1.403678 A    
C21   C45   1.384917 A    
N22   Ni2   1.865666 S    
C60   C64   1.539854 S    
C89   H41   1.112047 S    
N34   O3    1.299731 A    
C92   C94   1.505726 S    
C109  C110  1.516767 S    
C99   C103  1.399937 A    
N43   O22   1.301278 A    
C9    H9    1.071995 S    
N11   N19   1.379092 A    
N40   O16   1.301026 A    
C76   H36   1.076397 S    
C18   C42   1.384180 A    
C51   H27   1.109998 S    
N4    N32   1.386260 A    
C34   C81   1.457155 S    
C79   H39   1.080754 S    
C32   H24   1.078390 S    
C18   N18   1.338687 A    
C112  H64   1.112947 S    
C84   C88   1.398093 A    
C22   N22   1.334916 A    
C1    N1    1.323635 A    
C23   C47   1.384915 A    
C66   C70   1.396935 A    
C100  C104  1.404016 A    
N4    Ni4   1.855095 S    
N32   Ni3   1.872755 S    
N48   O32   1.300504 A    
N13   Ni6   1.840929 S    
N8    N28   1.386259 A    
C4    C36   1.373068 A    
C87   C91   1.501295 S    
C49   C58   1.543903 S    
C79   C83   1.404050 A    
N44   O23   1.300877 A    
C110  H62   1.112947 S    
C15   N15   1.333496 A    
C107  H59   1.080653 S    
C20   C44   1.384180 A    
C109  H61   1.112574 S    
C51   C60   1.543903 S    
C52   C56   1.523807 S    
C51   C55   1.541744 S    
C5    C37   1.378862 A    
N41   O18   1.301278 A    
C38   C70   1.460556 S    
C32   C36   1.397941 A    
C71   C75   1.410449 A    
C44   C103  1.462454 S    
C23   N23   1.326074 A    
C26   N26   1.341381 A    
N37   O9    1.301215 A    
N20   Ni8   1.854937 S    
C99   C112  1.503420 S    
C57   C61   1.539726 S    
C104  C108  1.408947 A    
C16   C48   1.362034 A    
C67   C85   1.373620 A    
C92   H48   1.111196 S    
C63   H31   1.110185 S    
N19   Ni7   1.853354 S    
C19   C43   1.395059 A    
C31   H23   1.081036 S    
C12   H12   1.079311 S    
C83   C87   1.401588 A    
C8    H8    1.076651 S    
C11   C43   1.383112 A    
N46   O27   1.300388 A    
C85   C89   1.501294 S    
N38   O12   1.301027 A    
C45   C58   1.445190 S    
C89   C95   1.507111 S    
C8    C40   1.386678 A    
C5    N5    1.328267 A    
C28   N28   1.341381 A    
N15   N23   1.379331 A    
N16   N24   1.379297 A    
C25   N25   1.344569 A    
C53   C62   1.539519 S    
C89   H45   1.112446 S    
C50   C54   1.523806 S    
C54   N46   1.458351 S    
C10   C42   1.378494 A    
C61   H29   1.110185 S    
C102  C106  1.408949 A    
C36   C83   1.457155 S    
C9    C41   1.383112 A    
C68   C86   1.371422 A    
C94   H54   1.111895 S    
N36   O7    1.299731 A    
C56   N48   1.458351 S    
C11   H11   1.071995 S    
N13   N21   1.379331 A    
N37   O10   1.298081 A    
C49   C53   1.541744 S    
C35   C84   1.452948 S    
N2    Ni2   1.855095 S    
N30   Ni1   1.872755 S    
C19   N19   1.339762 A    
N6    N26   1.386259 A    
C13   N13   1.333495 A    
N29   Ni2   1.875110 S    
C2    N2    1.323888 A    
C33   C82   1.452948 S    
C65   C87   1.373620 A    
C37   C69   1.465222 S    
N45   O26   1.300493 A    
C49   C50   1.554028 S    
C88   C92   1.496350 S    
C91   H47   1.112444 S    
N5    Ni5   1.862908 S    
C50   C57   1.544215 S    
C47   C60   1.445190 S    
N40   O15   1.300187 A    
N2    N30   1.386260 A    
C96   H52   1.112519 S    
C1    C33   1.366549 A    
C52   H28   1.109945 S    
C42   C101  1.462454 S    
N18   Ni6   1.854937 S    
N10   Ni1   1.852387 S    
C31   C35   1.383594 A    
C41   C102  1.465048 S    
C78   C82   1.405193 A    
C24   C48   1.372185 A    
N9    Ni2   1.853996 S    
C68   C72   1.396935 A    
N7    N27   1.386261 A    
N12   N20   1.379058 A    
C55   C64   1.539519 S    
C15   H15   1.074378 S    
N43   O21   1.300720 A    
C56   C60   1.523020 S    
N14   N22   1.379297 A    
C10   H10   1.079311 S    
N48   O31   1.300396 A    
C29   C33   1.383594 A    
C80   H40   1.082294 S    
C69   C73   1.410449 A    
N33   O2    1.302276 A    
N7    Ni7   1.862908 S    
N16   Ni7   1.838616 S    
C22   N38   1.439430 S    
C5    H5    1.081062 S    
C11   N11   1.329270 A    
C73   H33   1.077895 S    
C6    N6    1.328180 A    
C95   H51   1.111733 S    
C65   C93   1.497082 S    
N33   O1    1.300459 A    
C112  N36   1.464612 S    
C109  N33   1.464568 S    
C32   N32   1.347001 A    
N47   O30   1.300492 A    
C99   C100  1.380376 A    
C94   H50   1.112521 S    
C98   C109  1.505959 S    
C95   H55   1.112453 S    
C25   N41   1.429456 S    
C97   C110  1.503420 S    
C98   C102  1.404014 A    
C48   C59   1.444109 S    
C20   H20   1.080274 S    
N28   Ni7   1.848774 S    
C17   H17   1.079075 S    
C75   H35   1.077895 S    
C50   H26   1.109944 S    
C93   H53   1.112453 S    
N38   O11   1.300187 A    
C86   C90   1.496350 S    
N42   O20   1.298994 A    
C6    H6    1.076651 S    
C19   H19   1.079075 S    
C13   H13   1.074380 S    
C63   C64   1.556682 S    
C75   C77   1.404900 A    
C53   N45   1.456014 S    
C59   C63   1.539725 S    
C14   N14   1.330359 A    
C17   C41   1.395059 A    
C3    N3    1.323635 A    
C23   N39   1.430665 S    
C111  C112  1.516767 S    
C73   C79   1.404900 A    
C14   H14   1.077964 S    
C21   N21   1.326075 A    
C16   H16   1.077962 S    
C90   C96   1.505726 S    
C49   H25   1.109997 S    
C12   N12   1.330705 A    
C14   C46   1.362033 A    
C30   N30   1.347001 A    
C106  H58   1.081481 S    
N14   Ni5   1.838616 S    
C77   C81   1.404050 A    
C54   C61   1.525492 S    
C15   C47   1.378535 A    
C105  H57   1.080653 S    
C61   C62   1.556682 S    
C67   C71   1.397232 A    
N24   Ni4   1.865666 S    
C74   C80   1.403677 A    
C28   N44   1.432256 S    
C53   C57   1.521084 S    
C16   N16   1.330359 A    
C6    C38   1.386678 A    
C81   C85   1.401588 A    
C111  N35   1.464568 S    
N47   O29   1.300110 A    
C9    N9    1.329270 A    
C68   C96   1.498006 S    
C22   C46   1.372183 A    
C40   C72   1.460555 S    
C55   C59   1.521083 S    
