data_mof_unit_16015.cif
_audit_creation_date              2012-12-10T18:33:45-0500
_audit_creation_method            fapswitch 2.2
_symmetry_space_group_name_H-M    P1
_symmetry_Int_Tables_number       1
_space_group_crystal_system       triclinic
_cell_length_a                    10.498612
_cell_length_b                    15.04756
_cell_length_c                    15.455166
_cell_angle_alpha                 81.750851
_cell_angle_beta                  91.851299
_cell_angle_gamma                 103.331453
_cell_volume                      2351.20729098

loop_
_atom_site_label
_atom_site_type_symbol
_atom_type_description
_atom_site_fract_x
_atom_site_fract_y
_atom_site_fract_z
_atom_type_partial_charge
C1    C     C_R   0.478331 0.441849 0.661812 0.913077
C2    C     C_R   0.525246 0.467898 0.052468 -0.000927
C3    C     C_R   0.429119 0.384080 0.079458 -0.068245
C4    C     C_R   0.703165 0.542697 0.948081 -0.104326
C5    C     C_R   0.384326 0.319136 0.021439 -0.083651
C6    C     C_R   0.758629 0.605069 0.006402 -0.086049
C7    C     C_R   0.733595 0.846238 0.612551 -0.192375
C8    C     C_R   0.310175 0.163538 0.355346 -0.164821
C9    C     C_R   0.682032 0.754771 0.602537 -0.014675
C10   C     C_R   0.330872 0.246874 0.387941 0.051336
C11   C     C_R   0.512336 0.796069 0.510918 0.084974
C12   C     C_R   0.525255 0.558020 0.338169 0.856100
C13   C     C_R   0.487874 0.203966 0.488957 0.063359
C14   C     C_R   0.567422 0.891728 0.512490 -0.111035
C15   C     C_R   0.478629 0.120109 0.454418 -0.110037
C16   C     C_R   0.741921 0.500338 0.500723 0.910564
C17   C     C_R   0.257937 0.499557 0.499229 0.935187
C18   C     C_R   0.677356 0.915634 0.567643 0.105973
C19   C     C_R   0.386857 0.100645 0.386171 0.107115
C20   C     C_R   0.516222 0.964060 0.463814 0.044210
C21   C     C_R   0.552916 0.053926 0.486965 0.054514
C22   C     C_R   0.668455 0.076373 0.536000 -0.290591
C23   C     C_R   0.519524 0.459235 0.816054 -0.275642
C24   C     C_R   0.438539 0.952056 0.388430 -0.301541
C25   C     C_R   0.731186 0.008473 0.576051 0.466175
C26   C     C_R   0.372223 0.018556 0.350238 0.481467
C27   C     C_3   0.941891 0.441165 0.570212 -0.273690
C28   C     C_3   0.057225 0.557842 0.429634 -0.295884
C29   C     C_3   0.054808 0.526266 0.572046 0.499894
C30   C     C_3   0.944459 0.472813 0.427895 0.491891
C31   C     C_3   0.122278 0.498169 0.498317 -0.088302
C32   C     C_3   0.877158 0.501109 0.501521 -0.092708
C33   C     C_3   0.010455 0.412244 0.494727 -0.247062
C34   C     C_R   0.508152 0.545721 0.182228 -0.220017
C35   C     C_3   0.988936 0.586918 0.505116 -0.231924
C36   C     C_R   0.459430 0.404490 0.754248 -0.100991
C37   C     C_R   0.574311 0.591226 0.248524 -0.148706
C38   C     C_R   0.362423 0.285552 0.870717 -0.235559
C39   C     C_R   0.751350 0.661620 0.146981 -0.131694
C40   C     C_R   0.381786 0.315836 0.781268 0.469388
C41   C     C_R   0.698472 0.651155 0.230301 0.456622
C42   C     C_2   0.533153 0.212777 0.579595 0.962449
C43   C     C_2   0.382606 0.763333 0.473015 0.951024
C44   C     C_2   0.294252 0.229023 0.053251 0.942977
C45   C     C_R   0.509540 0.426480 0.905526 0.115078
C46   C     C_2   0.886713 0.670696 0.985516 0.955199
C47   C     C_2   0.372853 0.359250 0.167518 0.888357
C48   C     C_2   0.782834 0.536839 0.871887 0.932131
C49   C     C_R   0.573955 0.538088 0.106645 0.111065
C50   C     C_R   0.419054 0.342648 0.933023 0.028221
C51   C     C_R   0.693815 0.603331 0.085365 -0.024945
C52   C     C_R   0.580080 0.479500 0.967868 -0.001477
H1    H     H_    0.272864 0.295954 0.366014 0.123015
H2    H     H_    0.977380 0.657258 0.511254 0.199236
H3    H     H_    0.406118 0.514057 0.193337 0.162896
H4    H     H_    0.571252 0.529303 0.793821 0.180650
H5    H     H_    0.299431 0.218402 0.890461 0.169612
H6    H     H_    0.845009 0.709632 0.134767 0.188484
H7    H     H_    0.052099 0.566894 0.683655 0.337044
H8    H     H_    0.948066 0.431307 0.316670 0.338407
H9    H     H_    0.665657 0.276287 0.661232 0.335954
H10   H     H_    0.280441 0.717929 0.369379 0.323134
H11   H     H_    0.113436 0.146742 0.050268 0.362540
H12   H     H_    0.729610 0.701746 0.633188 0.163116
H13   H     H_    0.985868 0.803213 0.958721 0.361094
H14   H     H_    0.757430 0.661042 0.349610 0.348375
H15   H     H_    0.267991 0.202925 0.750011 0.355633
H16   H     H_    0.207908 0.340857 0.239424 0.320163
H17   H     H_    0.882126 0.603032 0.762925 0.331834
H18   H     H_    0.867830 0.099062 0.624849 0.346807
H19   H     H_    0.290924 0.942628 0.262210 0.349196
H20   H     H_    0.818931 0.862336 0.653698 0.219583
H21   H     H_    0.235949 0.149369 0.305696 0.213658
H22   H     H_    0.715215 0.147384 0.539974 0.160079
H23   H     H_    0.434449 0.893545 0.355100 0.171718
H24   H     H_    0.892595 0.395960 0.628408 0.192122
H25   H     H_    0.102829 0.601313 0.369695 0.165671
H26   H     H_    0.022096 0.341942 0.488512 0.178172
N1    N     N_R   0.574200 0.731700 0.552740 -0.139169
N2    N     N_R   0.425800 0.268300 0.447260 -0.127718
O1    O     O_R   0.462600 0.383110 0.605620 -0.555280
O2    O     O_3   0.880078 0.445142 0.352269 -0.728697
O3    O     O_2   0.475054 0.158472 0.639818 -0.587003
O4    O     O_R   0.644840 0.278718 0.596533 -0.802682
O5    O     O_2   0.284659 0.770884 0.509325 -0.601656
O6    O     O_R   0.372516 0.728267 0.393559 -0.796557
O7    O     O_2   0.332764 0.173369 0.107256 -0.572725
O8    O     O_R   0.165103 0.209585 0.023234 -0.759886
O9    O     O_2   0.985238 0.641609 0.979714 -0.579954
O10   O     O_R   0.893736 0.765567 0.972485 -0.771211
O11   O     O_3   0.773949 0.698175 0.291361 -0.740324
O12   O     O_R   0.537400 0.616890 0.394380 -0.576261
O13   O     O_3   0.318998 0.262563 0.719903 -0.716230
O14   O     O_2   0.442730 0.345832 0.230354 -0.588965
O15   O     O_R   0.238504 0.351762 0.176898 -0.787936
O16   O     O_2   0.802202 0.462418 0.859947 -0.593614
O17   O     O_R   0.833224 0.616211 0.813283 -0.798325
O18   O     O_3   0.843861 0.031351 0.624763 -0.752639
O19   O     O_3   0.292134 0.004278 0.278321 -0.723285
O20   O     O_R   0.510210 0.531900 0.639510 -0.623182
O21   O     O_R   0.489790 0.468100 0.360490 -0.570172
O22   O     O_R   0.662240 0.425610 0.483080 -0.532140
O23   O     O_R   0.337760 0.574390 0.516920 -0.563275
O24   O     O_R   0.709860 0.574400 0.516970 -0.671628
O25   O     O_R   0.290140 0.425600 0.483030 -0.651341
O26   O     O_3   0.119905 0.553947 0.647420 -0.709542
Zn1   Zn    Zn3+2 0.468210 0.400660 0.477370 1.039783
Zn2   Zn    Zn3+2 0.531790 0.599340 0.522630 1.001944

loop_
_geom_bond_atom_site_label_1
_geom_bond_atom_site_label_2
_ccdc_geom_bond_type
O21   Zn1   S    
C39   C51   A    
O1    Zn1   S    
C23   C45   A    
H11   O8    S    
C27   C29   S    
C34   C37   A    
C14   C18   A    
C40   O13   S    
C23   H4    S    
C39   C41   A    
C46   O9    D    
C27   C33   S    
C15   C19   A    
C48   O17   S    
H10   O6    S    
N2    Zn1   S    
C4    C52   A    
C24   C26   A    
C11   C14   A    
C33   H26   S    
C1    O1    A    
C9    H12   S    
C9    N1    A    
C12   C37   S    
C10   H1    S    
C19   C26   A    
H8    O2    S    
C16   O24   A    
C20   C24   A    
C28   C35   S    
C49   C51   A    
C22   C25   A    
C31   C33   S    
C11   C43   S    
O23   Zn2   S    
C11   N1    A    
C6    C51   A    
C30   C32   S    
C44   O7    D    
C48   O16   D    
C26   O19   S    
C13   N2    A    
C34   H3    S    
C21   C22   A    
C35   H2    S    
C18   C25   A    
C1    O20   A    
C13   C42   S    
O12   Zn2   S    
H13   O10   S    
O20   Zn2   S    
H7    O26   S    
C8    C19   A    
C32   C35   S    
C14   C20   A    
C36   C40   A    
C42   O4    S    
C4    C6    A    
C7    H20   S    
C10   N2    A    
C45   C52   A    
C39   H6    S    
H19   O19   S    
C43   O5    D    
C30   O2    S    
C2    C49   A    
C17   O25   A    
C38   H5    S    
O25   Zn1   S    
C7    C18   A    
O22   Zn1   S    
C28   H25   S    
H16   O15   S    
C2    C52   A    
C46   O10   S    
C16   O22   A    
C41   O11   S    
C5    C44   S    
C13   C15   A    
C17   C31   S    
C5    C50   A    
C22   H22   S    
C27   H24   S    
O24   Zn2   S    
C4    C48   S    
C7    C9    A    
C34   C49   A    
C6    C46   S    
C30   C33   S    
C27   C32   S    
C43   O6    S    
C12   O12   A    
C28   C31   S    
C42   O3    D    
C3    C5    A    
H9    O4    S    
C24   H23   S    
H14   O11   S    
C38   C50   A    
C16   C32   S    
C29   C35   S    
C28   C30   S    
C2    C3    A    
C17   O23   A    
C12   O21   A    
C29   C31   S    
C38   C40   A    
C45   C50   A    
C3    C47   S    
C8    H21   S    
C47   O14   D    
N1    Zn2   S    
C37   C41   A    
C29   O26   S    
C25   O18   S    
C15   C21   A    
C20   C21   A    
C8    C10   A    
C23   C36   A    
H15   O13   S    
C47   O15   S    
C44   O8    S    
H18   O18   S    
C1    C36   S    
H17   O17   S    
