data_mof_unit_35456.cif
_audit_creation_date              2013-03-05T16:13:54-0500
_audit_creation_method            fapswitch 2.2
_symmetry_space_group_name_H-M    P1
_symmetry_Int_Tables_number       1
_space_group_crystal_system       triclinic
_cell_length_a                    20.29971
_cell_length_b                    22.805935
_cell_length_c                    6.93278
_cell_angle_alpha                 89.614038
_cell_angle_beta                  87.313244
_cell_angle_gamma                 89.893707
_cell_volume                      3205.95261268

loop_
_atom_site_label
_atom_site_type_symbol
_atom_site_description
_atom_site_fract_x
_atom_site_fract_y
_atom_site_fract_z
_atom_type_partial_charge
O1    O     O_R   0.751270 0.447300 0.600030 -0.607788
O2    O     O_R   0.248730 0.947300 0.399970 -0.610209
O3    O     O_R   0.613530 0.440160 0.952150 -0.595331
O4    O     O_R   0.386470 0.940160 0.047850 -0.592267
O5    O     O_R   0.613050 0.552700 0.122560 -0.566839
O6    O     O_R   0.386950 0.052700 0.877440 -0.601687
C1    C     C_R   0.592320 0.425204 0.787084 0.951400
C2    C     C_R   0.408301 0.925699 0.214028 0.949922
O7    O     O_R   0.750780 0.440350 0.929820 -0.549323
O8    O     O_R   0.249220 0.940350 0.070180 -0.548508
O9    O     O_R   0.751280 0.552900 0.100070 -0.550094
O10   O     O_R   0.248720 0.052900 0.899930 -0.562338
C3    C     C_R   0.772970 0.425220 0.758816 1.093245
C4    C     C_R   0.226928 0.925347 0.241941 1.099229
O11   O     O_R   0.613040 0.447100 0.622520 -0.603694
O12   O     O_R   0.386960 0.947100 0.377480 -0.605223
O13   O     O_3   0.682160 0.536920 0.777780 -0.222757
O14   O     O_3   0.317840 0.036920 0.222220 -0.254675
V1    V     V_3+5 0.682160 0.493150 0.052630 1.306610
V2    V     V_3+5 0.317840 0.993150 0.947370 1.285615
O15   O     O_R   0.750790 0.559840 0.429870 -0.601795
O16   O     O_R   0.249210 0.059840 0.570130 -0.580566
C5    C     C_R   0.775322 0.572480 0.258173 1.111337
C6    C     C_R   0.223012 0.070557 0.740949 1.178606
O17   O     O_R   0.613540 0.559650 0.452200 -0.585150
O18   O     O_R   0.386460 0.059650 0.547800 -0.575167
C7    C     C_R   0.594267 0.576846 0.284729 0.938547
C8    C     C_R   0.406791 0.075953 0.713554 0.987058
V3    V     V_3+5 0.682160 0.506850 0.552630 1.272767
V4    V     V_3+5 0.317840 0.006850 0.447370 1.270733
O19   O     O_3   0.682150 0.463080 0.277610 -0.270363
O20   O     O_3   0.317850 0.963080 0.722390 -0.273081
C9    C     C_R   0.579820 0.865114 0.153381 0.379649
C10   C     C_R   0.424014 0.362873 0.888887 0.385473
H1    H     H_    0.534833 0.950466 0.140915 0.156585
H2    H     H_    0.469032 0.447764 0.902476 0.156033
H3    H     H_    0.663894 0.778722 0.061467 0.220905
H4    H     H_    0.330723 0.281493 0.870764 0.223210
C11   C     C_R   0.463316 0.884030 0.214879 -0.144183
C12   C     C_R   0.537769 0.383310 0.792368 -0.145506
C13   C     C_R   0.479067 0.601005 0.363085 -0.134458
C14   C     C_R   0.523862 0.099322 0.668624 -0.160279
C15   C     C_R   0.427371 0.639849 0.397995 -0.032000
C16   C     C_R   0.577708 0.136705 0.663634 -0.022610
C17   C     C_R   0.435472 0.699327 0.359435 -0.130843
C18   C     C_R   0.569461 0.196205 0.700010 -0.129489
C19   C     C_R   0.495559 0.721699 0.277738 0.095442
C20   C     C_R   0.506244 0.220540 0.741341 0.088891
C21   C     C_R   0.548382 0.681254 0.233811 -0.052882
C22   C     C_R   0.450328 0.181890 0.748113 -0.064696
C23   C     C_R   0.504731 0.783210 0.240875 0.074682
C24   C     C_R   0.497205 0.282110 0.777374 0.076258
C25   C     C_R   0.568396 0.804163 0.180624 -0.070826
C26   C     C_R   0.433791 0.303096 0.839933 -0.082771
C27   C     C_R   0.618062 0.763840 0.131143 -0.174121
C28   C     C_R   0.380241 0.265050 0.842192 -0.155460
C29   C     C_R   0.607599 0.703589 0.144902 0.255526
C30   C     C_R   0.387185 0.206509 0.790764 0.303748
C31   C     C_R   0.452368 0.824550 0.255881 -0.190137
C32   C     C_R   0.548737 0.323901 0.751398 -0.187638
C33   C     C_R   0.526713 0.904064 0.167196 -0.271818
C34   C     C_R   0.476136 0.402187 0.862888 -0.262983
C35   C     C_R   0.539930 0.620425 0.284226 -0.153131
C36   C     C_R   0.460185 0.120387 0.711718 -0.172003
H5    H     H_    0.402019 0.811706 0.289176 0.124160
H6    H     H_    0.597773 0.311981 0.699386 0.122628
H7    H     H_    0.472041 0.555301 0.402806 0.127800
H8    H     H_    0.532050 0.053139 0.639959 0.128529
H9    H     H_    0.394083 0.726896 0.400306 0.136393
H10   H     H_    0.613986 0.221830 0.698360 0.137532
H11   H     H_    0.380991 0.623929 0.461523 0.159996
H12   H     H_    0.626663 0.119266 0.632288 0.161393
C37   C     C_R   0.170727 0.882942 0.255592 -0.324930
C38   C     C_R   0.828780 0.382397 0.746604 -0.326076
C39   C     C_R   0.163692 0.837967 0.118395 0.366041
C40   C     C_R   0.835520 0.337215 0.885277 0.364099
C41   C     C_R   0.106031 0.803141 0.121716 0.216871
C42   C     C_R   0.892677 0.301614 0.881799 0.217357
C43   C     C_R   0.054932 0.811711 0.266701 -0.021694
C44   C     C_R   0.943465 0.309703 0.735408 -0.022323
C45   C     C_R   0.062138 0.857261 0.402203 0.352202
C46   C     C_R   0.936594 0.355480 0.598594 0.351327
C47   C     C_R   0.120211 0.891049 0.397771 -0.230127
C48   C     C_R   0.879028 0.390026 0.603117 -0.232677
C49   C     C_R   0.895822 0.692360 0.386935 0.480726
C50   C     C_R   0.099367 0.188436 0.608960 0.457487
C51   C     C_R   0.841015 0.654927 0.389317 -0.190240
C52   C     C_R   0.154177 0.150975 0.604822 -0.128972
C53   C     C_R   0.944282 0.689832 0.233190 -0.014488
C54   C     C_R   0.052347 0.186327 0.766349 -0.015294
N1    N     N_2   0.995768 0.776853 0.278039 0.052745
N2    N     N_2   0.001995 0.274010 0.723479 0.052041
N3    N     N_2   0.003214 0.724661 0.226660 0.038517
N4    N     N_2   0.993835 0.221753 0.775206 0.039082
C55   C     C_R   0.833123 0.613188 0.243889 -0.367506
C56   C     C_R   0.164022 0.110114 0.753562 -0.386515
H13   H     H_    0.804750 0.657799 0.508666 0.217275
H14   H     H_    0.188933 0.153374 0.481713 0.236603
H15   H     H_    0.124422 0.926327 0.500383 0.205980
H16   H     H_    0.875000 0.425421 0.499237 0.208006
C57   C     C_R   0.882167 0.609239 0.092667 0.249388
C58   C     C_R   0.115865 0.105993 0.907295 0.232573
C59   C     C_R   0.937200 0.647247 0.088746 0.384264
C60   C     C_R   0.060455 0.143760 0.912128 0.392612
Cl1   Cl    Cl    0.904128 0.737225 0.590022 -0.433731
Cl2   Cl    Cl    0.089275 0.233095 0.404266 -0.427298
N5    N     N_R   0.010101 0.870842 0.543064 0.285189
O21   O     O_R   0.023819 0.894640 0.706514 -0.299896
O22   O     O_R   0.948686 0.867277 0.498644 -0.247808
N6    N     N_R   0.988434 0.368407 0.455988 0.285313
O23   O     O_R   0.974556 0.392274 0.291667 -0.300191
O24   O     O_R   0.049940 0.364098 0.499200 -0.250524
N7    N     N_R   0.879018 0.564020 0.950624 0.266218
O25   O     O_R   0.881183 0.509155 0.002770 -0.374646
O26   O     O_R   0.877458 0.577497 0.768237 -0.341886
N8    N     N_R   0.120139 0.060612 0.050409 0.264887
O27   O     O_R   0.119148 0.005823 0.999458 -0.382398
O28   O     O_R   0.121386 0.073775 0.232562 -0.351512
N9    N     N_R   0.097549 0.762407 0.968325 0.278305
O29   O     O_R   0.050360 0.770228 0.850118 -0.276452
O30   O     O_R   0.138357 0.718835 0.941767 -0.259236
N10   N     N_R   0.901007 0.260470 0.035995 0.278370
O31   O     O_R   0.948786 0.267272 0.152414 -0.273153
O32   O     O_R   0.859670 0.217409 0.064594 -0.261828
Cl3   Cl    Cl    0.000248 0.638713 0.907006 -0.376623
Cl4   Cl    Cl    0.998256 0.135009 0.096532 -0.376564
Cl5   Cl    Cl    0.226481 0.824665 0.937937 -0.562894
Cl6   Cl    Cl    0.772988 0.324546 0.067446 -0.565271
N11   N     N_R   0.644847 0.888217 0.111417 0.239936
O33   O     O_R   0.693777 0.871456 0.213450 -0.314328
O34   O     O_R   0.653103 0.932792 0.994638 -0.339934
N12   N     N_R   0.362176 0.384160 0.970705 0.238523
O35   O     O_R   0.333856 0.357473 0.118899 -0.332578
O36   O     O_R   0.340573 0.435598 0.921102 -0.326445
N13   N     N_R   0.652801 0.667161 0.036459 0.219643
O37   O     O_R   0.632582 0.644049 0.878847 -0.367614
O38   O     O_R   0.715766 0.675253 0.051097 -0.412766
N14   N     N_R   0.327881 0.175150 0.764686 0.197273
O39   O     O_R   0.310380 0.167573 0.588617 -0.418644
O40   O     O_R   0.282815 0.174855 0.904480 -0.399006

loop_
_geom_bond_atom_site_label_1
_geom_bond_atom_site_label_2
_geom_bond_distance
_ccdc_geom_bond_type
C52   C56   1.406193 A    
C21   C35   1.436960 A    
C56   C58   1.414807 A    
C57   N7    1.434281 S    
O4    C2    1.294084 A    
V1    O19   1.699595 S    
C45   N5    1.439314 S    
C12   C34   1.390393 A    
N13   O37   1.300327 A    
C13   H7    1.084269 S    
O9    V1    1.997530 S    
C38   C40   1.415342 A    
C12   C32   1.401459 A    
C46   N6    1.439249 S    
C40   C42   1.414283 A    
N7    O25   1.301319 A    
O3    C1    1.289679 A    
C6    C56   1.497557 S    
C42   C44   1.423751 A    
O12   V4    1.999601 S    
C10   C34   1.392593 A    
C22   C36   1.438782 A    
N8    O27   1.301215 A    
O17   V3    1.987091 S    
C17   C19   1.415112 A    
O7    C3    1.297042 A    
N6    O23   1.301753 A    
C24   C32   1.420846 A    
O5    C7    1.296151 A    
O7    V1    2.002911 S    
O6    C8    1.297742 A    
O8    V2    1.999118 S    
N12   O35   1.301513 A    
C51   C55   1.406045 A    
C1    C12   1.462915 S    
C54   N4    1.434434 S    
O14   V4    1.700683 S    
C2    C11   1.465225 S    
C28   C30   1.389383 A    
C43   N1    1.440301 S    
C30   N14   1.420836 S    
C49   C51   1.403013 A    
O2    C4    1.304035 A    
C10   N12   1.438011 S    
C2    O12   1.292526 A    
C47   H15   1.083673 S    
C53   C59   1.412018 A    
C14   H8    1.084224 S    
C13   C15   1.385735 A    
C50   Cl2   1.760721 S    
C14   C16   1.386494 A    
C49   Cl1   1.760676 S    
N2    N4    1.251298 D    
C45   C47   1.408571 A    
C24   C26   1.422131 A    
O11   V3    1.998698 S    
C23   C31   1.420146 A    
C18   C20   1.414901 A    
C25   C27   1.395782 A    
C9    C25   1.419598 A    
C11   C33   1.390862 A    
C26   C28   1.391580 A    
C50   C52   1.400873 A    
C17   H9    1.076866 S    
C48   H16   1.083695 S    
C4    C37   1.496172 S    
C44   C46   1.416881 A    
C50   C54   1.416261 A    
C43   C45   1.417603 A    
C49   C53   1.417554 A    
C19   C23   1.435104 A    
C1    O11   1.294606 A    
C16   C18   1.390224 A    
H2    C34   1.084471 S    
O15   V3    2.001725 S    
N7    O26   1.301070 A    
C23   C25   1.421992 A    
C22   C30   1.417624 A    
C44   N2    1.438496 S    
N1    N3    1.251597 D    
C39   C41   1.414942 A    
N5    O21   1.301762 A    
C11   C31   1.400102 A    
O3    V1    1.998796 S    
O10   V2    1.990945 S    
O1    V3    1.987639 S    
C41   C43   1.424320 A    
H4    C28   1.082240 S    
H1    C33   1.084187 S    
C58   C60   1.414729 A    
C20   C22   1.437268 A    
C15   C17   1.389336 A    
C54   C60   1.411637 A    
N9    O30   1.301041 A    
C7    C35   1.483457 S    
N8    O28   1.301390 A    
C8    C36   1.484750 S    
N12   O36   1.301369 A    
C10   C26   1.418444 A    
C46   C48   1.407394 A    
O15   C5    1.299355 A    
O8    C4    1.297832 A    
O17   C7    1.300293 A    
C40   Cl6   1.770853 S    
N14   O40   1.301164 A    
O16   C6    1.299763 A    
O1    C3    1.302542 A    
C37   C39   1.415478 A    
N10   O32   1.301031 A    
C14   C36   1.397975 A    
N11   O33   1.301495 A    
V2    O20   1.708053 S    
C9    N11   1.438486 S    
N13   O38   1.300525 A    
C15   H11   1.082803 S    
O16   V4    2.005523 S    
C38   C48   1.401229 A    
C41   N9    1.433371 S    
C21   C29   1.418803 A    
N9    O29   1.300775 A    
O18   V4    1.995888 S    
O5    V1    1.996410 S    
O4    V2    1.989979 S    
C19   C21   1.436270 A    
O6    V2    1.995512 S    
O10   C6    1.302489 A    
O18   C8    1.296103 A    
C57   C59   1.414392 A    
O2    V4    1.994208 S    
C27   C29   1.392737 A    
V3    O19   2.158111 S    
O13   V3    1.709142 S    
C31   H5    1.077865 S    
V4    O20   2.146197 S    
N5    O22   1.300929 A    
O9    C5    1.302523 A    
O13   V1    2.145145 S    
C5    C55   1.496778 S    
C16   H12   1.082791 S    
O14   V2    2.157058 S    
C53   N3    1.436015 S    
C42   N10   1.433405 S    
N6    O24   1.300968 A    
C18   H10   1.076796 S    
C58   N8    1.434220 S    
N14   O39   1.299916 A    
C32   H6    1.077700 S    
H3    C27   1.082099 S    
C20   C24   1.437782 A    
C60   Cl4   1.764812 S    
C3    C38   1.494162 S    
C9    C33   1.395842 A    
C13   C35   1.398904 A    
C29   N13   1.427685 S    
C51   H13   1.083662 S    
N10   O31   1.300706 A    
C59   Cl3   1.764827 S    
C37   C47   1.401534 A    
C52   H14   1.082711 S    
C55   C57   1.414745 A    
N11   O34   1.301458 A    
C39   Cl5   1.770886 S    
