data_mof_unit_12934.cif
_audit_creation_date              2012-10-26T20:13:49-0400
_audit_creation_method            fapswitch 2.2
_symmetry_space_group_name_H-M    P1
_symmetry_Int_Tables_number       1
_space_group_crystal_system       triclinic
_cell_length_a                    8.840654
_cell_length_b                    10.758044
_cell_length_c                    9.578499
_cell_angle_alpha                 90.746713
_cell_angle_beta                  98.230841
_cell_angle_gamma                 90.594345
_cell_volume                      901.463898951

loop_
_atom_site_label
_atom_site_type_symbol
_atom_type_description
_atom_site_fract_x
_atom_site_fract_y
_atom_site_fract_z
_atom_type_partial_charge
Br1   Br    Br    0.952482 0.451604 0.250550 -0.347751
Br2   Br    Br    0.388482 0.788840 0.105612 -0.431375
Br3   Br    Br    0.789465 0.145697 0.378648 -0.420685
Br4   Br    Br    0.279887 0.297064 0.125847 -0.353417
C1    C     C_R   0.501500 0.262736 0.499191 0.586352
C2    C     C_R   0.598314 0.576207 0.940201 0.145403
C3    C     C_3   0.607545 0.714113 0.932267 -0.133062
C4    C     C_R   0.204518 0.500227 0.463994 0.566163
C5    C     C_3   0.588557 0.719983 0.087250 0.005437
C6    C     C_R   0.498685 0.737298 0.500458 0.542660
C7    C     C_R   0.795472 0.500986 0.535715 0.558099
C8    C     C_2   0.039696 0.493812 0.443948 0.121068
C9    C     C_2   0.959745 0.510227 0.554751 -0.061551
C10   C     C_R   0.375223 0.064265 0.529581 0.011253
C11   C     C_R   0.501033 0.129447 0.494506 0.039817
C12   C     C_R   0.615912 0.933724 0.443227 -0.092160
C13   C     C_R   0.617955 0.063593 0.441094 0.147967
C14   C     C_1   0.758467 0.757505 0.904352 0.217486
C15   C     C_1   0.029854 0.544524 0.697240 0.223924
C16   C     C_R   0.499250 0.870496 0.499253 0.003883
C17   C     C_R   0.373851 0.936607 0.531628 0.023899
C18   C     C_3   0.289361 0.933777 0.655952 -0.243847
C19   C     C_3   0.291277 0.075201 0.653474 -0.254658
C20   C     C_R   0.592237 0.580340 0.086531 0.169640
C21   C     C_R   0.414024 0.416342 0.059747 0.289721
C22   C     C_R   0.414191 0.417217 0.911840 0.056497
Cu1   Cu    Cu3+1 0.499990 0.499980 0.640670 0.992292
Cu2   Cu    Cu3+1 0.500010 0.500020 0.359330 1.133617
H1    H     H_    0.341732 0.352546 0.844558 0.139376
H2    H     H_    0.512082 0.754527 0.860999 0.164315
H3    H     H_    0.686208 0.763076 0.158208 0.145568
H4    H     H_    0.708520 0.882629 0.407444 0.143380
H5    H     H_    0.172798 0.892625 0.628966 0.170423
H6    H     H_    0.357662 0.896527 0.751879 0.166094
H7    H     H_    0.175900 0.115493 0.624761 0.181105
H8    H     H_    0.361863 0.118500 0.747319 0.162894
N1    N     N_R   0.500980 0.500930 0.148050 -0.209956
N2    N     N_R   0.500990 0.500890 0.852140 -0.262889
N3    N     N_1   0.876945 0.792284 0.882308 -0.218971
N4    N     N_1   0.084993 0.571641 0.810670 -0.202610
O1    O     O_R   0.500000 0.319640 0.618810 -0.524901
O2    O     O_R   0.500020 0.319680 0.381230 -0.433968
O3    O     O_R   0.274830 0.499980 0.591380 -0.532871
O4    O     O_R   0.274850 0.500020 0.353800 -0.421298
O5    O     O_R   0.499980 0.680320 0.618770 -0.532290
O6    O     O_R   0.500000 0.680360 0.381190 -0.474226
O7    O     O_R   0.725150 0.499980 0.646200 -0.492557
O8    O     O_R   0.725170 0.500020 0.408620 -0.463290

loop_
_geom_bond_atom_site_label_1
_geom_bond_atom_site_label_2
_ccdc_geom_bond_type
C10   C19   S    
C6    O6    A    
C14   N3    T    
C2    N2    A    
C5    C20   S    
C2    C3    S    
C12   H4    S    
Cu1   O1    S    
C7    O7    A    
C4    O3    A    
C4    C8    S    
C12   C16   A    
C3    C14   S    
C2    C20   A    
C3    C5    S    
Cu1   O5    S    
C6    O5    A    
Br4   C21   S    
C3    H2    S    
C17   C18   S    
C8    C9    D    
C7    C9    S    
Cu2   O6    S    
C7    O8    A    
Br1   C8    S    
Cu2   N1    S    
C10   C17   A    
Cu2   O2    S    
Br3   C13   S    
C19   H7    S    
C18   H6    S    
C1    C11   S    
C15   N4    T    
C5    H3    S    
Cu1   N2    S    
Cu1   O3    S    
C1    O2    A    
C16   C17   A    
C22   H1    S    
C20   N1    A    
C19   H8    S    
Cu1   O7    S    
Cu1   Cu2   S    
C11   C13   A    
C18   H5    S    
C9    C15   S    
C18   C19   S    
Cu2   O8    S    
C1    O1    A    
C21   N1    A    
C21   C22   A    
C10   C11   A    
Br2   C5    S    
Cu2   O4    S    
C22   N2    A    
C4    O4    A    
C6    C16   S    
C12   C13   A    
