data_mof_unit_26034.cif
_audit_creation_date              2013-03-05T15:58:19-0500
_audit_creation_method            fapswitch 2.2
_symmetry_space_group_name_H-M    P1
_symmetry_Int_Tables_number       1
_space_group_crystal_system       triclinic
_cell_length_a                    15.084081
_cell_length_b                    13.896712
_cell_length_c                    15.919422
_cell_angle_alpha                 90.763926
_cell_angle_beta                  81.954801
_cell_angle_gamma                 91.936112
_cell_volume                      3302.16126803

loop_
_atom_site_label
_atom_site_type_symbol
_atom_site_description
_atom_site_fract_x
_atom_site_fract_y
_atom_site_fract_z
_atom_type_partial_charge
O1    O     O_R   0.370250 0.582280 0.500020 -0.565607
O2    O     O_R   0.370250 0.417720 0.500020 -0.559171
C1    C     C_R   0.329014 0.498505 0.498017 0.803691
O3    O     O_R   0.499990 0.582310 0.379440 -0.566788
O4    O     O_R   0.499990 0.417690 0.379440 -0.557583
C2    C     C_R   0.507495 0.499758 0.340161 0.835060
Cu1   Cu    Cu3+1 0.499990 0.597420 0.500010 1.008852
Cu2   Cu    Cu3+1 0.499990 0.402580 0.500010 1.006276
O5    O     O_R   0.629730 0.582260 0.499990 -0.553777
O6    O     O_R   0.629730 0.417740 0.499990 -0.539019
O7    O     O_R   0.499980 0.582240 0.620570 -0.534707
O8    O     O_R   0.499980 0.417760 0.620570 -0.571037
C3    C     C_R   0.671157 0.501197 0.496440 0.849539
C4    C     C_R   0.498622 0.500309 0.660532 0.843125
C5    C     C_3   0.484096 0.586778 0.058743 -0.205656
C6    C     C_3   0.487119 0.405570 0.059163 -0.187373
C7    C     C_3   0.465276 0.409625 0.966306 -0.054672
C8    C     C_3   0.491695 0.596773 0.961329 0.002589
H1    H     H_    0.412413 0.564812 0.077155 0.194536
H2    H     H_    0.421635 0.411514 0.100550 0.177471
H3    H     H_    0.485596 0.343337 0.930193 0.143030
H4    H     H_    0.546500 0.647854 0.937223 0.135367
C9    C     C_1   0.501341 0.500248 0.751170 -0.102735
C10   C     C_3   0.542428 0.499035 0.081084 0.106455
C11   C     C_3   0.516603 0.497973 0.918315 0.147636
C12   C     C_3   0.617478 0.485213 0.927457 -0.522337
C13   C     C_3   0.639494 0.503747 0.022443 0.053230
C14   C     C_1   0.506272 0.498498 0.826617 0.019876
C15   C     C_1   0.539822 0.500141 0.173829 -0.118016
C16   C     C_1   0.526474 0.499582 0.250021 -0.169413
H5    H     H_    0.661335 0.525969 0.878386 0.193551
H6    H     H_    0.633723 0.410606 0.906698 0.183832
C17   C     C_R   0.824524 0.520466 0.420592 -0.189789
C18   C     C_R   0.767296 0.503402 0.496376 -0.090191
C19   C     C_R   0.801566 0.481986 0.570644 0.144098
C20   C     C_R   0.893995 0.490974 0.571364 0.010766
C21   C     C_R   0.952677 0.498832 0.493710 -0.026357
C22   C     C_R   0.917942 0.513724 0.417139 0.047000
C23   C     C_R   0.929337 0.486411 0.647536 0.159838
C24   C     C_R   0.017458 0.462113 0.645960 0.122513
C25   C     C_R   0.079115 0.477018 0.571056 0.009208
C26   C     C_R   0.045856 0.493436 0.493700 -0.008526
C27   C     C_R   0.105361 0.503843 0.417052 0.040879
C28   C     C_R   0.070688 0.516942 0.339828 0.128547
C29   C     C_R   0.976946 0.521451 0.339848 0.139897
C30   C     C_R   0.172228 0.486016 0.573125 -0.012802
C31   C     C_R   0.231629 0.494179 0.497231 -0.080431
C32   C     C_R   0.198273 0.501009 0.419978 -0.190138
H7    H     H_    0.794404 0.534363 0.364457 0.177038
H8    H     H_    0.246401 0.507511 0.363192 0.156118
C33   C     C_R   0.436113 0.793168 0.552920 0.274286
C34   C     C_R   0.424836 0.201271 0.531045 0.248990
N1    N     N_R   0.499930 0.743810 0.499960 -0.223187
N2    N     N_R   0.499930 0.256190 0.499960 -0.216212
C35   C     C_R   0.563491 0.795754 0.445289 0.303076
C36   C     C_R   0.572984 0.208332 0.459784 0.326922
C37   C     C_R   0.569088 0.899598 0.448487 -0.120843
C38   C     C_R   0.577462 0.105949 0.465217 -0.129620
C39   C     C_R   0.501683 0.948654 0.502316 0.001685
C40   C     C_R   0.503529 0.051907 0.505642 0.008519
C41   C     C_R   0.429430 0.895548 0.547949 -0.081730
C42   C     C_R   0.430821 0.101548 0.547543 -0.062195
C43   C     C_R   0.640503 0.958261 0.404073 0.155611
C44   C     C_R   0.651466 0.054961 0.427330 0.173816
C45   C     C_R   0.359970 0.049249 0.595769 -0.011494
C46   C     C_R   0.354905 0.947152 0.590077 -0.013107
I1    I     I_    0.379687 0.670633 0.926277 -0.373445
I2    I     I_    0.321884 0.398318 0.973401 -0.441853
I3    I     I_    0.041063 0.379772 0.752487 -0.397165
C47   C     C_R   0.204550 0.508925 0.654192 0.101307
C48   C     C_R   0.261017 0.446788 0.688132 -0.127828
C49   C     C_R   0.276131 0.459461 0.771688 -0.117095
C50   C     C_R   0.233893 0.533044 0.821767 -0.001786
C51   C     C_R   0.181766 0.598271 0.786856 -0.063899
C52   C     C_R   0.167819 0.586916 0.702818 -0.087436
H9    H     H_    0.288197 0.385136 0.652362 0.169019
H10   H     H_    0.318035 0.409444 0.797347 0.163712
H11   H     H_    0.239661 0.539742 0.888084 0.199422
H12   H     H_    0.150324 0.655828 0.825423 0.152902
H13   H     H_    0.123767 0.634828 0.677064 0.145718
I4    I     I_    0.159730 0.530741 0.222365 -0.302367
I5    I     I_    0.924723 0.536579 0.222046 -0.324386
I6    I     I_    0.364396 0.721183 0.660222 -0.321574
I7    I     I_    0.301971 0.225810 0.482406 -0.353129
I8    I     I_    0.660144 0.717798 0.362732 -0.330800
I9    I     I_    0.655689 0.278240 0.356461 -0.348215
I10   I     I_    0.712652 0.937177 0.279546 -0.388047
I11   I     I_    0.785561 0.104816 0.437487 -0.230372
C53   C     C_R   0.299575 0.101150 0.662131 0.095961
C54   C     C_R   0.207148 0.106770 0.659086 -0.106991
C55   C     C_R   0.151791 0.149889 0.725754 -0.105803
C56   C     C_R   0.188290 0.189338 0.795048 -0.074080
C57   C     C_R   0.280300 0.186433 0.797419 -0.142976
C58   C     C_R   0.335784 0.142652 0.731304 -0.156165
H14   H     H_    0.177863 0.076121 0.606018 0.165141
H15   H     H_    0.080477 0.152190 0.723869 0.167481
H16   H     H_    0.145333 0.222249 0.846919 0.169982
H17   H     H_    0.308578 0.216986 0.850971 0.169387
H18   H     H_    0.406822 0.139349 0.734762 0.145951
C59   C     C_R   0.264573 0.899503 0.610292 0.105670
C60   C     C_R   0.219665 0.895791 0.694069 -0.096848
C61   C     C_R   0.132730 0.855868 0.710612 -0.138249
C62   C     C_R   0.090067 0.818939 0.644081 -0.130965
C63   C     C_R   0.134800 0.820286 0.561056 -0.115201
C64   C     C_R   0.221569 0.860614 0.544063 -0.123950
H19   H     H_    0.251982 0.924118 0.746215 0.156112
H20   H     H_    0.098429 0.853573 0.775026 0.145836
H21   H     H_    0.022792 0.787931 0.657042 0.156393
H22   H     H_    0.102005 0.790572 0.509768 0.149843
H23   H     H_    0.254931 0.862587 0.479228 0.134436
C65   C     C_R   0.519339 0.308116 0.085551 0.111166
C66   C     C_R   0.488632 0.273987 0.168099 -0.120777
C67   C     C_R   0.516889 0.186655 0.195708 -0.092200
C68   C     C_R   0.575809 0.131316 0.141504 -0.114542
C69   C     C_R   0.604966 0.162016 0.058905 -0.124576
C70   C     C_R   0.576644 0.249219 0.030678 -0.109044
H24   H     H_    0.443116 0.315508 0.211885 0.149810
H25   H     H_    0.493590 0.162269 0.259551 0.154459
H26   H     H_    0.598870 0.064714 0.163648 0.148952
H27   H     H_    0.650357 0.118569 0.016787 0.137762
H28   H     H_    0.602014 0.270355 0.966811 0.120483
C71   C     C_R   0.491503 0.681669 0.109320 0.133394
C72   C     C_R   0.441470 0.688824 0.191062 -0.095422
C73   C     C_R   0.444819 0.772803 0.239895 -0.091294
C74   C     C_R   0.495866 0.852644 0.207199 -0.086856
C75   C     C_R   0.542739 0.848785 0.125321 -0.101164
C76   C     C_R   0.539746 0.764895 0.076320 -0.083099
H29   H     H_    0.399281 0.628891 0.217340 0.134178
H30   H     H_    0.407276 0.776083 0.302968 0.135581
H31   H     H_    0.498183 0.917850 0.244904 0.138878
H32   H     H_    0.581177 0.911140 0.099100 0.131446
H33   H     H_    0.574736 0.767756 0.012824 0.129495
C77   C     C_R   0.689175 0.602026 0.035405 0.104835
C78   C     C_R   0.718005 0.669018 0.969611 -0.168496
C79   C     C_R   0.767764 0.752592 0.984771 -0.134934
C80   C     C_R   0.791354 0.771507 0.064859 -0.091839
C81   C     C_R   0.765798 0.706542 0.130089 -0.049184
C82   C     C_R   0.715720 0.623043 0.115808 -0.095382
H34   H     H_    0.701793 0.661698 0.906272 0.147290
H35   H     H_    0.787955 0.803107 0.933931 0.148756
H36   H     H_    0.830112 0.836163 0.076199 0.156174
H37   H     H_    0.786260 0.720159 0.191687 0.190234
H38   H     H_    0.700552 0.573295 0.167702 0.151212
C83   C     C_R   0.709706 0.428602 0.038492 0.076749
C84   C     C_R   0.785691 0.418089 0.976077 -0.116125
C85   C     C_R   0.853871 0.356033 0.987190 -0.088788
C86   C     C_R   0.849579 0.304272 0.061847 -0.097013
C87   C     C_R   0.777770 0.315711 0.125858 -0.078510
C88   C     C_R   0.709328 0.378065 0.115259 -0.129792
H39   H     H_    0.792864 0.458856 0.918192 0.181720
H40   H     H_    0.910533 0.348771 0.937973 0.178265
H41   H     H_    0.902459 0.256194 0.070569 0.152642
H42   H     H_    0.775462 0.276218 0.184182 0.181663
H43   H     H_    0.657207 0.384044 0.167818 0.164105
I12   I     I_    0.717582 0.406953 0.670995 -0.332627
I13   I     I_    0.871434 0.564080 0.757567 -0.419648

loop_
_geom_bond_atom_site_label_1
_geom_bond_atom_site_label_2
_geom_bond_distance
_ccdc_geom_bond_type
C5    C8    1.546684 S    
C64   H23   1.083384 S    
C12   H6    1.108854 S    
C57   C58   1.396118 A    
C5    C71   1.544859 S    
C50   C51   1.390198 A    
C71   C76   1.412622 A    
C86   C87   1.391152 A    
C33   C41   1.433718 A    
C10   C13   1.622360 S    
C81   H37   1.080952 S    
C84   C85   1.395561 A    
C72   H29   1.082869 S    
C79   C80   1.390312 A    
C11   C14   1.489737 S    
Cu1   O7    1.933576 S    
C59   C64   1.406061 A    
C21   C22   1.412819 A    
C58   H18   1.083174 S    
C56   C57   1.395623 A    
C20   C21   1.419289 A    
C19   I12   2.152419 S    
C67   C68   1.392730 A    
C82   H38   1.079068 S    
C66   H24   1.082713 S    
O7    C4    1.309803 A    
C37   C39   1.421334 A    
C38   C40   1.406153 A    
C69   C70   1.398651 A    
C21   C26   1.410016 A    
C40   C42   1.399196 A    
C18   C19   1.394438 A    
C25   C26   1.417179 A    
C46   C59   1.490183 S    
C53   C58   1.404891 A    
C34   I7    2.145238 S    
O5    C3    1.303334 A    
C76   H33   1.073423 S    
C66   C67   1.396187 A    
C22   C29   1.417103 A    
C49   H10   1.076583 S    
C55   H15   1.081874 S    
C10   C15   1.471352 S    
C74   H31   1.082513 S    
C29   I5    2.148669 S    
C6    C7    1.560988 S    
C25   C30   1.410809 A    
C47   C48   1.397839 A    
C15   C16   1.201497 T    
C27   C32   1.410658 A    
C68   H26   1.080141 S    
Cu2   O8    1.927986 S    
C67   H25   1.082813 S    
C32   H8    1.080031 S    
C74   C75   1.394463 A    
C77   C82   1.417579 A    
C6    C10   1.581461 S    
O1    Cu1   1.961182 S    
C8    C11   1.559790 S    
O3    Cu1   1.928069 S    
C41   C46   1.434703 A    
C63   C64   1.398446 A    
C34   N2    1.380274 A    
C56   H16   1.082170 S    
C37   C43   1.437976 A    
N1    C35   1.390747 A    
C38   C44   1.401968 A    
C79   H35   1.082717 S    
N2    C36   1.380785 A    
C39   C41   1.413687 A    
C24   I3    2.135484 S    
C65   C66   1.413432 A    
C13   C77   1.560797 S    
C60   C61   1.398151 A    
C72   C73   1.397031 A    
C87   C88   1.399374 A    
O3    C2    1.299891 A    
C28   I4    2.150939 S    
C51   C52   1.389206 A    
Cu2   N2    2.034299 S    
C55   C56   1.397853 A    
C83   C84   1.418088 A    
C11   C12   1.564868 S    
C50   H11   1.073940 S    
C7    H3    1.108457 S    
C85   H40   1.082049 S    
O1    C1    1.303410 A    
C19   C20   1.397217 A    
C4    C9    1.449224 S    
C35   I8    2.135151 S    
C5    H1    1.113373 S    
C88   H43   1.069354 S    
C80   H36   1.082327 S    
C36   I9    2.142890 S    
C31   C32   1.397901 A    
C6    H2    1.112879 S    
C17   C18   1.399705 A    
C12   C13   1.608571 S    
C61   H20   1.082355 S    
C9    C14   1.214336 T    
C62   H21   1.082697 S    
C5    C10   1.599732 S    
C2    C16   1.423408 S    
O8    C4    1.303683 A    
C45   C46   1.420648 A    
C51   H12   1.082909 S    
C35   C37   1.443337 A    
C27   C28   1.417880 A    
C77   C78   1.422694 A    
C87   H42   1.080632 S    
Cu1   N1    2.034381 S    
C53   C54   1.406598 A    
C33   I6    2.131692 S    
C48   H9    1.082480 S    
C78   H34   1.073053 S    
C28   C29   1.417462 A    
C85   C86   1.390045 A    
C52   H13   1.079986 S    
C60   H19   1.083174 S    
Cu1   O5    1.975337 S    
C30   C31   1.403277 A    
C24   C25   1.418778 A    
C7    I2    2.150552 S    
C42   C45   1.411579 A    
C43   I10   2.145297 S    
C8    H4    1.101541 S    
C12   H5    1.100214 S    
C20   C23   1.394248 A    
O2    Cu2   1.975317 S    
C84   H39   1.078736 S    
C49   C50   1.402575 A    
O6    C3    1.296786 A    
C54   H14   1.082766 S    
O4    Cu2   1.933635 S    
C68   C69   1.394591 A    
C78   C79   1.398131 A    
C81   C82   1.396622 A    
C45   C53   1.490263 S    
C17   C22   1.408739 A    
C23   I13   2.140346 S    
C65   C70   1.413350 A    
C7    C11   1.576616 S    
O2    C1    1.304585 A    
C8    I1    2.148430 S    
C3    C18   1.449318 S    
C34   C42   1.422112 A    
C13   C83   1.560446 S    
C54   C55   1.396961 A    
O4    C2    1.301906 A    
C75   H32   1.081304 S    
C75   C76   1.397018 A    
C1    C31   1.469969 S    
C59   C60   1.409554 A    
C36   C38   1.431003 A    
C73   H30   1.082745 S    
C86   H41   1.082310 S    
C61   C62   1.397582 A    
C83   C88   1.416844 A    
C30   C47   1.469445 S    
Cu1   Cu2   2.707634 S    
C43   C44   1.399674 A    
C23   C24   1.379226 A    
C39   C40   1.434628 A    
C48   C49   1.388625 A    
C47   C52   1.406768 A    
Cu2   O6    1.961184 S    
C69   H27   1.082371 S    
C26   C27   1.415919 A    
C62   C63   1.397412 A    
C63   H22   1.082635 S    
C80   C81   1.389751 A    
C70   H28   1.076065 S    
C33   N1    1.382009 A    
C71   C72   1.414043 A    
C17   H7    1.080036 S    
C57   H17   1.081155 S    
C44   I11   2.142742 S    
C6    C65   1.537394 S    
C73   C74   1.392959 A    
