data_mof_unit_50276.cif
_audit_creation_date              2012-12-11T15:07:36-0500
_audit_creation_method            fapswitch 2.2
_symmetry_space_group_name_H-M    P1
_symmetry_Int_Tables_number       1
_space_group_crystal_system       triclinic
_cell_length_a                    21.636104
_cell_length_b                    7.211479
_cell_length_c                    18.603815
_cell_angle_alpha                 90.005033
_cell_angle_beta                  95.941735
_cell_angle_gamma                 89.912703
_cell_volume                      2887.12409222

loop_
_atom_site_label
_atom_site_type_symbol
_atom_type_description
_atom_site_fract_x
_atom_site_fract_y
_atom_site_fract_z
_atom_type_partial_charge
O1    O     O_R   0.449650 0.506500 0.414480 -0.532101
O2    O     O_R   0.550350 0.006500 0.585520 -0.532636
O3    O     O_R   0.432010 0.173150 0.560250 -0.539678
O4    O     O_R   0.567990 0.673150 0.439750 -0.539244
C1    C     C_R   0.416137 0.344778 0.581072 0.685516
C2    C     C_R   0.584402 0.844585 0.419640 0.685148
O5    O     O_R   0.442320 0.176650 0.413480 -0.533306
O6    O     O_R   0.557680 0.676650 0.586520 -0.534182
O7    O     O_R   0.560730 0.008380 0.437700 -0.537827
O8    O     O_R   0.439270 0.508380 0.562300 -0.538510
C3    C     C_R   0.428498 0.345174 0.387622 0.676512
C4    C     C_R   0.571536 0.844975 0.612373 0.673613
O9    O     O_3   0.538840 0.339860 0.508120 -0.373108
O10   O     O_3   0.461160 0.839860 0.491880 -0.371892
V1    V     V_3+5 0.492800 0.064220 0.498490 1.415204
V2    V     V_3+5 0.507200 0.564220 0.501510 1.414992
C5    C     C_R   0.871081 0.986848 0.690037 -0.159359
C6    C     C_R   0.128156 0.474269 0.310450 -0.159266
H1    H     H_    0.789065 0.987249 0.573968 0.126401
H2    H     H_    0.209808 0.468405 0.426814 0.126382
C7    C     C_R   0.886456 0.942968 0.819626 -0.034153
C8    C     C_R   0.113489 0.441670 0.180351 -0.034617
C9    C     C_R   0.586180 0.811272 0.744578 -0.159419
C10   C     C_R   0.414381 0.319883 0.255108 -0.160313
C11   C     C_R   0.622396 0.806870 0.810777 -0.119373
C12   C     C_R   0.378372 0.318956 0.188750 -0.119397
C13   C     C_R   0.686131 0.839704 0.815020 -0.157766
C14   C     C_R   0.314428 0.348497 0.184613 -0.157283
C15   C     C_R   0.715698 0.878761 0.752387 0.076980
C16   C     C_R   0.284425 0.380443 0.247530 0.077140
C17   C     C_R   0.677911 0.885233 0.684355 0.069161
C18   C     C_R   0.321956 0.382769 0.315761 0.068653
C19   C     C_R   0.781389 0.911230 0.755021 0.073157
C20   C     C_R   0.218554 0.409913 0.244986 0.073235
C21   C     C_R   0.807242 0.951421 0.689574 0.138135
C22   C     C_R   0.192233 0.442522 0.310763 0.138032
C23   C     C_R   0.769365 0.956981 0.623923 -0.200467
C24   C     C_R   0.229864 0.443960 0.376613 -0.199772
C25   C     C_R   0.705885 0.924033 0.621210 -0.192597
C26   C     C_R   0.293546 0.414266 0.379206 -0.191921
C27   C     C_R   0.822586 0.906232 0.820033 -0.214230
C28   C     C_R   0.177610 0.408933 0.179765 -0.213884
C29   C     C_R   0.910129 0.983957 0.754459 -0.165391
C30   C     C_R   0.089310 0.474856 0.245868 -0.166143
C31   C     C_R   0.612854 0.850672 0.681025 -0.078167
C32   C     C_R   0.387237 0.351906 0.318957 -0.078593
H3    H     H_    0.806604 0.876952 0.871807 0.093664
H4    H     H_    0.193933 0.385228 0.127745 0.093977
H5    H     H_    0.536841 0.783253 0.742847 0.102121
H6    H     H_    0.463932 0.295174 0.256715 0.104492
H7    H     H_    0.600868 0.776630 0.859455 0.119741
H8    H     H_    0.400248 0.294343 0.139842 0.119600
H9    H     H_    0.678771 0.929662 0.568955 0.111059
H10   H     H_    0.320468 0.416514 0.431616 0.111971
C33   C     C_R   0.645803 0.709805 0.323999 -0.217375
C34   C     C_R   0.361933 0.519423 0.673152 -0.210360
C35   C     C_R   0.634901 0.856391 0.371140 -0.077212
C36   C     C_R   0.366976 0.357804 0.631330 -0.079205
C37   C     C_R   0.671306 0.018333 0.370174 -0.221195
C38   C     C_R   0.324733 0.211797 0.637715 -0.226110
C39   C     C_R   0.717542 0.035027 0.322812 0.088693
C40   C     C_R   0.277724 0.227433 0.684319 0.090555
C41   C     C_R   0.727316 0.888913 0.274876 0.054824
C42   C     C_R   0.273342 0.389852 0.725994 0.054762
C43   C     C_R   0.691273 0.725847 0.275433 0.089705
C44   C     C_R   0.315775 0.535959 0.720492 0.085926
C45   C     C_R   0.754036 0.195809 0.322283 -0.197240
C46   C     C_R   0.234783 0.083800 0.689860 -0.185245
C47   C     C_R   0.799419 0.212635 0.274181 -0.187206
C48   C     C_R   0.188451 0.099804 0.736763 -0.196869
C49   C     C_R   0.809070 0.069327 0.225494 0.090709
C50   C     C_R   0.184056 0.260048 0.778851 0.086824
C51   C     C_R   0.773095 0.906136 0.226148 0.054784
C52   C     C_R   0.226439 0.406261 0.773261 0.055068
C53   C     C_R   0.782893 0.759950 0.178254 0.089076
C54   C     C_R   0.222052 0.568725 0.814910 0.091474
C55   C     C_R   0.746452 0.599081 0.178837 -0.196731
C56   C     C_R   0.264965 0.712405 0.809339 -0.185623
C57   C     C_R   0.700995 0.582402 0.226839 -0.187024
C58   C     C_R   0.311344 0.696289 0.762517 -0.196661
C59   C     C_R   0.854354 0.085662 0.176686 -0.219876
C60   C     C_R   0.138027 0.276373 0.826392 -0.212026
C61   C     C_R   0.865201 0.939089 0.129514 -0.079563
C62   C     C_R   0.133025 0.438013 0.868200 -0.080426
C63   C     C_R   0.829047 0.776742 0.130803 -0.220623
C64   C     C_R   0.175104 0.584294 0.861584 -0.227414
H11   H     H_    0.663832 0.131710 0.406579 0.131200
H12   H     H_    0.327820 0.087094 0.605736 0.131467
H13   H     H_    0.747247 0.309294 0.358851 0.133693
H14   H     H_    0.237173 0.958495 0.658113 0.136433
H15   H     H_    0.826844 0.338340 0.274897 0.136052
H16   H     H_    0.156175 0.986217 0.740344 0.131267
H17   H     H_    0.882126 0.210665 0.176641 0.124832
H18   H     H_    0.105652 0.163087 0.830261 0.126814
H19   H     H_    0.753279 0.485521 0.142318 0.132900
H20   H     H_    0.262560 0.837745 0.841062 0.136129
O11   O     O_R   0.060820 0.290050 0.937800 -0.539495
O12   O     O_R   0.939180 0.790050 0.062200 -0.538780
O13   O     O_R   0.057690 0.616620 0.086540 -0.534992
O14   O     O_R   0.942310 0.116620 0.913460 -0.535959
C65   C     C_R   0.071569 0.448657 0.112476 0.685697
C66   C     C_R   0.928422 0.948870 0.887505 0.682410
O15   O     O_R   0.068010 0.619890 0.939770 -0.540732
O16   O     O_R   0.931990 0.119890 0.060230 -0.540376
O17   O     O_R   0.949640 0.787940 0.914460 -0.533121
O18   O     O_R   0.050360 0.287940 0.085540 -0.532706
C67   C     C_R   0.084042 0.450940 0.918659 0.697268
C68   C     C_R   0.915438 0.951110 0.080673 0.696705
O19   O     O_3   0.961210 0.453080 0.991940 -0.374593
O20   O     O_3   0.038790 0.953080 0.008060 -0.373358
V3    V     V_3+5 0.007200 0.728820 0.001500 1.409622
V4    V     V_3+5 0.992800 0.228820 0.998500 1.409024
H21   H     H_    0.959090 0.014111 0.753515 0.103507
H22   H     H_    0.040108 0.501370 0.246978 0.105556
H23   H     H_    0.836600 0.663218 0.094495 0.129764
H24   H     H_    0.171971 0.709077 0.893509 0.129570
H25   H     H_    0.673549 0.456731 0.226098 0.135925
H26   H     H_    0.343643 0.809829 0.758970 0.131252
H27   H     H_    0.890867 0.018378 0.640263 0.113980
H28   H     H_    0.108000 0.499819 0.360497 0.113773
H29   H     H_    0.710917 0.833284 0.868222 0.108376
H30   H     H_    0.289838 0.345324 0.131263 0.108564
H31   H     H_    0.617915 0.585001 0.323843 0.125662
H32   H     H_    0.394387 0.632590 0.669494 0.127963

loop_
_geom_bond_atom_site_label_1
_geom_bond_atom_site_label_2
_ccdc_geom_bond_type
C16   C18   A    
C41   C43   A    
C43   C57   A    
C13   H29   S    
C54   C64   A    
C13   C15   A    
O1    C3    A    
O2    C4    A    
C2    O7    A    
C5    C29   A    
C38   H12   S    
O12   C68   A    
O18   V4    S    
O5    C3    A    
C25   H9    S    
C8    C65   S    
C52   C54   A    
C1    C36   S    
C9    C31   A    
C34   H32   S    
C64   H24   S    
C21   C23   A    
C54   C56   A    
C6    C30   A    
C56   C58   A    
C9    H5    S    
C36   C38   A    
C15   C19   A    
C45   H13   S    
C62   C67   S    
C59   H17   S    
C61   C68   S    
C66   O17   A    
C38   C40   A    
C47   C49   A    
O20   V3    S    
C60   C62   A    
C40   C42   A    
H1    C23   S    
C59   C61   A    
C7    C29   A    
C53   C63   A    
C8    C30   A    
C56   H20   S    
C20   C28   A    
C46   H14   S    
O5    V1    S    
O17   V3    S    
C30   H22   S    
O6    V2    S    
C51   C53   A    
C2    C35   S    
C33   C43   A    
C33   H31   S    
C55   C57   A    
C10   H6    S    
C58   H26   S    
C37   C39   A    
C16   C20   A    
C63   H23   S    
C50   C52   A    
O19   V4    S    
C49   C51   A    
O11   V4    S    
C41   C51   A    
C55   H19   S    
C45   C47   A    
C42   C44   A    
O4    V2    S    
C11   H7    S    
C12   H8    S    
H2    C24   S    
C39   C45   A    
O6    C4    A    
O13   V3    S    
O14   C66   A    
C27   H3    S    
O1    V2    S    
C28   H4    S    
O2    V1    S    
C53   C55   A    
C7    C27   A    
C7    C66   S    
O4    C2    A    
O13   C65   A    
O14   V4    S    
C26   H10   S    
C33   C35   A    
C60   H18   S    
C6    H28   S    
O16   C68   A    
O3    V1    S    
O16   V4    S    
C14   H30   S    
C65   O18   A    
O12   V3    S    
C61   C63   A    
C18   C32   A    
C39   C41   A    
C48   H16   S    
C10   C12   A    
C4    C31   S    
O3    C1    A    
C48   C50   A    
O15   V3    S    
C11   C13   A    
C44   C58   A    
C12   C14   A    
C40   C46   A    
C19   C27   A    
C22   C24   A    
O7    V1    S    
C10   C32   A    
C1    O8    A    
C15   C17   A    
O8    V2    S    
C29   H21   S    
C24   C26   A    
C8    C28   A    
C34   C44   A    
C57   H25   S    
C14   C16   A    
C19   C21   A    
C34   C36   A    
C20   C22   A    
C18   C26   A    
C37   H11   S    
C35   C37   A    
C5    H27   S    
O11   C67   A    
C9    C11   A    
C23   C25   A    
C17   C31   A    
O9    V2    S    
C17   C25   A    
C46   C48   A    
C42   C52   A    
O10   V1    S    
C62   C64   A    
C3    C32   S    
O15   C67   A    
C5    C21   A    
C47   H15   S    
C6    C22   A    
C50   C60   A    
C49   C59   A    
