data_mof_unit_27654.cif
_audit_creation_date              2013-03-05T15:55:05-0500
_audit_creation_method            fapswitch 2.2
_symmetry_space_group_name_H-M    P1
_symmetry_Int_Tables_number       1
_space_group_crystal_system       triclinic
_cell_length_a                    13.525678
_cell_length_b                    14.115794
_cell_length_c                    29.923645
_cell_angle_alpha                 97.913114
_cell_angle_beta                  90.199932
_cell_angle_gamma                 118.885479
_cell_volume                      4938.60092142

loop_
_atom_site_label
_atom_site_type_symbol
_atom_site_description
_atom_site_fract_x
_atom_site_fract_y
_atom_site_fract_z
_atom_type_partial_charge
O1    O     O_R   0.493980 0.188910 0.559650 -0.504858
O2    O     O_R   0.678640 0.153520 0.554450 -0.527441
C1    C     C_R   0.722808 0.100103 0.568563 0.804944
O3    O     O_R   0.698130 0.004030 0.549500 -0.503008
O4    O     O_R   0.481060 0.827210 0.535360 -0.500476
C2    C     C_R   0.383094 0.787554 0.550798 0.895448
O5    O     O_R   0.309260 0.811560 0.537660 -0.537382
O6    O     O_R   0.341620 0.023400 0.546290 -0.531457
C3    C     C_R   0.396487 0.118968 0.569060 0.832756
O7    O     O_R   0.493030 0.185890 0.461780 -0.505424
O8    O     O_R   0.677760 0.150720 0.463730 -0.541374
C4    C     C_R   0.719500 0.094955 0.442545 0.795532
O9    O     O_R   0.697180 0.001010 0.451640 -0.532914
O10   O     O_R   0.480180 0.824400 0.444640 -0.499964
C5    C     C_R   0.407838 0.842650 0.423638 0.818827
O11   O     O_R   0.308310 0.808540 0.439800 -0.487906
O12   O     O_R   0.340740 0.020600 0.455570 -0.531669
C6    C     C_R   0.392131 0.116629 0.444951 0.859247
Cr1   Cr    Cr6+3 0.583430 0.162610 0.509470 1.067450
Cr2   Cr    Cr6+3 0.584210 0.916680 0.495400 1.116460
Cr3   Cr    Cr6+3 0.332380 0.920740 0.495100 1.085243
O13   O     O_3   0.500010 0.000010 0.499990 -0.414197
H1    H     H_    0.169733 0.645045 0.898694 0.232861
H2    H     H_    0.201404 0.703086 0.680110 0.230172
H3    H     H_    0.208840 0.740111 0.603395 0.201213
C7    C     C_R   0.362416 0.730994 0.590812 -0.227510
C8    C     C_R   0.441554 0.704118 0.608545 0.270574
C9    C     C_R   0.437579 0.683758 0.653740 0.313315
C10   C     C_R   0.352899 0.688448 0.679933 -0.082805
C11   C     C_R   0.268041 0.702136 0.660354 -0.003528
C12   C     C_R   0.272100 0.722379 0.616213 -0.125580
C13   C     C_R   0.258818 0.680955 0.838974 0.479362
C14   C     C_R   0.240957 0.647653 0.881412 -0.213446
C15   C     C_R   0.410187 0.628276 0.879506 0.354934
C16   C     C_R   0.422600 0.653941 0.835674 -0.149958
C17   C     C_R   0.345059 0.675357 0.814715 -0.131725
C18   C     C_1   0.350647 0.682236 0.767422 0.259653
C19   C     C_1   0.352524 0.683883 0.727448 0.299324
C20   C     C_R   0.310639 0.613176 0.900812 -0.282605
H4    H     H_    0.492425 0.655778 0.817381 0.221686
C21   C     C_3   0.203724 0.117092 0.720752 0.230788
C22   C     C_3   0.227263 0.051299 0.751778 0.292122
C23   C     C_1   0.291703 0.196269 0.876100 -0.067349
C24   C     C_1   0.360076 0.135888 0.612436 -0.008674
C25   C     C_3   0.266395 0.222034 0.756484 -0.301346
C26   C     C_3   0.292791 0.155098 0.787034 -0.168831
C27   C     C_3   0.377755 0.247296 0.734074 0.455751
C28   C     C_3   0.313639 0.143918 0.698241 -0.214594
C29   C     C_3   0.404774 0.181585 0.764955 -0.181663
C30   C     C_3   0.337002 0.077364 0.729354 0.274235
C31   C     C_1   0.291648 0.172511 0.836054 0.184269
C32   C     C_1   0.334664 0.141656 0.650597 0.258696
H5    H     H_    0.486943 0.206936 0.783577 0.246531
H6    H     H_    0.236975 0.281462 0.768218 0.209648
C33   C     C_3   0.948160 0.272390 0.731568 0.321718
C34   C     C_3   0.870083 0.289254 0.765737 0.322292
C35   C     C_1   0.902090 0.207511 0.877779 -0.061418
C36   C     C_1   0.780992 0.139452 0.612561 -0.027406
C37   C     C_3   0.946303 0.181480 0.756432 -0.310464
C38   C     C_3   0.866123 0.197757 0.789830 -0.221915
C39   C     C_3   0.839603 0.095861 0.725666 0.269884
C40   C     C_3   0.843128 0.185214 0.700357 -0.235468
C41   C     C_3   0.761333 0.111583 0.759071 0.243563
C42   C     C_3   0.765798 0.202029 0.734561 0.142985
C43   C     C_1   0.880531 0.201674 0.838331 0.215367
C44   C     C_1   0.816915 0.165897 0.651569 0.267838
H7    H     H_    0.019772 0.171713 0.766021 0.194648
C45   C     C_3   0.293574 0.733371 0.258979 0.307992
C46   C     C_3   0.336269 0.803657 0.220916 0.222193
C47   C     C_1   0.318415 0.625101 0.109249 0.007909
C48   C     C_1   0.412205 0.833291 0.375344 -0.073551
C49   C     C_3   0.331576 0.654283 0.234544 0.169658
C50   C     C_3   0.372691 0.723462 0.195758 -0.280922
C51   C     C_3   0.449719 0.722409 0.260149 0.168664
C52   C     C_3   0.411944 0.801679 0.285145 -0.281089
C53   C     C_3   0.491339 0.792915 0.221820 0.210614
C54   C     C_3   0.453520 0.872089 0.246982 0.178520
C55   C     C_1   0.346482 0.673444 0.147643 0.319485
C56   C     C_1   0.417131 0.824766 0.334832 0.264411
H8    H     H_    0.160762 0.054381 0.078166 0.215113
H9    H     H_    0.151607 0.995319 0.315171 0.257293
C57   C     C_R   0.340334 0.140450 0.407120 -0.320470
C58   C     C_R   0.399491 0.242430 0.391834 0.281083
C59   C     C_R   0.378771 0.249730 0.346457 0.260796
C60   C     C_R   0.295906 0.155302 0.318108 -0.162501
C61   C     C_R   0.222643 0.062575 0.336348 -0.083692
C62   C     C_R   0.240037 0.056614 0.381734 0.318509
C63   C     C_R   0.213175 0.090177 0.148818 0.416069
C64   C     C_R   0.224511 0.113188 0.104401 -0.253914
C65   C     C_R   0.393406 0.289516 0.129095 0.428521
C66   C     C_R   0.382770 0.264941 0.173104 -0.202999
C67   C     C_R   0.292349 0.168924 0.183445 -0.099595
C68   C     C_1   0.284838 0.156205 0.230260 0.216525
C69   C     C_1   0.285560 0.152839 0.270142 0.226821
C70   C     C_R   0.309457 0.214466 0.094101 -0.230780
H10   H     H_    0.443535 0.323383 0.200273 0.225043
H11   H     H_    0.740303 0.265711 0.406193 0.216783
C71   C     C_R   0.780614 0.134818 0.402508 -0.185454
C72   C     C_R   0.830765 0.080576 0.377266 -0.157249
C73   C     C_R   0.871840 0.109086 0.335210 0.344805
C74   C     C_R   0.856230 0.189651 0.317501 -0.164727
C75   C     C_R   0.810413 0.247511 0.344025 0.445276
C76   C     C_R   0.776819 0.221754 0.386575 -0.175072
C77   C     C_R   0.896649 0.305953 0.164827 0.317694
C78   C     C_R   0.885273 0.298732 0.117448 0.221258
C79   C     C_R   0.856970 0.113005 0.107812 0.331269
C80   C     C_R   0.854534 0.116023 0.154553 -0.152178
C81   C     C_R   0.879474 0.212572 0.183182 -0.142981
C82   C     C_1   0.878075 0.209137 0.230995 0.218199
C83   C     C_1   0.871818 0.202024 0.270638 0.166991
C84   C     C_R   0.885949 0.210010 0.089681 -0.307574
H12   H     H_    0.836344 0.015003 0.390019 0.220973
H13   H     H_    0.836617 0.043464 0.168846 0.255846
O14   O     O_R   0.969650 0.150960 0.933380 -0.520785
O15   O     O_R   0.187740 0.180870 0.937580 -0.537235
C85   C     C_R   0.283461 0.232443 0.922036 0.804407
O16   O     O_R   0.358510 0.327410 0.940870 -0.490769
O17   O     O_R   0.324180 0.507870 0.953930 -0.494159
C86   C     C_R   0.268654 0.550297 0.938917 0.830327
O18   O     O_R   0.170560 0.527890 0.952050 -0.534442
O19   O     O_R   0.987620 0.318470 0.945550 -0.522487
C87   C     C_R   0.945798 0.222329 0.922930 0.807908
O20   O     O_R   0.976400 0.159270 0.031530 -0.517987
O21   O     O_R   0.194000 0.188570 0.028560 -0.547757
C88   C     C_R   0.291882 0.245496 0.050329 0.852908
O22   O     O_R   0.365260 0.335720 0.039020 -0.483525
O23   O     O_R   0.330440 0.515580 0.044910 -0.505753
C89   C     C_R   0.275697 0.559416 0.065170 0.804647
O24   O     O_R   0.177310 0.536200 0.050190 -0.503387
O25   O     O_R   0.993870 0.326170 0.036530 -0.498842
C90   C     C_R   0.949267 0.230529 0.048524 0.892635
Cr4   Cr    Cr6+3 0.086810 0.177030 0.983130 1.051289
Cr5   Cr    Cr6+3 0.337180 0.419300 0.994610 1.141931
Cr6   Cr    Cr6+3 0.084840 0.422330 0.995830 1.111079
O26   O     O_3   0.169610 0.339550 0.991190 -0.390134
N1    N     N_R   0.096991 0.078902 0.694522 0.149315
O27   O     O_R   0.086539 0.143430 0.670211 -0.307145
O28   O     O_R   0.025421 0.974571 0.686163 -0.251501
N2    N     N_R   0.367981 0.992972 0.715065 0.175547
O29   O     O_R   0.367704 0.931696 0.743744 -0.285754
O30   O     O_R   0.375659 0.965608 0.672452 -0.384784
S1    S     S_3+6 0.472285 0.381852 0.723219 0.173897
O31   O     O_2   0.545532 0.376969 0.686328 -0.231749
O32   O     O_2   0.403757 0.431784 0.708682 -0.268440
O33   O     O_3   0.553868 0.458107 0.770848 -0.439651
H14   H     H_    0.596809 0.533406 0.763638 0.411813
S2    S     S_3+6 0.888566 0.415069 0.796600 0.158830
O34   O     O_2   0.794504 0.390609 0.827410 -0.264054
O35   O     O_2   0.000058 0.472087 0.824499 -0.333276
O36   O     O_3   0.885778 0.495454 0.760617 -0.381619
H15   H     H_    0.880101 0.555272 0.779904 0.413644
S3    S     S_3+6 0.071176 0.381005 0.713086 0.128165
O37   O     O_2   0.098831 0.340364 0.668452 -0.240449
O38   O     O_2   0.049519 0.473511 0.707253 -0.256384
O39   O     O_3   0.181923 0.426606 0.751338 -0.491270
H16   H     H_    0.152218 0.433553 0.781078 0.328650
N3    N     N_R   0.668736 0.213176 0.721233 0.153138
O40   O     O_R   0.662658 0.300233 0.737446 -0.276580
O41   O     O_R   0.595830 0.143277 0.688610 -0.371832
S4    S     S_3+6 0.638520 0.003613 0.777261 0.169195
O42   O     O_2   0.673833 0.949309 0.808814 -0.253020
O43   O     O_2   0.570157 0.049476 0.801560 -0.264866
O44   O     O_3   0.561013 0.910671 0.732087 -0.437204
H17   H     H_    0.575663 0.952189 0.706534 0.362448
N4    N     N_R   0.820880 0.987875 0.705509 0.221356
O45   O     O_R   0.818927 0.920391 0.731469 -0.234177
O46   O     O_R   0.801448 0.956488 0.661962 -0.285016
S5    S     S_3+6 0.175601 0.733222 0.818218 0.140542
O47   O     O_2   0.249179 0.854848 0.820943 -0.260862
O48   O     O_2   0.132382 0.682240 0.769844 -0.264755
O49   O     O_3   0.065401 0.708478 0.849718 -0.456736
H18   H     H_    0.022999 0.738561 0.835252 0.410510
N5    N     N_R   0.275240 0.850280 0.200489 0.209877
O50   O     O_R   0.249557 0.916668 0.225662 -0.318223
O51   O     O_R   0.246437 0.826271 0.157234 -0.298694
S6    S     S_3+6 0.168129 0.709643 0.286242 0.199897
O52   O     O_2   0.136514 0.619874 0.314119 -0.243160
O53   O     O_2   0.192559 0.813397 0.316785 -0.308071
O54   O     O_3   0.061387 0.677685 0.248023 -0.367805
H19   H     H_    0.998956 0.674282 0.266163 0.437112
N6    N     N_R   0.518971 0.991286 0.253427 0.127287
O55   O     O_R   0.547599 0.041841 0.218532 -0.324916
O56   O     O_R   0.547853 0.047711 0.294000 -0.385912
S7    S     S_3+6 0.620268 0.831109 0.195394 0.198988
O57   O     O_2   0.626623 0.729724 0.177218 -0.181884
O58   O     O_2   0.622167 0.889944 0.156954 -0.291286
O59   O     O_3   0.731794 0.912895 0.232972 -0.408280
H20   H     H_    0.712633 0.967088 0.249229 0.334589
S8    S     S_3+6 0.529258 0.673718 0.287806 0.258167
O60   O     O_2   0.643945 0.768607 0.304668 -0.226540
O61   O     O_2   0.468806 0.623785 0.327454 -0.220421
O62   O     O_3   0.545441 0.580524 0.251827 -0.352515
H21   H     H_    0.469485 0.530366 0.236140 0.382175
N7    N     N_R   0.267938 0.535256 0.229894 0.184554
O63   O     O_R   0.247940 0.488833 0.265906 -0.261811
O64   O     O_R   0.239155 0.474785 0.190152 -0.362516
N8    N     N_R   0.118909 0.989378 0.157932 0.187959
O65   O     O_R   0.074216 0.983976 0.196578 -0.278396
O66   O     O_R   0.070397 0.904808 0.125988 -0.258765
N9    N     N_R   0.152998 0.970153 0.402300 0.165718
O67   O     O_R   0.077706 0.880139 0.377340 -0.266823
O68   O     O_R   0.133275 0.990891 0.444048 -0.330164
N10   N     N_R   0.470119 0.338596 0.423836 0.196587
O69   O     O_R   0.424194 0.370877 0.456280 -0.291513
O70   O     O_R   0.579576 0.380586 0.426105 -0.291899
S9    S     S_3+6 0.508709 0.417953 0.121472 0.118001
O71   O     O_2   0.464853 0.495248 0.115308 -0.300665
O72   O     O_2   0.593059 0.466472 0.162183 -0.235514
O73   O     O_3   0.573888 0.401823 0.075591 -0.451174
H22   H     H_    0.630082 0.477192 0.071413 0.423077
S10   S     S_3+6 0.451092 0.374868 0.324425 0.176405
O74   O     O_2   0.363758 0.392857 0.301744 -0.255340
O75   O     O_2   0.519737 0.471117 0.360706 -0.190519
O76   O     O_3   0.537114 0.366739 0.285380 -0.429605
H23   H     H_    0.526698 0.291770 0.283013 0.357670
S11   S     S_3+6 0.851666 0.388524 0.092672 0.184946
O77   O     O_2   0.958039 0.489067 0.085001 -0.216655
O78   O     O_2   0.783862 0.331266 0.047977 -0.301600
O79   O     O_3   0.774958 0.426957 0.126864 -0.372152
H24   H     H_    0.711136 0.357368 0.133322 0.373275
S12   S     S_3+6 0.953346 0.435410 0.199490 0.201652
O80   O     O_2   0.029090 0.524168 0.173542 -0.212460
O81   O     O_2   0.859717 0.456608 0.215632 -0.222712
O82   O     O_3   0.032126 0.439412 0.243745 -0.426237
H25   H     H_    0.984150 0.427294 0.269272 0.406836
S13   S     S_3+6 0.786693 0.348795 0.325079 0.091414
O83   O     O_2   0.894456 0.456766 0.333791 -0.281365
O84   O     O_2   0.747899 0.318845 0.275619 -0.281795
O85   O     O_3   0.686725 0.361485 0.353933 -0.463234
H26   H     H_    0.705847 0.438892 0.354737 0.443375
N11   N     N_R   0.828908 0.011280 0.079232 0.173687
O86   O     O_R   0.846963 0.938374 0.094368 -0.271332
O87   O     O_R   0.771690 0.985216 0.040267 -0.322012
N12   N     N_R   0.925485 0.053458 0.310565 0.144274
O88   O     O_R   0.001520 0.101672 0.282853 -0.341033
O89   O     O_R   0.907531 0.958827 0.319275 -0.273021
N13   N     N_R   0.528145 0.701816 0.581578 0.173423
O90   O     O_R   0.634383 0.761092 0.596351 -0.255685
O91   O     O_R   0.500881 0.641365 0.541815 -0.289766
S14   S     S_3+6 0.523111 0.619607 0.905369 0.129029
O92   O     O_2   0.497273 0.502285 0.897798 -0.264087
O93   O     O_2   0.631382 0.686446 0.884443 -0.263375
O94   O     O_3   0.541525 0.666334 0.961277 -0.442857
H27   H     H_    0.553034 0.741737 0.963642 0.355116
N14   N     N_R   0.518255 0.657751 0.672396 0.194181
O95   O     O_R   0.543477 0.589054 0.648644 -0.237302
O96   O     O_R   0.566118 0.701326 0.713221 -0.298391
N15   N     N_R   0.143497 0.944161 0.761432 0.221467
O97   O     O_R   0.109512 0.857979 0.730582 -0.261306
O98   O     O_R   0.092319 0.936415 0.798553 -0.320288

loop_
_geom_bond_atom_site_label_1
_geom_bond_atom_site_label_2
_geom_bond_distance
_ccdc_geom_bond_type
H3    C12   1.083008 S    
N7    O64   1.300269 A    
O49   H18   0.990347 S    
C29   H5    1.109187 S    
N14   O96   1.301063 A    
C74   C75   1.412448 A    
C33   C37   1.559755 S    
O20   Cr4   2.035671 S    
C47   C55   1.208522 T    
C49   C51   1.539229 S    
C21   C22   1.531942 S    
C73   N12   1.442803 S    
O44   H17   0.989768 S    
S11   O79   1.678095 S    
C77   C81   1.413324 A    
C33   C34   1.549413 S    
O16   Cr5   2.035221 S    
C89   O24   1.270153 A    
C29   C30   1.548638 S    
C48   C56   1.206925 T    
O33   H14   0.990573 S    
C45   S6    1.786745 S    
C59   S10   1.779766 S    
C33   S3    1.788938 S    
C27   C29   1.552088 S    
O4    Cr2   1.922621 S    
O25   Cr6   1.921393 S    
C25   C26   1.554795 S    
C79   N11   1.438893 S    
C45   C52   1.548559 S    
C4    O9    1.279428 A    
N10   O70   1.299307 A    
C26   C29   1.548655 S    
O8    Cr1   1.919693 S    
C7    C8    1.419528 A    
N4    O45   1.300438 A    
C51   C53   1.549321 S    
C38   C41   1.533832 S    
O4    C2    1.281170 A    
C62   N9    1.441512 S    
C67   C68   1.434441 S    
C17   C18   1.431560 S    
S2    O35   1.500812 D    
C18   C19   1.199706 T    
S11   O78   1.503575 D    
S12   O82   1.674426 S    
C57   C62   1.418498 A    
C49   N7    1.456293 S    
C11   C12   1.385145 A    
S9    O72   1.503475 D    
C79   C80   1.394411 A    
C71   C76   1.399181 A    
C33   C40   1.545999 S    
C75   S13   1.770150 S    
N13   O90   1.300943 A    
C85   O16   1.272152 A    
O21   Cr4   1.916682 S    
S8    O61   1.501048 D    
C15   C16   1.397622 A    
C22   C26   1.535764 S    
S1    O31   1.502518 D    
H8    C64   1.083151 S    
C39   C41   1.530516 S    
O17   C86   1.277034 A    
C80   H13   1.082705 S    
C40   C42   1.542180 S    
O94   H27   0.990574 S    
C37   H7    1.109087 S    
C35   C87   1.419801 S    
C65   S9    1.776472 S    
C46   C54   1.536363 S    
C36   C44   1.199499 T    
S5    O49   1.682144 S    
S2    O34   1.503093 D    
O22   Cr5   2.040407 S    
N9    O67   1.301033 A    
H1    C14   1.082261 S    
C42   N3    1.456208 S    
C53   S7    1.782039 S    
C54   N6    1.456815 S    
C80   C81   1.391919 A    
C34   C42   1.540304 S    
C46   C50   1.548431 S    
S13   O83   1.502360 D    
C81   C82   1.438105 S    
O19   Cr6   1.912726 S    
C10   C11   1.392356 A    
C15   S14   1.773482 S    
C4    C71   1.475943 S    
H9    C61   1.083903 S    
C28   C32   1.453788 S    
O15   Cr4   1.919954 S    
O17   Cr5   1.925032 S    
C39   C40   1.540093 S    
S5    O48   1.501932 D    
N7    O63   1.299638 A    
C66   H10   1.082867 S    
C7    C12   1.404707 A    
N3    O41   1.298851 A    
C78   S11   1.782077 S    
N5    O50   1.299324 A    
Cr3   O13   1.978814 S    
O82   H25   0.982856 S    
N3    O40   1.298447 A    
S1    O33   1.681254 S    
C75   C76   1.389839 A    
N12   O89   1.301594 A    
C41   S4    1.779676 S    
C77   C78   1.409847 A    
O85   H26   0.990484 S    
N15   O98   1.300254 A    
O73   H22   0.990580 S    
C30   N2    1.456279 S    
C79   C84   1.417918 A    
C25   C27   1.549039 S    
O7    C6    1.281600 A    
O1    Cr1   2.037019 S    
C37   C39   1.546053 S    
C51   C52   1.548273 S    
C40   C44   1.457644 S    
C41   C42   1.534678 S    
C16   H4    1.084477 S    
C15   C20   1.425124 A    
S4    O44   1.679453 S    
C63   C67   1.407510 A    
C65   C70   1.425549 A    
Cr1   O13   1.984471 S    
O1    C3    1.270521 A    
C59   C60   1.411116 A    
C58   N10   1.433584 S    
N6    O56   1.300313 A    
C35   C43   1.196986 T    
C66   C67   1.394693 A    
S9    O71   1.502097 D    
C45   C46   1.541849 S    
C74   C83   1.440609 S    
N6    O55   1.300218 A    
C50   C55   1.473724 S    
O20   C90   1.273646 A    
C26   C31   1.454954 S    
C46   N5    1.456098 S    
O12   Cr3   1.924841 S    
C1    O3    1.274475 A    
C34   C38   1.542901 S    
C16   C17   1.392346 A    
S4    O43   1.502080 D    
C63   N8    1.442605 S    
C64   C70   1.412715 A    
S8    O62   1.681512 S    
S10   O74   1.500706 D    
S12   O80   1.501823 D    
O10   Cr2   1.911364 S    
C23   C85   1.423184 S    
C51   S8    1.783126 S    
C60   C69   1.435637 S    
C70   C88   1.490113 S    
C27   C28   1.539902 S    
C27   S1    1.781690 S    
S3    O39   1.679880 S    
C60   C61   1.393022 A    
O7    Cr1   2.035845 S    
C45   C49   1.541886 S    
C22   N15   1.456520 S    
S2    O36   1.681008 S    
S14   O93   1.503684 D    
O12   C6    1.277261 A    
O6    C3    1.269261 A    
N11   O87   1.301662 A    
C68   C69   1.201083 T    
C14   C20   1.406858 A    
S11   O77   1.502067 D    
C86   O18   1.283463 A    
C28   C30   1.541033 S    
C52   C54   1.544431 S    
O19   C87   1.273818 A    
H11   C76   1.082310 S    
N5    O51   1.300037 A    
C22   C30   1.528423 S    
C84   C90   1.483244 S    
S5    O47   1.501598 D    
N11   O86   1.301632 A    
Cr2   O13   1.987539 S    
C25   H6    1.108036 S    
C57   C58   1.411645 A    
S13   O84   1.500827 D    
N13   O91   1.301257 A    
C88   O22   1.273333 A    
C50   C53   1.550950 S    
S1    O32   1.502639 D    
C58   C59   1.413028 A    
N12   O88   1.301383 A    
O23   C89   1.281088 A    
C13   C17   1.404650 A    
C77   S12   1.766907 S    
O79   H24   0.990775 S    
N15   O97   1.300386 A    
C8    N13   1.435310 S    
N1    O28   1.299260 A    
C47   C89   1.440024 S    
S8    O60   1.502015 D    
C9    C10   1.412724 A    
C3    C24   1.420222 S    
O9    Cr2   2.037732 S    
S10   O75   1.501584 D    
O2    Cr1   1.918737 S    
C61   C62   1.398305 A    
O14   Cr4   2.032762 S    
C10   C19   1.432024 S    
O23   Cr5   1.917888 S    
S3    O38   1.501094 D    
C49   C50   1.549767 S    
O18   Cr6   2.039559 S    
O6    Cr3   1.916892 S    
C21   N1    1.454118 S    
C38   C43   1.453606 S    
N2    O29   1.298413 A    
S7    O59   1.679559 S    
O11   Cr3   2.032028 S    
C2    O5    1.275762 A    
O3    Cr2   2.027986 S    
S13   O85   1.674938 S    
C5    C48   1.436996 S    
Cr6   O26   1.987496 S    
O36   H15   0.990311 S    
C72   C73   1.408065 A    
C13   C14   1.395980 A    
S6    O54   1.677203 S    
C34   S2    1.785323 S    
N8    O66   1.301544 A    
O25   C90   1.289756 A    
O59   H20   0.989415 S    
S12   O81   1.502407 D    
O5    Cr3   2.042670 S    
C82   C83   1.204057 T    
O62   H21   0.989685 S    
S14   O92   1.501022 D    
C53   C54   1.549498 S    
N2    O30   1.300014 A    
S9    O73   1.682355 S    
C24   C32   1.197060 T    
C65   C66   1.397926 A    
C2    C7    1.482950 S    
C23   C31   1.198973 T    
Cr4   O26   1.984661 S    
C20   C86   1.485486 S    
C72   H12   1.082900 S    
O76   H23   0.989953 S    
S6    O53   1.500419 D    
C73   C74   1.419814 A    
C6    C57   1.487377 S    
C21   C28   1.529939 S    
S7    O58   1.502058 D    
O2    C1    1.274724 A    
C39   N4    1.457501 S    
C9    N14   1.440933 S    
S14   O94   1.682386 S    
C78   C84   1.408371 A    
N8    O65   1.301227 A    
S4    O42   1.502345 D    
H2    C11   1.084098 S    
O24   Cr6   2.029172 S    
S6    O52   1.501486 D    
O54   H19   0.990544 S    
O14   C87   1.271544 A    
C1    C36   1.424882 S    
C37   C38   1.553292 S    
S10   O76   1.683307 S    
C63   C64   1.402769 A    
N4    O46   1.299826 A    
C71   C72   1.401064 A    
O39   H16   0.989721 S    
Cr5   O26   1.978989 S    
C13   S5    1.766523 S    
C21   C25   1.549381 S    
O10   C5    1.304813 A    
N1    O27   1.298084 A    
S7    O57   1.502060 D    
S3    O37   1.500899 D    
N10   O69   1.300728 A    
O15   C85   1.268611 A    
N14   O95   1.301312 A    
C52   C56   1.471547 S    
N9    O68   1.301744 A    
C5    O11   1.311633 A    
O8    C4    1.278550 A    
O21   C88   1.282512 A    
C8    C9    1.416709 A    
