data_mof_unit_25010.cif
_audit_creation_date              2013-03-05T15:54:49-0500
_audit_creation_method            fapswitch 2.2
_symmetry_space_group_name_H-M    P1
_symmetry_Int_Tables_number       1
_space_group_crystal_system       triclinic
_cell_length_a                    19.203053
_cell_length_b                    10.724895
_cell_length_c                    9.899036
_cell_angle_alpha                 88.428634
_cell_angle_beta                  89.949388
_cell_angle_gamma                 92.188235
_cell_volume                      2036.45707296

loop_
_atom_site_label
_atom_site_type_symbol
_atom_site_description
_atom_site_fract_x
_atom_site_fract_y
_atom_site_fract_z
_atom_type_partial_charge
O1    O     O_R   0.500000 0.316780 0.614690 -0.660027
O2    O     O_R   0.499990 0.316750 0.385360 -0.614489
C1    C     C_R   0.505458 0.260314 0.502886 0.880497
O3    O     O_R   0.398140 0.500000 0.614700 -0.626700
O4    O     O_R   0.398130 0.499970 0.385370 -0.592525
C2    C     C_R   0.365136 0.504675 0.500297 0.871682
Zn1   Zn    Zn3+2 0.500000 0.500020 0.653130 0.943567
Zn2   Zn    Zn3+2 0.500000 0.499980 0.346870 1.024756
O5    O     O_R   0.500010 0.683250 0.614640 -0.625929
O6    O     O_R   0.500000 0.683220 0.385310 -0.617870
O7    O     O_R   0.601870 0.500030 0.614630 -0.620627
O8    O     O_R   0.601860 0.500000 0.385300 -0.563781
C3    C     C_R   0.494797 0.739398 0.498681 0.874200
C4    C     C_R   0.634411 0.496235 0.499898 0.909468
C5    C     C_R   0.254343 0.523766 0.630334 0.159654
C6    C     C_R   0.182819 0.497309 0.642303 -0.199130
H1    H     H_    0.156332 0.512072 0.736736 0.172585
C7    C     C_R   0.144559 0.454804 0.532294 -0.021580
C8    C     C_R   0.176519 0.445573 0.406736 -0.219877
H2    H     H_    0.145273 0.422701 0.319083 0.196828
C9    C     C_R   0.247207 0.476113 0.389947 0.296680
C10   C     C_R   0.288109 0.505676 0.504773 -0.228030
N1    N     N_R   0.033579 0.364415 0.455898 -0.167678
N2    N     N_R   0.964519 0.364298 0.451765 -0.130815
C11   C     C_R   0.928987 0.439762 0.532538 0.317902
N3    N     N_R   0.964658 0.510274 0.622744 -0.181114
N4    N     N_R   0.033634 0.509808 0.627645 -0.171007
C12   C     C_R   0.069232 0.438696 0.542506 0.317829
C13   C     C_R   0.816708 0.493277 0.628963 -0.191754
H3    H     H_    0.842612 0.513372 0.723537 0.176540
C14   C     C_R   0.745905 0.509316 0.620331 -0.213076
H4    H     H_    0.719242 0.542656 0.708049 0.191944
C15   C     C_R   0.709840 0.482015 0.501381 -0.188878
C16   C     C_R   0.746011 0.438219 0.388575 0.253855
C17   C     C_R   0.818682 0.426918 0.395327 0.124042
C18   C     C_R   0.853698 0.451849 0.518068 0.008840
H5    H     H_    0.540658 0.119163 0.299371 0.252655
C19   C     C_R   0.506049 0.101939 0.763461 -0.246790
H6    H     H_    0.536701 0.186204 0.781579 0.214861
C20   C     C_R   0.479027 0.033908 0.876162 0.376362
C21   C     C_R   0.440377 0.923076 0.855602 -0.203379
H7    H     H_    0.415623 0.871557 0.939319 0.190353
C22   C     C_R   0.437652 0.872896 0.727768 -0.218680
H8    H     H_    0.409196 0.785116 0.716480 0.169497
C23   C     C_R   0.473444 0.933158 0.618062 0.102405
C24   C     C_R   0.497208 0.056604 0.631201 0.031302
C25   C     C_R   0.512498 0.126975 0.510677 -0.139764
C26   C     C_R   0.524249 0.067218 0.389848 -0.105116
H9    H     H_    0.529756 0.894250 0.292989 0.199358
C27   C     C_R   0.515682 0.939881 0.384887 -0.144851
C28   C     C_R   0.489872 0.872530 0.497849 -0.129744
H10   H     H_    0.578701 0.640659 0.121132 0.149942
C29   C     C_R   0.407898 0.336299 0.144158 -0.061124
H11   H     H_    0.404327 0.330894 0.251403 0.192358
C30   C     C_R   0.363079 0.254818 0.076177 -0.105942
H12   H     H_    0.328784 0.191189 0.134278 0.163284
C31   C     C_R   0.362546 0.253275 0.935660 0.215120
C32   C     C_R   0.408592 0.335775 0.864044 -0.188423
H13   H     H_    0.408355 0.332328 0.757406 0.224770
C33   C     C_R   0.454624 0.419338 0.930007 0.119133
C34   C     C_R   0.454489 0.419554 0.074423 0.196577
N5    N     N_R   0.499340 0.498800 0.142780 -0.113500
C35   C     C_R   0.543315 0.577460 0.069179 -0.026354
H14   H     H_    0.578579 0.640807 0.870108 0.149326
C36   C     C_R   0.543259 0.577500 0.925949 -0.079564
N6    N     N_R   0.499320 0.498720 0.857170 -0.120791
N7    N     N_2   0.291915 0.578003 0.739820 -0.305875
H15   H     H_    0.305653 0.671050 0.724034 0.217806
C37   C     C_3   0.271886 0.543709 0.877069 -0.626211
H16   H     H_    0.316275 0.565607 0.945155 0.269982
H17   H     H_    0.258840 0.442065 0.886605 0.259921
H18   H     H_    0.226699 0.597740 0.908511 0.236403
N8    N     N_R   0.490323 0.077327 0.010541 0.182165
O9    O     O_R   0.536920 0.165451 0.033634 -0.408676
O10   O     O_R   0.454583 0.027586 0.111293 -0.458458
N9    N     N_2   0.317895 0.163590 0.870263 -0.297180
H19   H     H_    0.277035 0.126135 0.927843 0.239268
C38   C     C_3   0.302882 0.178563 0.727524 -0.777732
H20   H     H_    0.264560 0.104497 0.696945 0.246613
H21   H     H_    0.350801 0.168209 0.666684 0.241432
H22   H     H_    0.280375 0.270747 0.706143 0.246804
N10   N     N_R   0.274400 0.485914 0.254888 0.198936
O11   O     O_R   0.249173 0.411629 0.163849 -0.465739
O12   O     O_R   0.307685 0.588336 0.214922 -0.404077
N11   N     N_R   0.709358 0.401281 0.269095 0.208468
O13   O     O_R   0.670075 0.299677 0.271228 -0.375190
O14   O     O_R   0.716508 0.467176 0.157338 -0.409213
N12   N     N_2   0.856246 0.390394 0.279444 -0.289207
H23   H     H_    0.830119 0.326523 0.220040 0.268491
C39   C     C_3   0.888484 0.493113 0.201272 -0.685214
H24   H     H_    0.848111 0.552982 0.156452 0.259403
H25   H     H_    0.919958 0.455900 0.118415 0.239140
H26   H     H_    0.923625 0.550761 0.265606 0.238673

loop_
_geom_bond_atom_site_label_1
_geom_bond_atom_site_label_2
_geom_bond_distance
_ccdc_geom_bond_type
C30   H12   1.083378 S    
C35   C36   1.417820 A    
N8    O10   1.300746 A    
N8    O9    1.301462 A    
C17   C18   1.416138 A    
C4    C15   1.462291 S    
C31   C32   1.404304 A    
N11   O13   1.301098 A    
Zn1   O7    1.992657 S    
C13   C18   1.398761 A    
N3    N4    1.325686 A    
C13   H3    1.083530 S    
C31   N9    1.432339 S    
C8    C9    1.392894 A    
N9    C38   1.448186 S    
C16   C17   1.406847 A    
O4    C2    1.304828 A    
O7    C4    1.298176 A    
C38   H21   1.110085 S    
C23   C28   1.412736 A    
C32   C33   1.408389 A    
C5    C6    1.396101 A    
C2    C10   1.480241 S    
C20   N8    1.435333 S    
C7    C8    1.393321 A    
C21   H7    1.082673 S    
C37   H17   1.110627 S    
O5    C3    1.287307 A    
C3    C28   1.434358 S    
C29   C34   1.406545 A    
C5    C10   1.422797 A    
C25   C26   1.394601 A    
C6    H1    1.082146 S    
N1    N2    1.326770 A    
C14   C15   1.398828 A    
C26   C27   1.371525 A    
C33   N6    1.375060 A    
C9    C10   1.418375 A    
C21   C22   1.388890 A    
C34   N5    1.377929 A    
O3    Zn1   1.992998 S    
C27   C28   1.394704 A    
C29   C30   1.390348 A    
N11   O14   1.300622 A    
N7    H15   1.030111 S    
C7    C12   1.453318 S    
N2    C11   1.355219 A    
O3    C2    1.298947 A    
C38   H20   1.110445 S    
C11   N3    1.355368 A    
C23   C24   1.393341 A    
H10   C35   1.081769 S    
C33   C34   1.429649 A    
N7    C37   1.445668 S    
C16   N11   1.434253 S    
C37   H18   1.110600 S    
C22   H8    1.078869 S    
N5    C35   1.366179 A    
C17   N12   1.426341 S    
C39   H25   1.110321 S    
C14   H4    1.083614 S    
Zn2   O8    1.992996 S    
C5    N7    1.427397 S    
C15   C16   1.415050 A    
N1    C12   1.354723 A    
N9    H19   1.031744 S    
H5    C26   1.081910 S    
C22   C23   1.412713 A    
Zn2   O6    2.011948 S    
C20   C21   1.396903 A    
O8    C4    1.296111 A    
N10   O11   1.300866 A    
N10   O12   1.301457 A    
C30   C31   1.391569 A    
C39   H26   1.110719 S    
Zn1   O5    1.991429 S    
C24   C25   1.418554 A    
O1    Zn1   2.011948 S    
O2    Zn2   1.991427 S    
N12   C39   1.447753 S    
O6    C3    1.293817 A    
O4    Zn2   1.992661 S    
C29   H11   1.063618 S    
H14   C36   1.081754 S    
C8    H2    1.083703 S    
O2    C1    1.302807 A    
C32   H13   1.057280 S    
C13   C14   1.379390 A    
Zn1   N6    2.019491 S    
C19   C20   1.404156 A    
C9    N10   1.434585 S    
C38   H22   1.109222 S    
C39   H24   1.110486 S    
C19   H6    1.078808 S    
C1    C25   1.441531 S    
C36   N6    1.366558 A    
C37   H16   1.109247 S    
C19   C24   1.417169 A    
C11   C18   1.463301 S    
N12   H23   1.031072 S    
C6    C7    1.391603 A    
H9    C27   1.083602 S    
N4    C12   1.354003 A    
O1    C1    1.282195 A    
Zn2   N5    2.020729 S    
