data_mof_unit_12497.cif
_audit_creation_date              2012-12-11T16:53:26-0500
_audit_creation_method            fapswitch 2.2
_symmetry_space_group_name_H-M    P1
_symmetry_Int_Tables_number       1
_space_group_crystal_system       triclinic
_cell_length_a                    14.852508
_cell_length_b                    14.860171
_cell_length_c                    16.991989
_cell_angle_alpha                 108.93929
_cell_angle_beta                  105.973132
_cell_angle_gamma                 108.515543
_cell_volume                      3049.9008646

loop_
_atom_site_label
_atom_site_type_symbol
_atom_type_description
_atom_site_fract_x
_atom_site_fract_y
_atom_site_fract_z
_atom_type_partial_charge
C1    C     C_R   0.088649 0.290409 0.079913 -0.132012
C2    C     C_R   0.066675 0.480931 0.252358 -0.121655
C3    C     C_R   0.280015 0.785664 0.176809 -0.103905
C4    C     C_R   0.940715 0.478805 0.734826 0.520625
C5    C     C_R   0.744626 0.470787 0.054466 -0.122278
C6    C     C_R   0.337311 0.782221 0.255097 0.105265
C7    C     C_R   0.718356 0.548285 0.041083 0.067289
C8    C     C_R   0.976957 0.416467 0.253549 0.064136
C9    C     C_R   0.001386 0.810566 0.955041 0.102725
C10   C     C_R   0.528704 0.659476 0.050089 0.181577
C11   C     C_R   0.474687 0.601321 0.086688 0.033331
C12   C     C_R   0.034762 0.493375 0.725826 -0.065267
C13   C     C_R   0.529178 0.566652 0.142585 -0.197943
C14   C     C_R   0.621682 0.564193 0.139643 -0.194775
C15   C     C_R   0.658408 0.595326 0.080080 0.032207
C16   C     C_R   0.772477 0.200654 0.815422 -0.119472
C17   C     C_R   0.619150 0.655942 0.046201 0.155130
C18   C     C_3   0.590923 0.656023 0.954419 -0.525088
C19   C     C_3   0.492756 0.660765 0.959256 -0.524240
C20   C     C_R   0.974314 0.374020 0.320347 0.094867
C21   C     C_R   0.048564 0.451194 0.641515 0.116479
C22   C     C_R   0.157519 0.468569 0.558472 0.490606
C23   C     C_R   0.749401 0.190948 0.728219 0.035479
C24   C     C_R   0.147547 0.492660 0.641359 -0.345020
C25   C     C_R   0.961781 0.372843 0.559739 -0.298457
C26   C     C_R   0.968323 0.355563 0.476575 0.107678
C27   C     C_R   0.065898 0.407529 0.476136 0.085645
C28   C     C_R   0.301867 0.595581 0.004205 -0.147083
C29   C     C_R   0.068074 0.409819 0.395623 -0.221614
C30   C     C_R   0.879088 0.310856 0.317395 -0.169848
C31   C     C_R   0.876807 0.298798 0.394912 -0.190342
C32   C     C_R   0.704960 0.091651 0.644953 0.127770
C33   C     C_R   0.447594 0.853712 0.324108 -0.011703
C34   C     C_R   0.361409 0.562343 0.054758 0.076432
C35   C     C_R   0.612451 0.014848 0.398341 -0.426719
C36   C     C_R   0.516894 0.942035 0.319695 0.597297
C37   C     C_R   0.480721 0.835924 0.401186 -0.353030
C38   C     C_R   0.568530 0.913140 0.479838 0.194342
C39   C     C_R   0.631312 0.006306 0.479888 0.149214
C40   C     C_R   0.771476 0.292062 0.734498 -0.140335
C41   C     C_R   0.703014 0.094666 0.563099 -0.241343
C42   C     C_R   0.653126 0.994031 0.644295 -0.172921
C43   C     C_R   0.586210 0.904182 0.561494 -0.200479
C44   C     C_R   0.095199 0.145429 0.167907 0.103269
C45   C     C_R   0.273296 0.688481 0.252162 -0.137701
C46   C     C_R   0.003206 0.124928 0.098106 0.088454
C47   C     C_R   0.913607 0.028826 0.066132 -0.209486
C48   C     C_R   0.921971 0.950174 0.092767 -0.183694
C49   C     C_R   0.020002 0.964922 0.148686 0.091469
C50   C     C_R   0.104443 0.065275 0.189139 0.023173
C51   C     C_3   0.213044 0.097074 0.194419 0.472058
C52   C     C_R   0.295915 0.497502 0.078724 -0.120659
C53   C     C_3   0.205779 0.190188 0.179361 -0.680947
C54   C     C_R   0.113671 0.549546 0.813790 -0.226745
C55   C     C_R   0.916006 0.203783 0.004062 -0.144065
C56   C     C_R   0.753511 0.568057 0.978205 -0.135293
C57   C     C_R   0.002859 0.198226 0.056216 0.066041
C58   C     C_3   0.859356 0.531593 0.633401 0.168234
C59   C     C_3   0.864510 0.634478 0.698162 -0.317184
C60   C     C_3   0.865923 0.710324 0.655308 -0.990969
C61   C     C_3   0.549270 0.050967 0.243715 0.174216
C62   C     C_3   0.532678 0.143619 0.301165 -0.329626
C63   C     C_3   0.576239 0.241116 0.285621 -1.048626
C64   C     C_3   0.308222 0.060809 0.109332 0.133881
C65   C     C_3   0.285747 0.046032 0.011283 -0.261788
C66   C     C_3   0.386951 0.087068 0.999682 -1.040135
C67   C     C_R   0.893520 0.393356 0.175899 -0.141392
C68   C     C_R   0.085638 0.798051 0.001404 -0.062222
C69   C     C_R   0.914316 0.716900 0.927292 -0.206953
H1    H     H_    0.165905 0.324470 0.133461 0.105693
H2    H     H_    0.654933 0.524853 0.173857 0.129583
H3    H     H_    0.645976 0.729430 0.957370 0.188562
H4    H     H_    0.573104 0.580115 0.897624 0.204533
H5    H     H_    0.491633 0.737272 0.965798 0.192696
H6    H     H_    0.420739 0.587955 0.905219 0.200420
H7    H     H_    0.142621 0.452536 0.396855 0.168829
H8    H     H_    0.805878 0.277105 0.258244 0.113581
H9    H     H_    0.802405 0.255179 0.394086 0.120488
H10   H     H_    0.216331 0.548867 0.704630 0.128047
H11   H     H_    0.886514 0.334624 0.559945 0.163895
H12   H     H_    0.750972 0.626568 0.954897 0.107731
H13   H     H_    0.747553 0.168634 0.563616 0.120822
H14   H     H_    0.764731 0.138826 0.836832 0.094265
H15   H     H_    0.656330 0.988218 0.706696 0.116204
H16   H     H_    0.669078 0.083771 0.400802 0.136961
H17   H     H_    0.540116 0.831472 0.561984 0.130957
H18   H     H_    0.432355 0.768392 0.406174 0.146605
H19   H     H_    0.839171 0.010711 0.015634 0.121574
H20   H     H_    0.854269 0.874286 0.063540 0.125598
H21   H     H_    0.272827 0.117851 0.262046 0.013048
H22   H     H_    0.256146 0.267628 0.241973 0.171290
H23   H     H_    0.813698 0.333827 0.148573 0.088230
H24   H     H_    0.330491 0.661468 0.989061 0.104001
H25   H     H_    0.212320 0.190167 0.115842 0.212406
H26   H     H_    0.752500 0.309613 0.677559 0.170778
H27   H     H_    0.318845 0.469585 0.128674 0.084153
H28   H     H_    0.196854 0.577460 0.834394 0.132909
H29   H     H_    0.835518 0.155097 0.987865 0.086934
H30   H     H_    0.294734 0.649049 0.292081 0.092809
H31   H     H_    0.789808 0.495145 0.567246 0.141767
H32   H     H_    0.928547 0.549949 0.617127 0.107136
H33   H     H_    0.795479 0.615236 0.714606 0.209335
H34   H     H_    0.166481 0.845158 0.019058 0.130076
H35   H     H_    0.936992 0.674632 0.762529 0.196439
H36   H     H_    0.935051 0.731487 0.639169 0.268379
H37   H     H_    0.870575 0.784295 0.704365 0.271256
H38   H     H_    0.793324 0.673050 0.591424 0.267556
H39   H     H_    0.309133 0.553236 0.620379 0.315342
H40   H     H_    0.523647 0.040875 0.172290 0.127185
H41   H     H_    0.633117 0.068509 0.265448 0.095801
H42   H     H_    0.448012 0.117493 0.283199 0.198265
H43   H     H_    0.570972 0.168140 0.375525 0.198981
H44   H     H_    0.662704 0.276363 0.313917 0.271865
H45   H     H_    0.836254 0.693748 0.879661 0.104969
H46   H     H_    0.553952 0.301912 0.320913 0.273835
H47   H     H_    0.545050 0.219884 0.211449 0.265693
H48   H     H_    0.348234 0.012344 0.122621 0.134591
H49   H     H_    0.361805 0.146192 0.157796 0.125049
H50   H     H_    0.237630 0.960438 0.961876 0.192991
H51   H     H_    0.240895 0.089550 0.994401 0.203223
H52   H     H_    0.434598 0.173784 0.045495 0.267315
H53   H     H_    0.368019 0.073320 0.927593 0.278032
H54   H     H_    0.433262 0.044536 0.015955 0.261867
H55   H     H_    0.146910 0.503389 0.294116 0.087830
H56   H     H_    0.307195 0.839757 0.149576 0.151987
H57   H     H_    0.730607 0.436612 0.099660 0.096869
H58   H     H_    0.494758 0.528968 0.178809 0.126900
N1    N     N_R   0.055640 0.348550 0.045600 -0.039637
N2    N     N_R   0.811290 0.303400 0.871650 -0.042652
N3    N     N_R   0.205180 0.552990 0.997660 -0.035925
N4    N     N_R   0.814810 0.361830 0.823710 -0.039767
N5    N     N_R   0.201660 0.494570 0.045600 -0.038501
N6    N     N_R   0.068420 0.560530 0.871650 -0.069392
N7    N     N_R   0.948050 0.295860 0.997660 -0.038040
N8    N     N_R   0.185190 0.638170 0.176290 -0.041540
N9    N     N_R   0.798340 0.505430 0.954400 -0.038305
N10   N     N_R   0.931580 0.439470 0.128350 -0.038736
N11   N     N_R   0.051950 0.704140 0.002340 -0.055502
N12   N     N_R   0.944360 0.651450 0.954400 -0.039300
N13   N     N_R   0.039170 0.492150 0.176290 -0.038191
N14   N     N_R   0.188710 0.696600 0.128350 -0.051213
N15   N     N_R   0.794820 0.447010 0.002340 -0.043179
N16   N     N_R   0.960830 0.507850 0.823710 -0.083484
Ni1   Ni    Ni4+2 0.119330 0.493420 0.109950 0.206245
Ni2   Ni    Ni4+2 0.880670 0.506580 0.890050 0.230032
Ni3   Ni    Ni4+2 0.872590 0.372590 0.000000 0.210634
Ni4   Ni    Ni4+2 0.127410 0.627410 0.000000 0.197679
O1    O     O_3   0.846413 0.457121 0.669491 -0.709616
O2    O     O_3   0.253718 0.512358 0.556665 -0.779784
O3    O     O_3   0.487008 0.952790 0.238982 -0.703322
O4    O     O_3   0.212757 0.022437 0.117563 -0.658518

loop_
_geom_bond_atom_site_label_1
_geom_bond_atom_site_label_2
_ccdc_geom_bond_type
N5    Ni1   S    
C69   N12   A    
C6    C45   A    
C27   C29   A    
C25   H11   S    
C35   H16   S    
C14   H2    S    
N15   Ni3   S    
C68   N11   A    
C35   C36   A    
C3    N14   A    
C68   H34   S    
C3    C6    A    
C61   H40   S    
C4    N16   A    
N11   N12   A    
C56   H12   S    
C39   C41   A    
C29   H7    S    
C20   C30   A    
C26   C27   A    
C62   C63   S    
C59   H35   S    
C9    C69   A    
N1    N7    A    
C51   H21   S    
N8    Ni1   S    
C30   C31   A    
C58   O1    S    
C10   C17   A    
C23   C40   A    
C4    O1    S    
C33   C36   A    
C64   H49   S    
C15   C17   A    
C18   C19   S    
N9    N15   A    
C30   H8    S    
C44   C53   S    
C62   H42   S    
C5    H57   S    
C53   H22   S    
C32   C41   A    
C1    N1    A    
C54   H28   S    
N4    Ni2   S    
N6    Ni4   S    
C47   H19   S    
C4    C12   A    
C61   O3    S    
N11   Ni4   S    
N9    Ni2   S    
C63   H46   S    
C7    C15   S    
N3    Ni4   S    
C22   O2    S    
C28   C34   A    
C59   C60   S    
C13   C14   A    
C59   H33   S    
C7    C56   A    
C61   H41   S    
C56   N9    A    
C44   C46   A    
C50   C51   S    
C20   C29   A    
C11   C34   S    
C18   H3    S    
N7    Ni3   S    
N10   N13   A    
C69   H45   S    
N6    N16   A    
C45   N8    A    
C64   O4    S    
C52   N5    A    
N10   Ni3   S    
C58   H31   S    
C45   H30   S    
C5    C7    A    
C25   C26   A    
C54   N6    A    
C12   C21   S    
C16   H14   S    
C33   C37   A    
C64   H48   S    
C28   H24   S    
C51   C53   S    
C63   H44   S    
N3    N5    A    
C37   C38   A    
C1    C57   A    
C24   H10   S    
C47   C48   A    
N8    N14   A    
C10   C19   S    
C66   H53   S    
C17   C18   S    
C65   H50   S    
C66   H52   S    
C42   H15   S    
C58   H32   S    
C8    C20   S    
C16   N2    A    
N1    Ni1   S    
N2    Ni3   S    
C60   H38   S    
C63   H47   S    
C48   C49   A    
C40   N4    A    
C49   C50   A    
C18   H4    S    
C48   H20   S    
C55   C57   A    
C46   C57   S    
C22   C24   A    
C42   C43   A    
C40   H26   S    
C60   H37   S    
C31   H9    S    
C44   C50   A    
N16   Ni2   S    
C21   C25   A    
C46   C47   A    
N12   Ni2   S    
C53   H25   S    
C14   C15   A    
C43   H17   S    
C37   H18   S    
C19   H5    S    
C2    C8    A    
N13   Ni1   S    
C35   C39   A    
C3    H56   S    
C2    H55   S    
C16   C23   A    
C55   N7    A    
C34   C52   A    
C1    H1    S    
C6    C33   S    
C22   C27   A    
C2    N13   A    
C23   C32   S    
C19   H6    S    
C58   C59   S    
C9    C68   A    
C38   C43   A    
C64   C65   S    
C11   C13   A    
C36   O3    S    
C5    N15   A    
C38   C39   A    
C41   H13   S    
C55   H29   S    
C67   H23   S    
C65   H51   S    
C52   H27   S    
C28   N3    A    
C61   C62   S    
C67   N10   A    
C10   C11   A    
N14   Ni4   S    
C51   O4    S    
H39   O2    S    
C13   H58   S    
C26   C31   A    
C62   H43   S    
C8    C67   A    
C65   C66   S    
C21   C24   A    
C32   C42   A    
C66   H54   S    
C12   C54   A    
C60   H36   S    
N2    N4    A    
