data_mof_unit_38892.cif
_audit_creation_date              2012-12-10T17:19:02-0500
_audit_creation_method            fapswitch 2.2
_symmetry_space_group_name_H-M    P1
_symmetry_Int_Tables_number       1
_space_group_crystal_system       triclinic
_cell_length_a                    10.191798
_cell_length_b                    10.799194
_cell_length_c                    13.515236
_cell_angle_alpha                 92.17935
_cell_angle_beta                  100.084058
_cell_angle_gamma                 96.216593
_cell_volume                      1453.46865473

loop_
_atom_site_label
_atom_site_type_symbol
_atom_type_description
_atom_site_fract_x
_atom_site_fract_y
_atom_site_fract_z
_atom_type_partial_charge
Br1   Br    Br    0.736511 0.712047 0.241432 -0.580672
Br2   Br    Br    0.296719 0.317360 0.768927 -0.568847
C1    C     C_R   0.052061 0.732227 0.490405 0.957746
C2    C     C_2   0.996787 0.063146 0.464936 -0.129304
C3    C     C_2   0.430994 0.511280 0.508852 -0.129952
C4    C     C_2   0.569059 0.488091 0.491768 -0.139598
C5    C     C_R   0.092644 0.510829 0.686148 0.921496
C6    C     C_R   0.908133 0.490833 0.313939 0.911510
C7    C     C_R   0.142513 0.521305 0.794115 -0.117277
C8    C     C_R   0.863699 0.493674 0.205851 -0.104794
C9    C     C_R   0.142031 0.612350 0.960156 -0.166539
C10   C     C_R   0.872394 0.427614 0.034577 -0.177036
C11   C     C_R   0.080969 0.589586 0.859560 -0.227651
C12   C     C_R   0.945179 0.267122 0.503280 0.955287
C13   C     C_R   0.926249 0.432334 0.136997 -0.225473
C14   C     C_R   0.262295 0.473381 0.830326 0.203487
C15   C     C_R   0.753360 0.555847 0.171171 0.204386
C16   C     C_R   0.338467 0.522088 0.922612 -0.002572
C17   C     C_R   0.679844 0.522581 0.074542 0.001986
C18   C     C_R   0.272017 0.580126 0.992441 0.022462
C19   C     C_R   0.746371 0.468724 0.002544 0.029733
C20   C     C_R   0.477623 0.513747 0.947641 0.023995
C21   C     C_R   0.542390 0.538096 0.048462 0.015483
C22   C     C_3   0.331789 0.761274 0.211079 0.071877
C23   C     C_R   0.465587 0.569127 0.121170 -0.267282
C24   C     C_3   0.377846 0.747513 0.323623 -0.304472
C25   C     C_3   0.443143 0.871284 0.377785 -0.953464
C26   C     C_3   0.706823 0.320640 0.770054 0.082360
C27   C     C_3   0.771145 0.209848 0.816889 -0.367447
C28   C     C_3   0.719341 0.088794 0.753558 -0.915689
C29   C     C_R   0.554995 0.488556 0.873806 -0.269210
C30   C     C_R   0.336129 0.602592 0.092866 0.450789
C31   C     C_R   0.685858 0.457516 0.900687 0.459370
C32   C     C_2   0.077637 0.863397 0.475188 -0.367146
C33   C     C_2   0.909295 0.133672 0.494427 -0.371415
C34   C     C_2   0.973991 0.930409 0.466220 -0.099436
H1    H     H_    0.016562 0.389348 0.162120 0.181855
H2    H     H_    0.179080 0.905468 0.473744 0.151469
H3    H     H_    0.578033 0.413802 0.437873 0.165500
H4    H     H_    0.422033 0.585352 0.562950 0.166599
H5    H     H_    0.665167 0.623469 0.589726 0.169972
H6    H     H_    0.334806 0.376946 0.409910 0.163920
H7    H     H_    0.257076 0.829568 0.201611 0.164969
H8    H     H_    0.418433 0.801996 0.177511 0.158145
H9    H     H_    0.289872 0.713221 0.356965 0.254382
H10   H     H_    0.450985 0.678132 0.335209 0.235623
H11   H     H_    0.534224 0.905277 0.347530 0.289356
H12   H     H_    0.986196 0.624711 0.833198 0.200454
H13   H     H_    0.472983 0.858030 0.459391 0.261441
H14   H     H_    0.371587 0.942380 0.368277 0.254279
H15   H     H_    0.731404 0.329768 0.693565 0.193552
H16   H     H_    0.595517 0.301876 0.759502 0.170318
H17   H     H_    0.881898 0.227272 0.823071 0.240947
H18   H     H_    0.747788 0.199469 0.893645 0.222797
H19   H     H_    0.609081 0.068115 0.748283 0.273769
H20   H     H_    0.768368 0.010545 0.789113 0.268611
H21   H     H_    0.742773 0.096205 0.676701 0.256494
H22   H     H_    0.090351 0.660084 0.010977 0.198484
H23   H     H_    0.925003 0.384742 0.981860 0.189690
H24   H     H_    0.504660 0.568169 0.200456 0.190901
H25   H     H_    0.514344 0.492324 0.794636 0.182512
H26   H     H_    0.091686 0.103143 0.446658 0.187537
H27   H     H_    0.872259 0.888709 0.467647 0.204873
H28   H     H_    0.814582 0.093171 0.512400 0.142696
N1    N     N_2   0.322180 0.446120 0.460900 -0.182466
N2    N     N_2   0.677820 0.553880 0.539100 -0.181278
O1    O     O_R   0.935190 0.693030 0.507870 -0.594170
O2    O     O_3   0.761151 0.432594 0.827593 -0.659969
O3    O     O_R   0.064810 0.306970 0.492130 -0.592260
O4    O     O_R   0.142080 0.658430 0.482770 -0.630592
O5    O     O_R   0.857920 0.341570 0.517230 -0.627470
O6    O     O_R   0.969700 0.527180 0.651960 -0.603081
O7    O     O_R   0.030300 0.472820 0.348040 -0.611257
O8    O     O_R   0.176600 0.492580 0.626860 -0.574589
O9    O     O_R   0.823400 0.507420 0.373140 -0.581543
O10   O     O_3   0.267108 0.645385 0.164563 -0.650585
Zn1   Zn    Zn3+2 0.861850 0.523100 0.516760 0.960754
Zn2   Zn    Zn3+2 0.138150 0.476900 0.483240 0.960667

loop_
_geom_bond_atom_site_label_1
_geom_bond_atom_site_label_2
_ccdc_geom_bond_type
C2    C34   S    
O4    Zn2   S    
C9    C11   A    
C12   O5    A    
C29   H25   S    
O1    Zn1   S    
C24   C25   S    
C27   C28   S    
C26   C27   S    
C17   C19   A    
C7    C14   A    
C22   C24   S    
C8    C13   A    
C3    C4    S    
C26   H15   S    
C19   C31   A    
C27   H18   S    
C8    C15   A    
C28   H21   S    
C2    H26   S    
C7    C11   A    
C13   H1    S    
C24   H9    S    
C10   H23   S    
H6    N1    S    
O7    Zn2   S    
C29   C31   A    
C33   H28   S    
C23   H24   S    
C34   H27   S    
Br2   C14   S    
C16   C18   A    
C25   H14   S    
C23   C30   A    
C2    C33   D    
C32   H2    S    
O3    Zn2   S    
C5    O8    A    
C20   C21   A    
C9    C18   A    
C20   C29   A    
C1    O4    A    
C3    N1    D    
C12   C33   S    
C22   O10   S    
C1    C32   S    
C28   H20   S    
C10   C19   A    
C6    O9    A    
C17   C21   A    
O6    Zn1   S    
C5    O6    A    
C10   C13   A    
O9    Zn1   S    
C6    C8    S    
C22   H8    S    
C12   O3    A    
C9    H22   S    
O5    Zn1   S    
C18   C30   A    
C25   H11   S    
C5    C7    S    
N2    Zn1   S    
N1    Zn2   S    
C26   O2    S    
C16   C20   A    
C1    O1    A    
C30   O10   S    
C11   H12   S    
H5    N2    S    
C28   H19   S    
Br1   C15   S    
C26   H16   S    
C27   H17   S    
C6    O7    A    
C15   C17   A    
C32   C34   D    
C21   C23   A    
C24   H10   S    
C4    N2    D    
C14   C16   A    
O8    Zn2   S    
C3    H4    S    
C22   H7    S    
C4    H3    S    
C25   H13   S    
C31   O2    S    
