data_mof_unit_52566.cif
_audit_creation_date              2013-03-05T15:50:11-0500
_audit_creation_method            fapswitch 2.2
_symmetry_space_group_name_H-M    P1
_symmetry_Int_Tables_number       1
_space_group_crystal_system       triclinic
_cell_length_a                    18.335562
_cell_length_b                    25.848791
_cell_length_c                    18.273191
_cell_angle_alpha                 90.002002
_cell_angle_beta                  90.161438
_cell_angle_gamma                 90.040342
_cell_volume                      8660.58089997

loop_
_atom_site_label
_atom_site_type_symbol
_atom_site_description
_atom_site_fract_x
_atom_site_fract_y
_atom_site_fract_z
_atom_type_partial_charge
Zn1   Zn    Zn3+2 0.249990 0.293780 0.913250 0.950978
Zn2   Zn    Zn3+2 0.249990 0.706220 0.086750 0.954489
Zn3   Zn    Zn3+2 0.249990 0.706220 0.913250 0.950370
Zn4   Zn    Zn3+2 0.249990 0.293780 0.086750 0.960978
Zn5   Zn    Zn3+2 0.749990 0.793780 0.413250 0.953908
Zn6   Zn    Zn3+2 0.749990 0.206220 0.586750 0.965693
Zn7   Zn    Zn3+2 0.749990 0.206220 0.413250 0.951274
Zn8   Zn    Zn3+2 0.749990 0.793780 0.586750 0.969131
Zn9   Zn    Zn3+2 0.336760 0.206240 0.000000 1.009398
Zn10  Zn    Zn3+2 0.336760 0.793760 0.000000 0.964174
Zn11  Zn    Zn3+2 0.836760 0.706240 0.500000 0.981126
Zn12  Zn    Zn3+2 0.836760 0.293760 0.500000 0.965872
Zn13  Zn    Zn3+2 0.163250 0.206230 0.000000 0.968869
Zn14  Zn    Zn3+2 0.163250 0.793770 0.000000 0.994746
Zn15  Zn    Zn3+2 0.663250 0.706230 0.500000 0.968985
Zn16  Zn    Zn3+2 0.663250 0.293770 0.500000 1.003706
O1    O     O_3   0.249990 0.250010 0.000000 -0.490706
O2    O     O_3   0.249990 0.749990 0.000000 -0.490709
O3    O     O_3   0.749990 0.750010 0.500000 -0.485711
O4    O     O_3   0.749990 0.249990 0.500000 -0.488577
O5    O     O_R   0.335430 0.280650 0.146160 -0.647706
O6    O     O_R   0.335430 0.719350 0.853840 -0.638072
O7    O     O_R   0.335430 0.719350 0.146160 -0.638678
O8    O     O_R   0.335430 0.280650 0.853840 -0.638906
O9    O     O_R   0.835430 0.780650 0.646160 -0.633351
O10   O     O_R   0.835430 0.219350 0.353840 -0.639925
O11   O     O_R   0.835430 0.219350 0.646160 -0.635597
O12   O     O_R   0.835430 0.780650 0.353840 -0.638342
O13   O     O_R   0.164550 0.280640 0.853840 -0.639377
O14   O     O_R   0.164550 0.719360 0.146160 -0.658763
O15   O     O_R   0.164550 0.719360 0.853840 -0.639667
O16   O     O_R   0.164550 0.280640 0.146160 -0.637953
O17   O     O_R   0.664550 0.780640 0.353840 -0.638000
O18   O     O_R   0.664550 0.219360 0.646160 -0.651180
O19   O     O_R   0.664550 0.219360 0.353840 -0.638436
O20   O     O_R   0.664550 0.780640 0.646160 -0.641102
O21   O     O_R   0.396160 0.219380 0.914560 -0.644309
O22   O     O_R   0.396160 0.780620 0.085440 -0.635772
O23   O     O_R   0.396160 0.780620 0.914560 -0.636727
O24   O     O_R   0.396160 0.219380 0.085440 -0.600634
O25   O     O_R   0.896160 0.719380 0.414560 -0.638716
O26   O     O_R   0.896160 0.280620 0.585440 -0.642153
O27   O     O_R   0.896160 0.280620 0.414560 -0.636969
O28   O     O_R   0.896160 0.719380 0.585440 -0.636985
O29   O     O_R   0.103840 0.219370 0.085450 -0.640698
O30   O     O_R   0.103840 0.780630 0.914550 -0.638937
O31   O     O_R   0.103840 0.780630 0.085450 -0.601936
O32   O     O_R   0.103840 0.219370 0.914550 -0.636145
O33   O     O_R   0.603840 0.719370 0.585450 -0.641419
O34   O     O_R   0.603840 0.280630 0.414550 -0.640289
O35   O     O_R   0.603840 0.280630 0.585450 -0.610719
O36   O     O_R   0.603840 0.719370 0.414550 -0.636554
O37   O     O_R   0.310730 0.133160 0.000000 -0.591178
O38   O     O_R   0.310730 0.866840 0.000000 -0.644904
O39   O     O_R   0.810730 0.633160 0.500000 -0.624196
O40   O     O_R   0.810730 0.366840 0.500000 -0.657735
O41   O     O_R   0.249970 0.366860 0.060720 -0.648262
O42   O     O_R   0.249970 0.633140 0.939280 -0.644586
O43   O     O_R   0.249970 0.633140 0.060720 -0.648083
O44   O     O_R   0.249970 0.366860 0.939280 -0.643689
O45   O     O_R   0.749970 0.866860 0.560720 -0.647499
O46   O     O_R   0.749970 0.133140 0.439280 -0.646939
O47   O     O_R   0.749970 0.133140 0.560720 -0.646200
O48   O     O_R   0.749970 0.866860 0.439280 -0.646632
O49   O     O_R   0.189290 0.133150 0.000000 -0.655614
O50   O     O_R   0.189290 0.866850 0.000000 -0.619273
O51   O     O_R   0.689290 0.633150 0.500000 -0.660875
O52   O     O_R   0.689290 0.366850 0.500000 -0.609244
C1    C     C_R   0.389705 0.250125 0.139927 0.811707
C2    C     C_R   0.389753 0.749967 0.860141 0.779750
C3    C     C_R   0.389821 0.749858 0.139743 0.786135
C4    C     C_R   0.389742 0.250040 0.860128 0.772253
C5    C     C_R   0.889841 0.750079 0.639765 0.793234
C6    C     C_R   0.889762 0.249974 0.360119 0.780460
C7    C     C_R   0.889785 0.249849 0.639842 0.785489
C8    C     C_R   0.889684 0.749997 0.360068 0.779316
C9    C     C_R   0.110434 0.249911 0.860053 0.784481
C10   C     C_R   0.110378 0.750011 0.140099 0.833504
C11   C     C_R   0.110355 0.750042 0.860120 0.775827
C12   C     C_R   0.110212 0.250017 0.139914 0.779165
C13   C     C_R   0.610195 0.750084 0.360236 0.785708
C14   C     C_R   0.610279 0.249977 0.639996 0.826224
C15   C     C_R   0.610518 0.250142 0.359994 0.780068
C16   C     C_R   0.610250 0.750036 0.639990 0.804468
C17   C     C_R   0.250086 0.109339 0.000495 0.848506
C18   C     C_R   0.250018 0.890660 0.000957 0.770094
C19   C     C_R   0.749652 0.609415 0.503540 0.795424
C20   C     C_R   0.750157 0.390652 0.501090 0.800126
C21   C     C_R   0.249925 0.391400 0.000093 0.741256
C22   C     C_R   0.249925 0.608603 0.000091 0.740489
C23   C     C_R   0.750000 0.891397 0.499908 0.738851
C24   C     C_R   0.750000 0.108600 0.499907 0.740309
C25   C     C_3   0.249752 0.470288 0.080045 -0.377802
C26   C     C_3   0.181176 0.529899 0.960499 -0.396965
C27   C     C_3   0.249749 0.529723 0.080043 -0.377801
C28   C     C_3   0.181181 0.470049 0.960503 -0.392829
C29   C     C_3   0.681219 0.970041 0.538888 -0.393613
C30   C     C_3   0.750150 0.029712 0.419955 -0.376937
C31   C     C_3   0.681216 0.029883 0.538885 -0.394707
C32   C     C_3   0.750153 0.970277 0.419956 -0.376344
H1    H     H_    0.298693 0.456139 0.110176 0.182039
H2    H     H_    0.179788 0.544150 0.903037 0.186530
H3    H     H_    0.298688 0.543924 0.110176 0.182070
H4    H     H_    0.179803 0.455799 0.903040 0.186688
H5    H     H_    0.679667 0.955797 0.596340 0.185799
H6    H     H_    0.799179 0.043917 0.390255 0.181379
H7    H     H_    0.679659 0.044132 0.596334 0.185590
H8    H     H_    0.799185 0.956123 0.390259 0.182119
H9    H     H_    0.200717 0.456083 0.109733 0.180873
H10   H     H_    0.131056 0.544311 0.988000 0.150423
H11   H     H_    0.200711 0.543878 0.109731 0.180404
H12   H     H_    0.131064 0.455593 0.988011 0.152221
H13   H     H_    0.631189 0.955584 0.510935 0.153344
H14   H     H_    0.701203 0.043862 0.389834 0.183318
H15   H     H_    0.631187 0.044284 0.510927 0.153521
H16   H     H_    0.701209 0.956075 0.389834 0.182883
H17   H     H_    0.285857 0.904339 0.870075 0.120015
H18   H     H_    0.286444 0.095250 0.869664 0.112034
H19   H     H_    0.751290 0.405174 0.365496 0.111779
H20   H     H_    0.750754 0.596245 0.367466 0.116433
H21   H     H_    0.368734 0.455717 0.989100 0.154027
H22   H     H_    0.320272 0.544203 0.903675 0.186808
H23   H     H_    0.368731 0.544415 0.989091 0.153781
H24   H     H_    0.320280 0.455869 0.903681 0.187259
H25   H     H_    0.820149 0.955851 0.596948 0.186276
H26   H     H_    0.868856 0.044406 0.511962 0.152390
H27   H     H_    0.820136 0.044201 0.596944 0.186646
H28   H     H_    0.868864 0.955690 0.511974 0.151152
C33   C     C_3   0.318711 0.470118 0.961131 -0.392849
C34   C     C_3   0.318707 0.529959 0.961126 -0.392542
C35   C     C_3   0.818749 0.970101 0.539486 -0.396666
C36   C     C_3   0.818745 0.029951 0.539482 -0.392510
C37   C     C_3   0.249886 0.449145 0.000422 0.192382
C38   C     C_3   0.249883 0.550864 0.000419 0.194158
C39   C     C_3   0.750035 0.949136 0.499581 0.194294
C40   C     C_3   0.750032 0.050855 0.499578 0.192869
H29   H     H_    0.915662 0.368483 0.931147 0.124088
H30   H     H_    0.880304 0.690017 0.033365 0.135870
H31   H     H_    0.133533 0.906640 0.711829 0.133905
H32   H     H_    0.878806 0.307000 0.032600 0.137405
H33   H     H_    0.417053 0.870917 0.428907 0.125041
H34   H     H_    0.717968 0.300739 0.875076 0.138844
H35   H     H_    0.680463 0.368955 0.164116 0.120040
H36   H     H_    0.379917 0.810262 0.533789 0.135861
C41   C     C_R   0.125389 0.186710 0.732018 -0.142134
C42   C     C_R   0.145062 0.777175 0.289337 -0.064890
C43   C     C_R   0.009279 0.665749 0.848949 -0.150982
C44   C     C_R   0.144284 0.220368 0.287869 -0.155015
C45   C     C_R   0.623820 0.685255 0.233786 -0.141473
C46   C     C_R   0.463037 0.220127 0.605106 -0.144641
C47   C     C_R   0.483272 0.186963 0.375591 -0.146129
C48   C     C_R   0.644549 0.721651 0.788566 -0.097480
C49   C     C_R   0.132688 0.155436 0.670349 -0.149949
C50   C     C_R   0.161758 0.792538 0.360502 -0.146846
C51   C     C_R   0.961036 0.624250 0.843285 -0.170486
C52   C     C_R   0.161424 0.206019 0.359326 -0.147810
C53   C     C_R   0.630693 0.653346 0.172723 -0.149003
C54   C     C_R   0.391793 0.206065 0.587403 -0.141282
C55   C     C_R   0.420663 0.157065 0.384513 -0.163819
C56   C     C_R   0.661322 0.705972 0.859553 -0.121803
C57   C     C_R   0.576974 0.653311 0.118888 -0.152566
C58   C     C_R   0.338259 0.205968 0.640933 -0.147866
C59   C     C_R   0.364781 0.159627 0.333134 -0.134110
C60   C     C_R   0.607053 0.703960 0.912275 -0.158472
C61   C     C_R   0.078817 0.155369 0.616670 -0.155706
C62   C     C_R   0.107256 0.794971 0.412945 -0.149501
C63   C     C_R   0.908476 0.623657 0.788370 -0.117520
C64   C     C_R   0.107637 0.205370 0.412568 -0.143500
C65   C     C_R   0.516060 0.685153 0.125847 -0.147555
C66   C     C_R   0.355618 0.220068 0.712438 -0.145777
C67   C     C_R   0.371672 0.191604 0.272148 -0.094789
C68   C     C_R   0.535883 0.718003 0.894386 -0.139998
C69   C     C_R   0.017351 0.186581 0.624345 -0.147253
C70   C     C_R   0.035964 0.781452 0.394675 -0.140148
C71   C     C_R   0.903632 0.664739 0.739245 -0.123103
C72   C     C_R   0.036431 0.219278 0.394731 -0.142404
C73   C     C_R   0.507654 0.717704 0.187608 0.076059
C74   C     C_R   0.427365 0.235679 0.731612 0.077713
C75   C     C_R   0.435978 0.220635 0.260257 0.063686
C76   C     C_R   0.517657 0.734939 0.822783 0.074514
C77   C     C_R   0.008441 0.218391 0.686792 0.078566
C78   C     C_R   0.017785 0.764684 0.322972 0.065023
C79   C     C_R   0.951703 0.707501 0.744091 0.048813
C80   C     C_R   0.017845 0.235279 0.322803 0.074128
C81   C     C_R   0.063184 0.218487 0.741290 0.075287
C82   C     C_R   0.072844 0.763397 0.269128 0.078733
C83   C     C_R   0.005745 0.707752 0.799177 0.080285
C84   C     C_R   0.072494 0.235627 0.268491 0.073193
C85   C     C_R   0.562265 0.717799 0.242226 0.076111
C86   C     C_R   0.481924 0.235609 0.677201 0.068446
C87   C     C_R   0.491762 0.219261 0.313534 0.075976
C88   C     C_R   0.572545 0.736042 0.768771 0.050371
C89   C     C_R   0.445820 0.749741 0.196004 -0.149713
C90   C     C_R   0.445824 0.250125 0.804028 -0.151185
C91   C     C_R   0.445617 0.250723 0.196417 -0.157305
C92   C     C_R   0.445816 0.749925 0.804051 -0.153456
C93   C     C_R   0.945749 0.249408 0.696254 -0.152906
C94   C     C_R   0.945787 0.750127 0.303983 -0.152525
C95   C     C_R   0.946211 0.750049 0.695745 -0.157011
C96   C     C_R   0.945843 0.249901 0.303993 -0.157513
C97   C     C_R   0.437432 0.781694 0.258136 0.073389
C98   C     C_R   0.518086 0.263949 0.823153 0.070823
C99   C     C_R   0.508562 0.281518 0.186696 0.074334
C100  C     C_R   0.427802 0.765657 0.732084 0.075466
C101  C     C_R   0.936443 0.279939 0.759699 0.067427
C102  C     C_R   0.927743 0.734702 0.231865 0.077744
C103  C     C_R   0.995067 0.792259 0.700362 0.077598
C104  C     C_R   0.927533 0.264799 0.231732 0.073446
C105  C     C_R   0.991936 0.281039 0.813291 0.081602
C106  C     C_R   0.982419 0.734537 0.177575 0.064107
C107  C     C_R   0.049845 0.792157 0.754791 0.075006
C108  C     C_R   0.982063 0.264837 0.177287 0.073552
C109  C     C_R   0.492265 0.782057 0.312508 0.076961
C110  C     C_R   0.572914 0.263071 0.769054 0.065289
C111  C     C_R   0.563307 0.281498 0.241198 0.078566
C112  C     C_R   0.482310 0.765635 0.677617 0.073865
C113  C     C_R   0.054517 0.249994 0.803847 -0.149349
C114  C     C_R   0.054385 0.749392 0.196420 -0.152673
C115  C     C_R   0.054394 0.750030 0.803919 -0.147691
C116  C     C_R   0.054100 0.250172 0.196071 -0.160575
C117  C     C_R   0.554152 0.750088 0.304051 -0.149191
C118  C     C_R   0.554215 0.249570 0.696245 -0.164535
C119  C     C_R   0.554592 0.250051 0.303806 -0.143809
C120  C     C_R   0.554191 0.750511 0.696261 -0.165588
C121  C     C_R   0.375296 0.813562 0.267190 -0.148879
C122  C     C_R   0.536799 0.279596 0.895235 -0.138693
C123  C     C_R   0.517637 0.313141 0.124080 -0.149650
C124  C     C_R   0.356585 0.782640 0.713480 -0.147042
C125  C     C_R   0.872701 0.309650 0.770864 -0.162198
C126  C     C_R   0.856354 0.718182 0.212910 -0.142587
C127  C     C_R   0.991489 0.834271 0.650659 -0.156112
C128  C     C_R   0.855975 0.280862 0.212749 -0.141975
C129  C     C_R   0.368298 0.845399 0.328300 -0.146656
C130  C     C_R   0.608339 0.292392 0.913528 -0.151027
C131  C     C_R   0.579152 0.344365 0.116351 -0.151483
C132  C     C_R   0.339690 0.798204 0.642468 -0.146137
C133  C     C_R   0.865643 0.341486 0.831959 -0.147842
C134  C     C_R   0.839573 0.702709 0.141803 -0.145624
C135  C     C_R   0.040930 0.875131 0.655169 -0.149075
C136  C     C_R   0.838785 0.295434 0.141396 -0.146008
C137  C     C_R   0.921110 0.343586 0.883852 -0.162333
C138  C     C_R   0.893313 0.702545 0.088421 -0.137825
C139  C     C_R   0.094954 0.874982 0.708673 -0.142469
C140  C     C_R   0.892316 0.295365 0.087852 -0.144983
C141  C     C_R   0.422525 0.846023 0.381610 -0.155513
C142  C     C_R   0.662440 0.290788 0.860660 -0.140024
C143  C     C_R   0.632904 0.344502 0.170154 -0.150195
C144  C     C_R   0.393150 0.797897 0.588806 -0.143519
C145  C     C_R   0.983436 0.313372 0.875308 -0.143309
C146  C     C_R   0.964099 0.717883 0.105868 -0.144526
C147  C     C_R   0.099745 0.834004 0.757995 -0.148048
C148  C     C_R   0.963379 0.280814 0.105375 -0.141927
C149  C     C_R   0.483864 0.814638 0.374248 -0.146030
C150  C     C_R   0.645196 0.276757 0.789099 -0.082754
C151  C     C_R   0.625535 0.313314 0.231903 -0.142555
C152  C     C_R   0.463867 0.782265 0.605949 -0.145594
H37   H     H_    0.168701 0.185476 0.772350 0.106226
H38   H     H_    0.189510 0.776701 0.250671 0.158190
H39   H     H_    0.048981 0.664553 0.892835 0.119629
H40   H     H_    0.187980 0.219132 0.248359 0.131014
H41   H     H_    0.667007 0.683962 0.274251 0.106674
H42   H     H_    0.502885 0.218147 0.561709 0.125645
H43   H     H_    0.524956 0.184197 0.417461 0.109300
H44   H     H_    0.688815 0.722267 0.749785 0.185431
H45   H     H_    0.180283 0.131068 0.664286 0.123071
H46   H     H_    0.217156 0.802987 0.374846 0.136953
H47   H     H_    0.964516 0.592427 0.881647 0.131306
H48   H     H_    0.216601 0.195110 0.373440 0.133031
H49   H     H_    0.677864 0.628495 0.167233 0.120250
H50   H     H_    0.378158 0.194781 0.532029 0.136714
H51   H     H_    0.415277 0.132110 0.431759 0.126343
H52   H     H_    0.716634 0.695064 0.873551 0.145890
H53   H     H_    0.582427 0.628428 0.071573 0.125648
H54   H     H_    0.283125 0.194569 0.627098 0.136628
H55   H     H_    0.315914 0.136730 0.340518 0.127759
H56   H     H_    0.620137 0.691430 0.967261 0.139156
H57   H     H_    0.084552 0.130904 0.568959 0.123669
H58   H     H_    0.120188 0.807488 0.468024 0.138213
H59   H     H_    0.871169 0.591322 0.783882 0.151385
H60   H     H_    0.121103 0.193823 0.467876 0.136949
H61   H     H_    0.475645 0.683778 0.082603 0.109076
H62   H     H_    0.312198 0.218119 0.752246 0.129077
H63   H     H_    0.326088 0.193627 0.234769 0.151428
H64   H     H_    0.495552 0.715030 0.937246 0.129457
H65   H     H_    0.976785 0.185155 0.581249 0.108554
H66   H     H_    0.995480 0.784751 0.437337 0.130466
H67   H     H_    0.862022 0.662578 0.697482 0.184912
H68   H     H_    0.996420 0.217009 0.437958 0.129740
H69   H     H_    0.331633 0.814216 0.227288 0.116356
H70   H     H_    0.496629 0.282479 0.938233 0.129567
H71   H     H_    0.477114 0.314471 0.080942 0.104784
H72   H     H_    0.313292 0.784600 0.753449 0.129190
H73   H     H_    0.827729 0.308271 0.732747 0.145843
H74   H     H_    0.812844 0.716488 0.252660 0.128206
H75   H     H_    0.951003 0.835859 0.607525 0.117790
H76   H     H_    0.812582 0.282758 0.252595 0.129051
H77   H     H_    0.816946 0.364584 0.839032 0.136952
H78   H     H_    0.784758 0.690399 0.128213 0.135482
H79   H     H_    0.037504 0.906910 0.616729 0.129495
H80   H     H_    0.783788 0.307158 0.127679 0.136162
H81   H     H_    0.320622 0.869709 0.334236 0.134718
H82   H     H_    0.621843 0.303721 0.968927 0.139703
H83   H     H_    0.584990 0.368710 0.068525 0.125656
H84   H     H_    0.284972 0.810908 0.629185 0.135148
H85   H     H_    0.024861 0.315872 0.917475 0.108502
H86   H     H_    0.004163 0.715804 0.062663 0.124585
H87   H     H_    0.143199 0.835397 0.798142 0.118707
H88   H     H_    0.003239 0.282700 0.061971 0.131067
H89   H     H_    0.524540 0.816320 0.417223 0.108275
H90   H     H_    0.689326 0.276911 0.750128 0.172421
H91   H     H_    0.668777 0.314677 0.272308 0.105064
H92   H     H_    0.503746 0.784009 0.562542 0.128205
H93   H     H_    0.315660 0.047381 0.759767 0.129831
H94   H     H_    0.315404 0.951860 0.760022 0.131759
H95   H     H_    0.752322 0.549085 0.252818 0.126298
H96   H     H_    0.752101 0.453520 0.251822 0.126587
C153  C     C_R   0.214445 0.054555 0.136689 0.055026
C154  C     C_R   0.208742 0.946462 0.136304 0.035025
C155  C     C_R   0.732289 0.552804 0.642933 0.023682
C156  C     C_R   0.755736 0.445723 0.642856 0.054608
C157  C     C_R   0.182412 0.028046 0.194494 -0.266591
C158  C     C_R   0.179502 0.974824 0.194301 -0.125276
C159  C     C_R   0.740886 0.525760 0.708379 -0.176514
C160  C     C_R   0.752843 0.473250 0.708280 -0.189031
C161  C     C_R   0.231190 0.972587 0.070351 -0.039636
C162  C     C_R   0.232904 0.027666 0.070352 0.053003
C163  C     C_R   0.750580 0.472197 0.573677 -0.001344
C164  C     C_R   0.742717 0.526997 0.573928 -0.026641
C165  C     C_R   0.250606 0.946229 0.004415 -0.136182
C166  C     C_R   0.251332 0.053742 0.004099 -0.135995
C167  C     C_R   0.750959 0.446249 0.504637 -0.141073
C168  C     C_R   0.747349 0.553730 0.505669 -0.143340
C169  C     C_R   0.269314 0.972793 0.939517 0.089981
C170  C     C_R   0.269441 0.026987 0.939318 0.058674
C171  C     C_R   0.750468 0.473232 0.437466 0.075829
C172  C     C_R   0.750112 0.527452 0.438017 0.086741
C173  C     C_R   0.286101 0.946114 0.873555 -0.144440
C174  C     C_R   0.286344 0.053477 0.873257 -0.145452
C175  C     C_R   0.751101 0.446964 0.369104 -0.144749
C176  C     C_R   0.751146 0.554426 0.370220 -0.141193
C177  C     C_R   0.302886 0.972877 0.809673 -0.148660
C178  C     C_R   0.303009 0.026519 0.809523 -0.134817
C179  C     C_R   0.751685 0.474196 0.303353 -0.134646
C180  C     C_R   0.751869 0.527879 0.303913 -0.139741
H97   H     H_    0.165416 0.048442 0.243440 0.138901
H98   H     H_    0.159815 0.955564 0.243131 0.172885
H99   H     H_    0.734457 0.545072 0.760655 0.167700
H100  H     H_    0.757864 0.453477 0.760421 0.151387
C181  C     C_2   0.234571 0.108519 0.153729 0.343714
H101  H     H_    0.194598 0.134623 0.177103 0.037510
O53   O     O_2   0.297611 0.122811 0.147140 -0.581115
C182  C     C_2   0.218949 0.890647 0.151286 0.376686
H102  H     H_    0.269213 0.871357 0.136504 0.039003
O54   O     O_2   0.171611 0.865968 0.182528 -0.604292
C183  C     C_2   0.702221 0.605448 0.651312 0.332315
H103  H     H_    0.653359 0.616536 0.621940 0.122650
O55   O     O_2   0.729175 0.635758 0.694782 -0.651086
C184  C     C_2   0.766125 0.389646 0.651937 0.323499
H104  H     H_    0.816588 0.371609 0.634844 0.083109
O56   O     O_2   0.718431 0.363487 0.680102 -0.610657

loop_
_geom_bond_atom_site_label_1
_geom_bond_atom_site_label_2
_geom_bond_distance
_ccdc_geom_bond_type
C153  C162  1.438617 A    
C87   C119  1.411394 A    
C94   C102  1.415070 A    
C109  C149  1.416636 A    
C164  C168  1.428666 A    
C99   C123  1.416331 A    
C75   C91   1.413507 A    
C169  C170  1.400844 A    
C97   C121  1.416446 A    
O26   C7    1.278721 A    
C73   C89   1.413172 A    
C66   C74   1.418728 A    
C99   C111  1.412031 A    
C4    C90   1.454036 S    
O30   C11   1.276497 A    
C22   C38   1.492485 S    
C153  C181  1.475618 S    
C30   H14   1.113490 S    
C91   C99   1.413192 A    
C136  C140  1.387824 A    
C89   C97   1.412780 A    
H93   C178  1.082727 S    
C131  C143  1.390121 A    
Zn12  O26   1.931341 S    
C110  C118  1.416584 A    
C51   C63   1.389410 A    
H34   C142  1.081800 S    
C161  C165  1.430144 A    
C92   C100  1.414782 A    
C43   C51   1.393541 A    
C76   C92   1.414409 A    
C32   C39   1.554263 S    
H29   C137  1.082395 S    
C96   C104  1.415023 A    
C34   C38   1.551141 S    
C44   H40   1.080488 S    
O11   C7    1.275793 A    
C45   H41   1.082435 S    
C42   C82   1.418863 A    
O34   C15   1.276983 A    
C135  H79   1.082590 S    
C55   H51   1.082423 S    
C155  C159  1.393861 A    
C62   C70   1.392544 A    
C41   H37   1.082398 S    
C159  C160  1.375068 A    
C137  C145  1.393752 A    
C98   C122  1.418968 A    
Zn1   O44   1.947977 S    
C25   H1    1.113493 S    
Zn2   O43   1.947976 S    
C108  C116  1.415733 A    
C141  C149  1.394014 A    
Zn5   O48   1.947977 S    
H32   C140  1.081623 S    
Zn6   O47   1.947976 S    
Zn15  O3    1.951300 S    
C112  C120  1.415675 A    
Zn7   O46   1.948009 S    
O16   C12   1.276900 A    
C11   C115  1.449680 S    
C183  H103  1.081914 S    
C42   C50   1.392866 A    
C169  C173  1.423206 A    
Zn16  O4    1.952598 S    
C182  H102  1.083050 S    
Zn12  O4    1.951601 S    
C159  H99   1.084574 S    
C71   H67   1.079005 S    
C98   C110  1.412093 A    
C26   C28   1.547053 S    
C72   H68   1.081110 S    
Zn4   O16   1.938293 S    
C57   H53   1.082472 S    
C104  C128  1.418586 A    
C9    C113  1.449183 S    
C33   C37   1.551142 S    
C6    C96   1.454352 S    
C28   H4    1.112963 S    
C150  H90   1.079393 S    
C125  C133  1.393276 A    
C63   H59   1.082625 S    
C13   C117  1.450534 S    
C64   H60   1.081749 S    
C71   C79   1.415851 A    
C72   C80   1.418608 A    
C14   C118  1.455750 S    
C44   C84   1.418362 A    
C45   C85   1.416888 A    
C30   H6    1.113471 S    
Zn10  O22   1.931341 S    
C105  C113  1.411664 A    
C48   C88   1.417828 A    
O25   C8    1.277283 A    
C163  C167  1.428812 A    
C129  C141  1.390084 A    
C15   C119  1.449052 S    
Zn10  O2    1.951601 S    
C31   C40   1.551145 S    
O29   C12   1.277058 A    
C65   H61   1.082341 S    
Zn15  O33   1.936528 S    
C171  C172  1.401569 A    
C75   C87   1.410553 A    
C26   H2    1.113000 S    
C147  H87   1.082115 S    
C157  C158  1.376705 A    
C41   C81   1.416584 A    
C135  C139  1.389834 A    
O48   C23   1.276569 A    
C130  C142  1.387259 A    
Zn13  O29   1.936528 S    
C181  H101  1.085064 S    
C132  C144  1.388457 A    
C101  C125  1.414225 A    
C156  C160  1.392368 A    
Zn16  O35   1.936279 S    
C77   C93   1.412958 A    
C70   C78   1.418803 A    
C157  H97   1.084808 S    
C82   C114  1.417054 A    
Zn7   O10   1.938249 S    
C123  H71   1.082301 S    
O33   C16   1.278499 A    
C25   C37   1.554219 S    
C86   C118  1.415979 A    
Zn8   O20   1.938293 S    
O40   C20   1.270378 A    
C52   C64   1.387374 A    
C70   H66   1.081374 S    
C1    C91   1.452844 S    
C102  C106  1.412377 A    
H95   C180  1.082756 S    
C80   C96   1.414957 A    
C52   H48   1.080983 S    
H33   C141  1.082427 S    
H31   C139  1.082720 S    
C57   C65   1.393968 A    
C53   H49   1.082586 S    
C25   C27   1.536307 S    
C129  H81   1.082648 S    
C103  C107  1.411518 A    
C67   C75   1.414490 A    
C161  C162  1.424076 A    
C17   C166  1.438815 S    
C61   H57   1.082431 S    
C65   C73   1.416510 A    
H96   C179  1.082763 S    
C27   H3    1.113494 S    
C32   H8    1.113469 S    
Zn8   O3    1.947510 S    
C21   C37   1.492633 S    
O38   C18   1.272665 A    
C145  H85   1.082330 S    
H22   C34   1.112968 S    
O5    C1    1.275786 A    
C47   C55   1.393370 A    
O32   C9    1.276767 A    
C151  H91   1.082428 S    
H25   C35   1.112998 S    
C152  H92   1.081238 S    
H26   C36   1.113033 S    
C36   C40   1.551383 S    
Zn15  O51   1.948761 S    
C111  C151  1.416622 A    
Zn11  O28   1.931052 S    
C184  O56   1.220062 D    
C183  O55   1.219123 D    
C121  H69   1.081479 S    
H23   C34   1.113057 S    
C42   H38   1.080192 S    
C29   C39   1.551145 S    
H28   C35   1.113055 S    
O8    C4    1.277268 A    
C63   C71   1.393256 A    
C33   C34   1.546828 S    
C64   C72   1.392244 A    
C49   C61   1.390078 A    
H20   C176  1.082167 S    
O37   C17   1.270726 A    
C107  C115  1.413632 A    
C100  C112  1.412480 A    
Zn1   O1    1.947576 S    
C122  C130  1.392351 A    
C133  C137  1.389586 A    
Zn2   O14   1.938666 S    
C29   H5    1.112967 S    
C58   H54   1.082035 S    
C68   C76   1.418827 A    
C167  C171  1.411798 A    
O9    C5    1.278749 A    
C43   H39   1.082014 S    
O36   C13   1.276529 A    
C60   C68   1.392756 A    
O13   C9    1.275885 A    
Zn1   O8    1.938622 S    
C2    C92   1.453670 S    
Zn2   O7    1.933285 S    
C165  C169  1.413331 A    
Zn3   O6    1.938249 S    
O18   C14   1.276609 A    
O31   C10   1.279659 A    
C106  C146  1.418561 A    
C25   H9    1.113469 S    
H94   C177  1.082723 S    
C110  C150  1.418597 A    
C93   C101  1.413246 A    
C32   H16   1.113491 S    
H18   C174  1.081773 S    
Zn14  O30   1.931304 S    
C59   H55   1.082244 S    
C156  C184  1.471449 S    
C74   C90   1.415038 A    
Zn11  O3    1.952900 S    
O41   C21   1.276616 A    
C56   C60   1.387908 A    
C66   H62   1.081072 S    
Zn16  O34   1.931304 S    
C31   H15   1.113050 S    
C74   C86   1.412416 A    
C3    C89   1.450954 S    
Zn2   O2    1.947574 S    
C90   C98   1.414946 A    
C78   C82   1.412074 A    
O10   C6    1.276903 A    
C155  C183  1.476719 S    
C109  C117  1.413042 A    
C182  O54   1.219940 D    
C162  C166  1.426960 A    
C108  C148  1.418580 A    
C59   C67   1.393476 A    
C47   H43   1.082327 S    
C48   H44   1.079087 S    
C84   C116  1.415635 A    
C69   C77   1.416359 A    
C112  C152  1.418428 A    
Zn8   O9    1.933686 S    
C24   C40   1.492630 S    
C131  H83   1.082455 S    
C132  H84   1.082778 S    
C133  H77   1.082510 S    
C7    C93   1.452500 S    
C56   H52   1.082777 S    
C154  C158  1.397068 A    
C138  C146  1.392969 A    
O7    C3    1.276618 A    
C88   C120  1.416477 A    
C95   C103  1.413576 A    
C16   C120  1.456002 S    
O19   C15   1.276310 A    
Zn13  O49   1.948761 S    
C142  C150  1.392453 A    
C43   C83   1.417749 A    
O44   C21   1.279540 A    
C26   H10   1.113055 S    
Zn9   O24   1.931052 S    
Zn6   O18   1.938666 S    
Zn10  O23   1.936278 S    
C49   H45   1.082549 S    
O50   C18   1.271958 A    
C79   C83   1.410502 A    
C170  C174  1.422680 A    
H19   C175  1.082237 S    
C58   C66   1.392434 A    
C130  H82   1.081813 S    
Zn15  O36   1.931593 S    
O15   C11   1.277236 A    
O42   C22   1.279511 A    
C97   C109  1.411520 A    
C28   C37   1.551394 S    
C46   H42   1.081026 S    
Zn4   O1    1.947510 S    
C30   C32   1.536307 S    
Zn9   O37   1.948067 S    
C35   C36   1.547037 S    
O12   C8    1.277029 A    
C53   C57   1.390134 A    
Zn11  O39   1.948067 S    
C146  H86   1.081267 S    
C46   C54   1.392878 A    
C60   H56   1.082034 S    
C176  C180  1.392554 A    
H21   C33   1.113052 S    
Zn5   O3    1.947576 S    
Zn13  O1    1.951300 S    
C31   H7    1.112964 S    
C54   H50   1.081617 S    
C121  C129  1.393383 A    
C139  C147  1.393463 A    
C163  C164  1.423941 A    
C8    C94   1.454117 S    
H17   C173  1.081714 S    
C10   C114  1.455812 S    
C136  H80   1.081923 S    
C160  H100  1.084954 S    
H35   C143  1.082541 S    
H24   C33   1.112963 S    
C27   C38   1.554262 S    
O28   C5    1.276430 A    
Zn3   O42   1.948009 S    
C153  C157  1.390405 A    
C23   C39   1.492490 S    
Zn7   O4    1.947512 S    
O21   C4    1.277023 A    
C50   C62   1.387948 A    
C44   C52   1.392560 A    
C45   C53   1.393596 A    
C173  C177  1.392023 A    
C105  C145  1.417098 A    
C143  C151  1.393613 A    
C175  C179  1.392575 A    
C179  C180  1.387675 A    
C48   C56   1.392637 A    
C154  C182  1.480415 S    
C102  C126  1.418581 A    
Zn14  O2    1.952598 S    
C78   C94   1.414728 A    
C172  C176  1.421776 A    
C158  H98   1.084399 S    
C83   C115  1.412682 A    
C177  C178  1.386592 A    
C28   H12   1.113031 S    
C81   C113  1.412925 A    
Zn12  O27   1.936278 S    
C35   C39   1.551324 S    
C20   C167  1.438634 S    
C85   C117  1.412844 A    
C46   C86   1.418747 A    
C61   C69   1.393890 A    
C30   C40   1.554220 S    
Zn3   O2    1.947512 S    
C127  C135  1.393667 A    
C156  C163  1.440389 A    
H27   C36   1.112964 S    
C122  H70   1.081074 S    
O46   C24   1.276617 A    
O47   C24   1.279537 A    
Zn16  O52   1.948109 S    
C100  C124  1.418354 A    
H30   C138  1.082774 S    
C104  C108  1.412477 A    
Zn8   O45   1.948009 S    
C41   C49   1.393635 A    
O27   C6    1.276743 A    
C47   C87   1.417055 A    
C181  O53   1.219501 D    
O39   C19   1.278485 A    
C18   C165  1.437805 S    
C67   H63   1.079210 S    
Zn1   O13   1.933328 S    
C29   C31   1.546843 S    
C148  H88   1.081120 S    
C73   C85   1.411772 A    
O24   C1    1.279709 A    
C149  H89   1.082347 S    
C76   C88   1.411868 A    
C77   C81   1.411944 A    
C174  C178  1.391951 A    
C79   C95   1.414193 A    
C80   C84   1.412332 A    
C154  C161  1.442336 A    
Zn5   O17   1.933328 S    
O43   C22   1.276567 A    
O14   C10   1.275582 A    
Zn4   O41   1.948009 S    
Zn3   O15   1.933729 S    
C127  H75   1.082014 S    
C128  H76   1.081161 S    
Zn5   O12   1.938622 S    
Zn6   O11   1.933285 S    
C101  C105  1.410479 A    
Zn6   O4    1.947574 S    
Zn9   O21   1.936028 S    
Zn14  O50   1.948109 S    
C124  H72   1.081389 S    
C125  H73   1.078450 S    
O35   C14   1.278561 A    
Zn12  O40   1.948718 S    
C134  H78   1.082233 S    
Zn9   O1    1.952900 S    
H36   C144  1.081897 S    
O52   C20   1.274110 A    
C55   C59   1.389389 A    
C126  C134  1.393020 A    
C29   H13   1.113056 S    
O22   C3    1.277112 A    
C140  C148  1.392875 A    
Zn7   O19   1.933729 S    
C168  C172  1.411575 A    
C50   H46   1.082358 S    
C111  C119  1.412815 A    
C12   C116  1.455164 S    
Zn13  O32   1.931593 S    
C144  C152  1.393256 A    
O49   C17   1.273753 A    
Zn14  O31   1.936279 S    
C123  C131  1.393970 A    
C134  C138  1.388475 A    
O51   C19   1.267308 A    
C106  C114  1.415606 A    
C126  H74   1.081282 S    
C27   H11   1.113469 S    
C171  C175  1.421856 A    
Zn4   O5    1.933686 S    
C103  C127  1.417158 A    
O20   C16   1.275947 A    
C5    C95   1.452143 S    
C26   C38   1.551333 S    
O23   C2    1.276558 A    
O6    C2    1.276690 A    
Zn11  O25   1.936028 S    
C184  H104  1.083170 S    
Zn10  O38   1.948718 S    
C124  C132  1.392699 A    
C54   C58   1.387718 A    
C68   H64   1.081347 S    
C19   C168  1.440514 S    
C69   H65   1.082317 S    
C155  C164  1.439804 A    
C166  C170  1.411481 A    
C128  C136  1.392539 A    
C107  C147  1.417366 A    
O17   C13   1.276837 A    
C62   H58   1.082775 S    
C51   H47   1.082588 S    
O45   C23   1.279512 A    
