data_mof_unit_58912.cif
_audit_creation_date              2012-12-10T16:57:45-0500
_audit_creation_method            fapswitch 2.2
_symmetry_space_group_name_H-M    P1
_symmetry_Int_Tables_number       1
_space_group_crystal_system       triclinic
_cell_length_a                    7.758138
_cell_length_b                    8.573379
_cell_length_c                    18.988051
_cell_angle_alpha                 90.788994
_cell_angle_beta                  86.181837
_cell_angle_gamma                 93.549839
_cell_volume                      1257.68080777

loop_
_atom_site_label
_atom_site_type_symbol
_atom_type_description
_atom_site_fract_x
_atom_site_fract_y
_atom_site_fract_z
_atom_type_partial_charge
C1    C     C_R   0.545754 0.794749 0.498232 0.971469
C2    C     C_R   0.623594 0.494126 0.171753 -0.273124
C3    C     C_R   0.503687 0.359066 0.851410 0.009645
C4    C     C_R   0.487726 0.397459 0.146676 0.018416
C5    C     C_R   0.659506 0.371989 0.807897 0.238095
C6    C     C_R   0.349158 0.342858 0.193684 0.239904
C7    C     C_R   0.655427 0.422280 0.738695 -0.285560
C8    C     C_R   0.349835 0.386738 0.264699 -0.328597
C9    C     C_R   0.498448 0.447840 0.709592 -0.121733
C10   C     C_R   0.489364 0.478002 0.289672 -0.096928
C11   C     C_R   0.491971 0.363509 0.070900 0.308152
C12   C     C_R   0.454244 0.205259 0.501860 0.952732
C13   C     C_R   0.501430 0.342317 0.928500 0.291077
C14   C     C_3   0.125101 0.268482 0.688305 -0.698904
C15   C     C_3   0.928578 0.556653 0.268543 -0.740519
C16   C     C_3   0.838274 0.166809 0.841737 -0.765456
C17   C     C_3   0.253248 0.078297 0.165179 -0.761909
C18   C     C_2   0.569901 0.958167 0.497239 -0.379221
C19   C     C_2   0.430082 0.041876 0.503101 -0.388887
C20   C     C_R   0.500490 0.490226 0.634765 0.880670
C21   C     C_R   0.497532 0.499642 0.365353 0.900688
C22   C     C_R   0.341541 0.415979 0.750455 0.209244
C23   C     C_R   0.627298 0.532482 0.242998 0.198693
C24   C     C_R   0.346106 0.377561 0.821280 -0.277323
H1    H     H_    0.224542 0.361839 0.852587 0.167258
H2    H     H_    0.103346 0.176434 0.729002 0.227464
H3    H     H_    0.225457 0.231617 0.648129 0.242763
H4    H     H_    0.003549 0.280158 0.661724 0.230962
H5    H     H_    0.781355 0.736227 0.241100 0.217871
H6    H     H_    0.980987 0.531059 0.213999 0.223489
H7    H     H_    0.910910 0.446270 0.298880 0.247919
H8    H     H_    0.024029 0.636094 0.294539 0.241324
H9    H     H_    0.874743 0.405648 0.868020 0.236739
H10   H     H_    0.972686 0.147267 0.854627 0.236836
H11   H     H_    0.810126 0.099820 0.792887 0.242224
H12   H     H_    0.728227 0.540815 0.135989 0.169656
H13   H     H_    0.748372 0.122573 0.885884 0.250919
H14   H     H_    0.094900 0.253544 0.198652 0.222897
H15   H     H_    0.276526 0.032772 0.218039 0.229099
H16   H     H_    0.369866 0.064908 0.128898 0.249286
H17   H     H_    0.143273 0.007965 0.143743 0.241527
H18   H     H_    0.776366 0.438106 0.707075 0.178152
H19   H     H_    0.245635 0.341912 0.301197 0.157775
H20   H     H_    0.702002 0.009063 0.491608 0.179330
H21   H     H_    0.297976 0.991007 0.508781 0.179705
H22   H     H_    0.013572 0.382855 0.447151 0.185678
H23   H     H_    0.986427 0.617116 0.552856 0.192847
H24   H     H_    0.082497 0.460604 0.753533 0.227166
N1    N     N_R   0.648734 0.368736 0.962206 -0.180447
N2    N     N_2   0.211992 0.240476 0.170790 -0.296341
N3    N     N_R   0.344115 0.333562 0.037648 -0.135605
N4    N     N_R   0.644503 0.378240 0.031939 -0.184083
N5    N     N_R   0.348879 0.322840 0.967696 -0.179556
N6    N     N_2   0.950330 0.457950 0.481240 -0.175507
N7    N     N_2   0.049670 0.542050 0.518760 -0.169707
N8    N     N_2   0.178533 0.416403 0.720382 -0.286982
N9    N     N_2   0.766275 0.630899 0.267085 -0.298371
N10   N     N_2   0.821504 0.331816 0.830957 -0.324556
O1    O     O_R   0.389250 0.738570 0.504600 -0.611502
O2    O     O_R   0.610750 0.261430 0.495400 -0.612643
O3    O     O_R   0.678400 0.711620 0.492580 -0.624625
O4    O     O_R   0.321600 0.288380 0.507420 -0.638092
O5    O     O_R   0.355380 0.513500 0.607880 -0.581681
O6    O     O_R   0.644620 0.486500 0.392120 -0.590474
O7    O     O_R   0.644530 0.486550 0.595850 -0.635369
O8    O     O_R   0.355470 0.513450 0.404150 -0.633817
Zn1   Zn    Zn3+2 0.306930 0.517990 0.508030 0.939655
Zn2   Zn    Zn3+2 0.693070 0.482010 0.491970 0.940191

loop_
_geom_bond_atom_site_label_1
_geom_bond_atom_site_label_2
_ccdc_geom_bond_type
C17   N2    S    
C2    C4    A    
C19   H21   S    
C15   H7    S    
H9    N10   S    
H14   N2    S    
C18   H20   S    
C10   C23   A    
C12   O4    A    
C9    C20   S    
C14   N8    S    
C3    C13   S    
C8    H19   S    
H24   N8    S    
C16   H13   S    
C3    C5    A    
O7    Zn2   S    
O1    Zn1   S    
C7    C9    A    
H22   N6    S    
C20   O5    A    
C6    C8    A    
O8    Zn1   S    
C1    C18   S    
C5    C7    A    
C15   H8    S    
C10   C21   S    
C16   H10   S    
C16   N10   S    
C6    N2    S    
C4    C11   S    
C15   N9    S    
O3    Zn2   S    
C3    C24   A    
N7    Zn1   S    
C5    N10   S    
C13   N1    A    
O4    Zn1   S    
C12   C19   S    
C8    C10   A    
H5    N9    S    
C18   C19   D    
C13   N5    A    
C1    O1    A    
C16   H11   S    
C14   H3    S    
O5    Zn1   S    
C9    C22   A    
C7    H18   S    
C17   H17   S    
N6    Zn2   S    
C12   O2    A    
O6    Zn2   S    
C20   O7    A    
C11   N3    A    
C24   H1    S    
O2    Zn2   S    
C15   H6    S    
H23   N7    S    
C4    C6    A    
C17   H15   S    
C22   C24   A    
C2    H12   S    
C2    C23   A    
C23   N9    S    
N6    N7    D    
C21   O6    A    
C22   N8    S    
C11   N4    A    
C14   H4    S    
C17   H16   S    
C14   H2    S    
N1    N4    A    
N3    N5    A    
C21   O8    A    
C1    O3    A    
