data_mof_unit_9604.cif
_audit_creation_date              2012-12-11T14:54:21-0500
_audit_creation_method            fapswitch 2.2
_symmetry_space_group_name_H-M    P1
_symmetry_Int_Tables_number       1
_space_group_crystal_system       triclinic
_cell_length_a                    19.025561
_cell_length_b                    10.867459
_cell_length_c                    18.800095
_cell_angle_alpha                 89.808549
_cell_angle_beta                  90.056514
_cell_angle_gamma                 89.986399
_cell_volume                      3887.07461588

loop_
_atom_site_label
_atom_site_type_symbol
_atom_type_description
_atom_site_fract_x
_atom_site_fract_y
_atom_site_fract_z
_atom_type_partial_charge
C1    C     C_R   0.728371 0.373927 0.644321 0.540638
C2    C     C_R   0.270173 0.375424 0.354448 0.550124
C3    C     C_R   0.228371 0.873927 0.644321 0.540638
C4    C     C_R   0.770173 0.875424 0.354448 0.550124
C5    C     C_3   0.452594 0.359939 0.473128 -0.242196
C6    C     C_3   0.474805 0.357449 0.550641 -0.246889
C7    C     C_3   0.952594 0.859939 0.473129 -0.242196
C8    C     C_3   0.974805 0.857449 0.550641 -0.246889
C9    C     C_R   0.717353 0.836634 0.543339 -0.065686
C10   C     C_R   0.307953 0.879804 0.462757 -0.142943
C11   C     C_R   0.217353 0.336633 0.543339 -0.065687
C12   C     C_R   0.807953 0.379804 0.462757 -0.142944
C13   C     C_R   0.718916 0.819989 0.470181 -0.062614
C14   C     C_R   0.303154 0.870165 0.536292 -0.150852
C15   C     C_R   0.218916 0.319989 0.470181 -0.062614
C16   C     C_R   0.803154 0.370165 0.536292 -0.150852
C17   C     C_R   0.751694 0.908201 0.426266 0.042055
C18   C     C_R   0.240042 0.900841 0.569864 0.021937
C19   C     C_R   0.251694 0.408201 0.426266 0.042055
C20   C     C_R   0.740042 0.400842 0.569864 0.021937
C21   C     C_R   0.780202 0.014753 0.455211 -0.147050
C22   C     C_R   0.181449 0.936950 0.529327 -0.135992
C23   C     C_R   0.280202 0.514753 0.455211 -0.147050
C24   C     C_R   0.681449 0.436950 0.529327 -0.135992
C25   C     C_R   0.778697 0.031048 0.527697 -0.135292
C26   C     C_R   0.185329 0.941668 0.456666 -0.139299
C27   C     C_R   0.278697 0.531048 0.527697 -0.135292
C28   C     C_R   0.685329 0.441668 0.456666 -0.139299
C29   C     C_R   0.747934 0.941817 0.572135 0.042520
C30   C     C_R   0.249291 0.919026 0.423067 0.019977
C31   C     C_R   0.247934 0.441817 0.572135 0.042520
C32   C     C_R   0.749291 0.419026 0.423067 0.019977
C33   C     C_R   0.460831 0.059926 0.949072 0.401592
C34   C     C_R   0.442899 0.056871 0.020425 0.389183
C35   C     C_R   0.960831 0.559926 0.949072 0.401592
C36   C     C_R   0.942898 0.556871 0.020425 0.389183
C37   C     C_R   0.452324 0.161207 0.063043 -0.027824
C38   C     C_R   0.491874 0.166030 0.919783 -0.028766
C39   C     C_R   0.952324 0.661207 0.063043 -0.027824
C40   C     C_R   0.991874 0.666030 0.919783 -0.028767
C41   C     C_R   0.476785 0.270981 0.032158 -0.219037
C42   C     C_R   0.496898 0.273158 0.960952 -0.223442
C43   C     C_R   0.976785 0.770981 0.032158 -0.219037
C44   C     C_R   0.996899 0.773158 0.960952 -0.223442
C45   C     C_R   0.564651 0.150873 0.639039 0.588064
C46   C     C_R   0.469289 0.155108 0.353080 0.576390
C47   C     C_R   0.064651 0.650873 0.639039 0.588064
C48   C     C_R   0.969289 0.655108 0.353080 0.576390
C49   C     C_R   0.814580 0.945858 0.958900 -0.138707
C50   C     C_R   0.219270 0.032070 0.026164 -0.131104
C51   C     C_R   0.314580 0.445859 0.958900 -0.138707
C52   C     C_R   0.719270 0.532070 0.026164 -0.131104
C53   C     C_R   0.818549 0.940860 0.031584 -0.136303
C54   C     C_R   0.217556 0.016009 0.953634 -0.139926
C55   C     C_R   0.318549 0.440861 0.031584 -0.136303
C56   C     C_R   0.717556 0.516009 0.953634 -0.139927
C57   C     C_R   0.760053 0.904143 0.071929 0.024631
C58   C     C_R   0.248071 0.911441 0.924327 0.043827
C59   C     C_R   0.260053 0.404143 0.071929 0.024631
C60   C     C_R   0.748071 0.411441 0.924327 0.043827
C61   C     C_R   0.697015 0.873069 0.038210 -0.146034
C62   C     C_R   0.283206 0.825401 0.967898 -0.058166
C63   C     C_R   0.197015 0.373069 0.038210 -0.146034
C64   C     C_R   0.783206 0.325401 0.967898 -0.058166
C65   C     C_R   0.692189 0.882591 0.964709 -0.139988
C66   C     C_R   0.284843 0.841660 0.041024 -0.061230
C67   C     C_R   0.192189 0.382591 0.964709 -0.139988
C68   C     C_R   0.784843 0.341660 0.041024 -0.061230
C69   C     C_R   0.750717 0.922269 0.925153 0.021438
C70   C     C_R   0.252147 0.944480 0.070231 0.043872
C71   C     C_R   0.250717 0.422269 0.925153 0.021438
C72   C     C_R   0.752147 0.444480 0.070231 0.043873
C73   C     C_R   0.740987 0.971738 0.646507 0.536227
C74   C     C_R   0.258546 0.967605 0.352085 0.538072
C75   C     C_R   0.240987 0.471738 0.646507 0.536227
C76   C     C_R   0.758546 0.467605 0.352085 0.538072
C77   C     C_R   0.729687 0.377472 0.852603 0.553988
C78   C     C_R   0.271757 0.375975 0.146203 0.542365
C79   C     C_R   0.229687 0.877472 0.852603 0.553989
C80   C     C_R   0.771757 0.875975 0.146203 0.542365
C81   C     C_R   0.530190 0.157144 0.852470 0.578494
C82   C     C_R   0.436086 0.153184 0.139041 0.586729
C83   C     C_R   0.030190 0.657144 0.852470 0.578494
C84   C     C_R   0.936086 0.653184 0.139041 0.586729
C85   C     C_R   0.741341 0.969581 0.853909 0.538943
C86   C     C_R   0.259234 0.973970 0.144633 0.539807
C87   C     C_R   0.241341 0.469581 0.853909 0.538943
C88   C     C_R   0.759234 0.473970 0.144633 0.539807
C89   C     C_R   0.511546 0.163892 0.417955 -0.035260
C90   C     C_R   0.551321 0.158156 0.562479 -0.037149
C91   C     C_R   0.011546 0.663892 0.417955 -0.035261
C92   C     C_R   0.051321 0.658156 0.562479 -0.037149
C93   C     C_R   0.510818 0.271007 0.459034 -0.065799
C94   C     C_R   0.530972 0.268426 0.529794 -0.064361
C95   C     C_R   0.010818 0.771007 0.459034 -0.065799
C96   C     C_R   0.030972 0.768426 0.529794 -0.064361
C97   C     C_R   0.562096 0.054608 0.519083 0.369405
C98   C     C_R   0.544007 0.058128 0.446954 0.383329
C99   C     C_R   0.062096 0.554608 0.519083 0.369404
C100  C     C_R   0.044007 0.558128 0.446954 0.383329
Cr1   Cr    Cr6+3 0.771950 0.169480 0.750100 1.041087
Cr2   Cr    Cr6+3 0.228050 0.169480 0.249900 1.045711
Cr3   Cr    Cr6+3 0.271950 0.669480 0.750100 1.041087
Cr4   Cr    Cr6+3 0.728050 0.669480 0.249900 1.045711
Cr5   Cr    Cr6+3 0.614930 0.323340 0.749170 1.020085
Cr6   Cr    Cr6+3 0.385070 0.323340 0.250830 1.020338
Cr7   Cr    Cr6+3 0.114930 0.823340 0.749170 1.020085
Cr8   Cr    Cr6+3 0.885070 0.823340 0.250830 1.020338
Cr9   Cr    Cr6+3 0.616590 0.010620 0.750610 1.090134
Cr10  Cr    Cr6+3 0.383410 0.010620 0.249390 1.090844
Cr11  Cr    Cr6+3 0.116590 0.510620 0.750610 1.090134
Cr12  Cr    Cr6+3 0.883410 0.510620 0.249390 1.090845
H1    H     H_    0.860525 0.976003 0.929586 0.146375
H2    H     H_    0.195281 0.114127 0.047731 0.145022
H3    H     H_    0.360525 0.476004 0.929586 0.146375
H4    H     H_    0.695281 0.614128 0.047731 0.145022
H5    H     H_    0.868592 0.963063 0.055786 0.145453
H6    H     H_    0.189980 0.082524 0.920798 0.134545
H7    H     H_    0.368592 0.463064 0.055786 0.145453
H8    H     H_    0.689980 0.582524 0.920798 0.134545
H9    H     H_    0.652005 0.841623 0.068466 0.146059
H10   H     H_    0.306063 0.742447 0.946027 0.153276
H11   H     H_    0.152005 0.341622 0.068466 0.146059
H12   H     H_    0.806063 0.242446 0.946027 0.153276
H13   H     H_    0.642041 0.864744 0.939445 0.162663
H14   H     H_    0.311432 0.774932 0.074503 0.148415
H15   H     H_    0.142041 0.364743 0.939445 0.162663
H16   H     H_    0.811432 0.274932 0.074503 0.148415
H17   H     H_    0.899696 0.819339 0.464135 0.150189
H18   H     H_    0.996802 0.946517 0.569142 0.151520
H19   H     H_    0.399696 0.319339 0.464135 0.150189
H20   H     H_    0.496802 0.446517 0.569142 0.151520
H21   H     H_    0.461666 0.450461 0.447020 0.159204
H22   H     H_    0.434636 0.315902 0.586336 0.153363
H23   H     H_    0.961666 0.950461 0.447020 0.159204
H24   H     H_    0.934636 0.815901 0.586337 0.153363
H25   H     H_    0.692444 0.768497 0.577123 0.143642
H26   H     H_    0.358187 0.862667 0.437593 0.161713
H27   H     H_    0.192444 0.268497 0.577123 0.143642
H28   H     H_    0.858186 0.362666 0.437593 0.161713
H29   H     H_    0.697855 0.735437 0.448491 0.150728
H30   H     H_    0.348265 0.839274 0.566685 0.144290
H31   H     H_    0.197855 0.235437 0.448491 0.150728
H32   H     H_    0.848265 0.339273 0.566685 0.144290
H33   H     H_    0.806194 0.082707 0.422103 0.134463
H34   H     H_    0.131383 0.959133 0.553379 0.151119
H35   H     H_    0.306194 0.582707 0.422103 0.134463
H36   H     H_    0.631383 0.459134 0.553380 0.151119
H37   H     H_    0.801183 0.114584 0.548985 0.146199
H38   H     H_    0.139269 0.971390 0.427281 0.148889
H39   H     H_    0.301183 0.614583 0.548985 0.146199
H40   H     H_    0.639269 0.471391 0.427281 0.148889
H41   H     H_    0.483754 0.353291 0.063665 0.160564
H42   H     H_    0.520348 0.356192 0.939547 0.163566
H43   H     H_    0.983754 0.853290 0.063665 0.160564
H44   H     H_    0.020348 0.856191 0.939547 0.163566
O1    O     O_R   0.787510 0.042610 0.670410 -0.531559
O2    O     O_R   0.212490 0.042610 0.329590 -0.519258
O3    O     O_R   0.287510 0.542610 0.670410 -0.531559
O4    O     O_R   0.712490 0.542610 0.329590 -0.519258
O5    O     O_R   0.556450 0.252890 0.823790 -0.512941
O6    O     O_R   0.443550 0.252890 0.176210 -0.517809
O7    O     O_R   0.056450 0.752890 0.823790 -0.512941
O8    O     O_R   0.943550 0.752890 0.176210 -0.517810
O9    O     O_R   0.545750 0.051070 0.830560 -0.443975
O10   O     O_R   0.454250 0.051070 0.169440 -0.441520
O11   O     O_R   0.045750 0.551070 0.830560 -0.443975
O12   O     O_R   0.954250 0.551070 0.169440 -0.441520
O13   O     O_R   0.681210 0.959150 0.825320 -0.509348
O14   O     O_R   0.318790 0.959150 0.174680 -0.480370
O15   O     O_R   0.181210 0.459150 0.825320 -0.509348
O16   O     O_R   0.818790 0.459150 0.174680 -0.480370
O17   O     O_3   0.667820 0.167810 0.749960 -0.288517
O18   O     O_3   0.332180 0.167810 0.250040 -0.290623
O19   O     O_3   0.167820 0.667810 0.749960 -0.288517
O20   O     O_3   0.832180 0.667810 0.250040 -0.290623
O21   O     O_R   0.765670 0.292090 0.675090 -0.501571
O22   O     O_R   0.234330 0.292090 0.324910 -0.482182
O23   O     O_R   0.265670 0.792090 0.675090 -0.501571
O24   O     O_R   0.734330 0.792090 0.324910 -0.482182
O25   O     O_R   0.670220 0.409020 0.668560 -0.530876
O26   O     O_R   0.329780 0.409020 0.331440 -0.527633
O27   O     O_R   0.170220 0.909020 0.668560 -0.530876
O28   O     O_R   0.829780 0.909020 0.331440 -0.527633
O29   O     O_R   0.556580 0.251590 0.674980 -0.514543
O30   O     O_R   0.443420 0.251590 0.325020 -0.506691
O31   O     O_R   0.056580 0.751590 0.674980 -0.514543
O32   O     O_R   0.943420 0.751590 0.325020 -0.506691
O33   O     O_R   0.545890 0.049670 0.670030 -0.448648
O34   O     O_R   0.454110 0.049670 0.329970 -0.446684
O35   O     O_R   0.045890 0.549670 0.670030 -0.448648
O36   O     O_R   0.954110 0.549670 0.329970 -0.446684
O37   O     O_R   0.681340 0.957860 0.676500 -0.478359
O38   O     O_R   0.318660 0.957860 0.323500 -0.510091
O39   O     O_R   0.181340 0.457860 0.676500 -0.478359
O40   O     O_R   0.818660 0.457860 0.323500 -0.510091
O41   O     O_R   0.787380 0.044010 0.830940 -0.520603
O42   O     O_R   0.212620 0.044010 0.169060 -0.527378
O43   O     O_R   0.287380 0.544010 0.830940 -0.520603
O44   O     O_R   0.712620 0.544010 0.169060 -0.527378
O45   O     O_R   0.765540 0.293390 0.823910 -0.485718
O46   O     O_R   0.234460 0.293390 0.176090 -0.500963
O47   O     O_R   0.265540 0.793390 0.823910 -0.485718
O48   O     O_R   0.734460 0.793390 0.176090 -0.500963
O49   O     O_R   0.670090 0.410410 0.829090 -0.521342
O50   O     O_R   0.329910 0.410410 0.170910 -0.530235
O51   O     O_R   0.170090 0.910410 0.829090 -0.521342
O52   O     O_R   0.829910 0.910410 0.170910 -0.530235
F1    F     F_    0.583350 0.946305 0.547734 -0.604327
F2    F     F_    0.551403 0.953849 0.408040 -0.587710
F3    F     F_    0.083350 0.446305 0.547734 -0.604327
F4    F     F_    0.051403 0.453849 0.408040 -0.587710
F5    F     F_    0.451729 0.956198 0.909972 -0.591953
F6    F     F_    0.419820 0.949390 0.048692 -0.607721
F7    F     F_    0.951729 0.456198 0.909972 -0.591953
F8    F     F_    0.919820 0.449390 0.048692 -0.607720

loop_
_geom_bond_atom_site_label_1
_geom_bond_atom_site_label_2
_ccdc_geom_bond_type
C58   C62   A    
C49   H1    S    
C14   H30   S    
Cr11  O35   S    
C93   C94   A    
C88   O16   A    
C73   O37   A    
C63   H11   S    
C8    H24   S    
C34   C37   A    
Cr4   O44   S    
C41   C42   A    
C14   C18   A    
Cr1   O17   S    
C95   C96   A    
C8    C96   S    
Cr6   O6    S    
C87   O43   A    
Cr8   O52   S    
Cr3   O3    S    
Cr2   O2    S    
C74   O38   A    
C97   C98   A    
C7    C8    S    
Cr4   O20   S    
C46   C89   S    
C99   F3    S    
C85   O13   A    
C5    H21   S    
Cr8   O8    S    
C50   C54   A    
C97   F1    S    
Cr11  O19   S    
C64   C68   A    
C25   H37   S    
C42   H42   S    
Cr4   O4    S    
C39   C84   S    
C38   C42   A    
C5    H19   S    
C77   O49   A    
Cr2   O42   S    
C2    O26   A    
C5    C6    S    
C30   C74   S    
C53   H5    S    
C67   C71   A    
C29   C73   S    
Cr12  O12   S    
Cr7   O31   S    
C92   C96   A    
C10   H26   S    
C46   O34   A    
C3    C18   S    
C61   H9    S    
C47   C92   S    
Cr1   O41   S    
Cr5   O29   S    
C57   C61   A    
C9    C13   A    
Cr6   O26   S    
C11   H27   S    
C76   O40   A    
C9    H25   S    
Cr12  O40   S    
C22   H34   S    
Cr9   O33   S    
C6    C94   S    
C48   C91   S    
Cr10  O38   S    
C27   H39   S    
C12   H28   S    
Cr9   O37   S    
C23   C27   A    
C91   C100  A    
C24   C28   A    
C68   H16   S    
C90   C97   A    
Cr7   O51   S    
C84   O8    A    
C9    C29   A    
C5    C93   S    
C52   H4    S    
C11   C31   A    
C49   C69   A    
C12   C32   A    
C89   C93   A    
C56   H8    S    
C40   C83   S    
Cr6   O50   S    
C1    O21   A    
C4    O24   A    
C43   H43   S    
C59   C78   S    
C72   C88   S    
Cr9   O13   S    
C90   C94   A    
C41   H41   S    
Cr10  O18   S    
C25   C29   A    
C63   C67   A    
C60   C77   S    
C59   C63   A    
C82   O10   A    
Cr8   O28   S    
C27   C31   A    
C44   H44   S    
C12   C16   A    
C28   C32   A    
Cr6   O30   S    
C6    H20   S    
C24   H36   S    
C62   C66   A    
C19   C23   A    
C55   H7    S    
C82   O6    A    
C51   C55   A    
C64   H12   S    
Cr3   O23   S    
C83   O11   A    
C1    O25   A    
Cr10  O34   S    
C17   C21   A    
C3    O23   A    
C48   O36   A    
Cr7   O27   S    
C68   C72   A    
C50   H2    S    
C35   C36   A    
C65   H13   S    
Cr4   O24   S    
C15   C19   A    
C43   C44   A    
C78   O50   A    
C7    H23   S    
C52   C72   A    
C67   H15   S    
Cr12  O36   S    
C98   F2    S    
C10   C30   A    
C31   C75   S    
C99   C100  A    
C26   H38   S    
C16   C20   A    
C87   O15   A    
Cr3   O19   S    
C33   C34   A    
Cr6   O18   S    
Cr3   O43   S    
C4    O28   A    
C74   O2    A    
Cr5   O49   S    
C45   C90   S    
C16   H32   S    
Cr9   O9    S    
C58   C79   S    
C86   O42   A    
C71   C87   S    
C4    C17   S    
Cr10  O14   S    
C45   O33   A    
C80   O52   A    
C57   C80   S    
C26   C30   A    
C83   O7    A    
C11   C15   A    
C54   H6    S    
C38   C81   S    
C34   F6    S    
Cr2   O22   S    
C15   H31   S    
C37   C82   S    
Cr7   O19   S    
Cr11  O11   S    
C47   O31   A    
C70   C86   S    
Cr4   O48   S    
C62   H10   S    
C69   C85   S    
C55   C59   A    
C54   C58   A    
C75   O3    A    
C21   C25   A    
C76   O4    A    
C1    C20   S    
C53   C57   A    
Cr12  O20   S    
C2    C19   S    
C86   O14   A    
C81   O5    A    
C13   H29   S    
Cr8   O32   S    
C36   C39   A    
C78   O46   A    
Cr7   O7    S    
C77   O45   A    
C32   C76   S    
C39   C43   A    
C51   C71   A    
C47   O35   A    
C48   O32   A    
C73   O1    A    
Cr2   O18   S    
C7    C95   S    
C66   C70   A    
C79   O47   A    
C33   C38   A    
C13   C17   A    
C89   C98   A    
C60   C64   A    
C88   O44   A    
C28   H40   S    
C18   C22   A    
C35   C40   A    
Cr2   O46   S    
C6    H22   S    
C35   F7    S    
Cr1   O45   S    
C36   F8    S    
C33   F5    S    
C8    H18   S    
Cr10  O10   S    
C45   O29   A    
Cr12  O16   S    
C23   H35   S    
C65   C69   A    
Cr8   O20   S    
C100  F4    S    
Cr9   O17   S    
C79   O51   A    
C61   C65   A    
C37   C41   A    
Cr3   O47   S    
C50   C70   A    
C7    H17   S    
C49   C53   A    
Cr1   O21   S    
C51   H3    S    
Cr1   O1    S    
C66   H14   S    
C40   C44   A    
C56   C60   A    
C84   O12   A    
C46   O30   A    
C91   C95   A    
C22   C26   A    
Cr11  O39   S    
C81   O9    A    
C85   O41   A    
Cr5   O5    S    
Cr5   O17   S    
C2    O22   A    
Cr5   O25   S    
C80   O48   A    
C3    O27   A    
C20   C24   A    
C21   H33   S    
C52   C56   A    
C92   C99   A    
C10   C14   A    
Cr11  O15   S    
C75   O39   A    
