data_mof_unit_19727.cif
_audit_creation_date              2013-03-05T15:52:31-0500
_audit_creation_method            fapswitch 2.2
_symmetry_space_group_name_H-M    P1
_symmetry_Int_Tables_number       1
_space_group_crystal_system       triclinic
_cell_length_a                    11.249182
_cell_length_b                    11.228158
_cell_length_c                    18.728411
_cell_angle_alpha                 90.605087
_cell_angle_beta                  90.81045
_cell_angle_gamma                 58.924122
_cell_volume                      2025.83136197

loop_
_atom_site_label
_atom_site_type_symbol
_atom_site_description
_atom_site_fract_x
_atom_site_fract_y
_atom_site_fract_z
_atom_type_partial_charge
O1    O     O_R   0.748670 0.497520 0.427970 -0.475317
O2    O     O_R   0.476470 0.723930 0.429450 -0.434847
C1    C     C_R   0.355085 0.776311 0.399818 0.545991
O3    O     O_R   0.264730 0.744140 0.416740 -0.555073
O4    O     O_R   0.309440 0.472410 0.418220 -0.498681
C2    C     C_R   0.384038 0.353080 0.388085 0.545139
O5    O     O_R   0.501630 0.260530 0.414310 -0.504612
O6    O     O_R   0.727920 0.305730 0.428950 -0.503057
C3    C     C_R   0.778382 0.377666 0.404204 0.540401
O7    O     O_R   0.738670 0.496020 0.588600 -0.506705
O8    O     O_R   0.467190 0.722540 0.578350 -0.524850
C4    C     C_R   0.347617 0.763128 0.605375 0.543726
O9    O     O_R   0.254720 0.742640 0.577370 -0.435567
O10   O     O_R   0.300170 0.471020 0.567120 -0.497977
C5    C     C_R   0.370893 0.351654 0.595860 0.545550
O11   O     O_R   0.491630 0.259030 0.574940 -0.446709
O12   O     O_R   0.718640 0.304340 0.577850 -0.418517
C6    C     C_R   0.705175 0.410281 0.615933 0.560726
Cr1   Cr    Cr6+3 0.601740 0.606840 0.505840 1.109696
Cr2   Cr    Cr6+3 0.291500 0.601560 0.495070 1.082362
Cr3   Cr    Cr6+3 0.606780 0.291630 0.499130 1.131918
O13   O     O_3   0.500010 0.500010 0.500020 -0.334538
C7    C     C_R   0.899415 0.899904 0.133457 -0.076798
C8    C     C_R   0.873981 0.982797 0.193398 -0.106663
C9    C     C_R   0.738610 0.072026 0.216707 -0.150613
C10   C     C_R   0.622089 0.089186 0.178356 0.000828
H1    H     H_    0.540062 0.129197 0.310617 0.195369
C11   C     C_R   0.367572 0.311854 0.163332 0.016898
C12   C     C_R   0.457858 0.209859 0.278867 -0.126055
C13   C     C_R   0.475979 0.199527 0.204815 -0.040875
C14   C     C_R   0.148050 0.682681 0.314527 -0.025502
C15   C     C_R   0.033640 0.805648 0.341467 -0.090169
C16   C     C_R   0.653445 0.991314 0.122240 -0.042831
C17   C     C_R   0.788868 0.902058 0.098654 -0.079249
C18   C     C_R   0.265232 0.431502 0.196290 -0.155425
C19   C     C_R   0.254202 0.442312 0.269540 -0.054488
C20   C     C_R   0.901962 0.828040 0.333468 -0.080279
C21   C     C_R   0.886632 0.732088 0.294449 -0.040728
C22   C     C_R   0.000139 0.602006 0.279031 -0.095753
C23   C     C_R   0.133635 0.571793 0.295507 0.018815
C24   C     C_R   0.354543 0.332255 0.312854 0.003235
H2    H     H_    0.808274 0.829850 0.055313 0.153468
H3    H     H_    0.041904 0.888014 0.365206 0.136109
H4    H     H_    0.004793 0.828308 0.116720 0.140585
H5    H     H_    0.959371 0.972719 0.224519 0.116438
H6    H     H_    0.726424 0.125625 0.266350 0.105048
H7    H     H_    0.248402 0.670178 0.306846 0.131358
H8    H     H_    0.578388 0.969901 0.100196 0.198616
H9    H     H_    0.186671 0.516494 0.164084 0.146717
H10   H     H_    0.812474 0.926297 0.349121 0.150955
H11   H     H_    0.789516 0.764209 0.271098 0.169363
H12   H     H_    0.986102 0.532254 0.246605 0.176352
C25   C     C_R   0.924449 0.311084 0.191527 0.079524
C26   C     C_R   0.805934 0.310399 0.209591 0.059304
C27   C     C_R   0.764308 0.327895 0.278998 -0.076399
C28   C     C_R   0.970689 0.321359 0.318861 -0.144064
C29   C     C_R   0.013421 0.304789 0.247157 -0.195242
C30   C     C_3   0.660373 0.384606 0.181317 0.292170
C31   C     C_3   0.614812 0.409474 0.258923 -0.226671
C32   C     C_R   0.841078 0.338511 0.334570 0.014124
H13   H     H_    0.035869 0.324955 0.360893 0.147762
H14   H     H_    0.114013 0.289892 0.234912 0.113772
H15   H     H_    0.633527 0.316665 0.150865 0.138218
H16   H     H_    0.563709 0.517520 0.276748 0.141625
H17   H     H_    0.560667 0.357853 0.275470 0.097072
C33   C     C_R   0.302919 0.925839 0.187410 -0.002388
C34   C     C_R   0.428580 0.816725 0.211878 0.091677
C35   C     C_R   0.443417 0.772502 0.282270 -0.047688
C36   C     C_R   0.210104 0.952624 0.307029 -0.142670
C37   C     C_R   0.191972 0.986895 0.234775 -0.180416
C38   C     C_3   0.562667 0.811883 0.215592 0.061927
C39   C     C_3   0.583192 0.752980 0.290836 0.069564
C40   C     C_R   0.336293 0.840468 0.330663 0.057237
H18   H     H_    0.126183 0.012676 0.343533 0.121432
H19   H     H_    0.090879 0.059316 0.214916 0.114768
H20   H     H_    0.547160 0.916700 0.214755 0.095580
H21   H     H_    0.666254 0.642206 0.296658 0.160397
C41   C     C_R   0.325845 0.328553 0.817953 0.043813
C42   C     C_R   0.445648 0.232389 0.780049 -0.033052
C43   C     C_R   0.445394 0.235495 0.707728 -0.037897
C44   C     C_R   0.230532 0.452093 0.706214 -0.112280
C45   C     C_R   0.225674 0.448187 0.781191 0.317563
C46   C     C_3   0.547100 0.076173 0.776190 0.151280
C47   C     C_3   0.537580 0.083879 0.695605 0.265873
C48   C     C_R   0.338264 0.339269 0.668486 -0.069829
H22   H     H_    0.150681 0.541567 0.677910 0.233067
H23   H     H_    0.652707 0.041529 0.797180 0.221879
H24   H     H_    0.483400 0.035223 0.669505 0.163772
C49   C     C_R   0.800393 0.350857 0.839275 0.045081
C50   C     C_R   0.796298 0.458834 0.800303 -0.053410
C51   C     C_R   0.766148 0.474718 0.729422 -0.040469
C52   C     C_R   0.709342 0.297323 0.733320 -0.101837
C53   C     C_R   0.743389 0.278199 0.807089 0.311923
C54   C     C_3   0.902310 0.500236 0.791520 -0.182209
C55   C     C_3   0.866777 0.519001 0.712935 -0.217995
C56   C     C_R   0.730519 0.389947 0.692800 -0.003691
H25   H     H_    0.676074 0.234658 0.706983 0.218081
H26   H     H_    0.008889 0.411864 0.802384 0.186585
H27   H     H_    0.872486 0.599340 0.819701 0.226900
H28   H     H_    0.814474 0.629350 0.695684 0.188950
H29   H     H_    0.953621 0.443088 0.678742 0.180318
C57   C     C_R   0.296615 0.834616 0.828363 0.063222
C58   C     C_R   0.184748 0.906818 0.781026 -0.037363
C59   C     C_R   0.201513 0.887214 0.708962 0.073433
C60   C     C_R   0.446428 0.746423 0.725414 -0.126628
C61   C     C_R   0.429589 0.752765 0.799715 -0.066734
C62   C     C_3   0.042145 0.927843 0.777189 -0.177424
C63   C     C_3   0.062708 0.904743 0.696790 0.545288
C64   C     C_R   0.330700 0.806840 0.679074 0.019943
H30   H     H_    0.548663 0.691295 0.703662 0.143199
H31   H     H_    0.519756 0.700956 0.834456 0.165547
H32   H     H_    0.963470 0.034988 0.792334 0.172431
H33   H     H_    0.035179 0.844997 0.805352 0.210298
O14   O     O_R   0.186620 0.923750 0.087000 -0.515176
O15   O     O_R   0.957350 0.194160 0.084660 -0.522819
C65   C     C_R   0.967287 0.292315 0.117985 0.537841
O16   O     O_R   0.935120 0.407280 0.085350 -0.403755
O17   O     O_R   0.203800 0.365060 0.067090 -0.527866
C66   C     C_R   0.330953 0.290864 0.091829 0.539492
O18   O     O_R   0.417470 0.174910 0.067830 -0.553736
O19   O     O_R   0.375160 0.946380 0.070880 -0.476314
C67   C     C_R   0.274147 0.958179 0.111801 0.538097
O20   O     O_R   0.160500 0.919670 0.926690 -0.515893
O21   O     O_R   0.933140 0.190380 0.936050 -0.445312
C68   C     C_R   0.879250 0.312709 0.906398 0.594876
O22   O     O_R   0.909010 0.403210 0.925030 -0.515137
O23   O     O_R   0.179590 0.361290 0.918480 -0.468390
C69   C     C_R   0.298301 0.289913 0.887040 0.600555
O24   O     O_R   0.391360 0.170840 0.907510 -0.454275
O25   O     O_R   0.350950 0.942600 0.922260 -0.406832
C70   C     C_R   0.276585 0.890056 0.900122 0.588895
Cr4   Cr    Cr6+3 0.062440 0.063060 0.008240 1.058264
Cr5   Cr    Cr6+3 0.062950 0.375000 0.998920 1.085319
Cr6   Cr    Cr6+3 0.374550 0.061770 0.992470 1.107036
O26   O     O_3   0.166650 0.166610 0.999880 -0.343214
F1    F     F_    0.623596 0.504791 0.145259 -0.552798
N1    N     N_R   0.658892 0.716276 0.161770 0.098318
O27   O     O_R   0.781427 0.615722 0.179688 -0.361080
O28   O     O_R   0.623043 0.730147 0.094687 -0.262082
N2    N     N_R   0.588157 0.842124 0.347698 0.037559
O29   O     O_R   0.678916 0.785251 0.399200 -0.306860
O30   O     O_R   0.486597 0.969627 0.355920 -0.374659
F2    F     F_    0.122238 0.557633 0.816846 -0.644290
N3    N     N_R   0.492613 0.994216 0.802598 0.054987
O31   O     O_R   0.568945 0.891486 0.845482 -0.350520
O32   O     O_R   0.364272 0.031986 0.788689 -0.394579
F3    F     F_    0.662809 0.046803 0.664613 -0.591673
F4    F     F_    0.731713 0.183027 0.845148 -0.660945
F5    F     F_    0.065856 0.785645 0.674105 -0.601717
N4    N     N_R   0.973239 0.026053 0.652751 0.106477
O33   O     O_R   0.900788 0.014949 0.601228 -0.195754
O34   O     O_R   0.989040 0.133041 0.654039 -0.394068

loop_
_geom_bond_atom_site_label_1
_geom_bond_atom_site_label_2
_geom_bond_distance
_ccdc_geom_bond_type
C46   H23   1.109112 S    
C60   H30   1.069938 S    
O11   Cr3   2.092897 S    
C27   C31   1.485816 S    
O20   Cr4   2.074578 S    
H1    C12   1.077122 S    
C6    C56   1.460822 S    
C62   H32   1.100807 S    
C18   C19   1.377629 A    
C17   H2    1.082701 S    
C43   C47   1.483578 S    
O16   Cr5   2.082005 S    
C69   O24   1.258947 A    
C44   C45   1.408055 A    
C29   H14   1.082663 S    
C38   N1    1.465807 S    
O4    Cr2   1.969038 S    
C49   C68   1.462283 S    
C25   C26   1.383951 A    
C28   C29   1.410573 A    
N1    O28   1.300112 A    
O8    Cr1   1.952876 S    
C31   H16   1.091137 S    
C43   C48   1.376060 A    
O4    C2    1.286328 A    
C8    H5    1.071712 S    
C20   C21   1.376985 A    
N2    O30   1.300131 A    
C59   C64   1.377721 A    
C55   H28   1.111857 S    
C54   H26   1.110240 S    
O15   C65   1.314280 A    
C52   C56   1.411303 A    
C65   O16   1.303448 A    
O21   Cr4   1.955969 S    
C53   F4    1.353091 S    
O17   C66   1.309161 A    
C62   H33   1.111941 S    
C39   H21   1.110032 S    
C57   C58   1.399006 A    
C51   C56   1.381767 A    
C46   C47   1.511744 S    
O22   Cr5   2.095076 S    
O6    C3    1.295410 A    
C2    C24   1.486555 S    
C18   H9    1.087177 S    
C62   C63   1.525688 S    
C33   C67   1.455457 S    
C36   C40   1.394771 A    
O19   Cr6   1.966182 S    
C34   C38   1.481698 S    
C44   H22   1.078567 S    
C25   C65   1.442735 S    
O15   Cr4   1.954395 S    
O20   C70   1.276734 A    
C22   H12   1.059259 S    
N1    O27   1.294472 A    
C41   C69   1.456150 S    
C14   H7    1.074857 S    
C27   C32   1.386171 A    
C19   C24   1.419325 A    
O25   Cr6   1.977268 S    
C4    C64   1.441852 S    
C9    C10   1.409492 A    
C52   H25   1.066640 S    
C50   C54   1.498264 S    
C61   H31   1.082009 S    
C21   C22   1.386834 A    
O1    Cr1   2.073977 S    
C5    O11   1.275944 A    
C34   C35   1.390854 A    
O10   Cr2   1.967021 S    
C19   C23   1.468942 S    
Cr1   O13   2.042324 S    
O1    C3    1.283765 A    
N2    O29   1.300999 A    
C11   C18   1.384593 A    
N3    O32   1.300654 A    
C22   C23   1.388756 A    
C25   C29   1.411117 A    
C41   C42   1.412336 A    
N3    O31   1.300169 A    
C21   H11   1.047810 S    
C30   F1    1.372309 S    
C35   C40   1.386681 A    
O5    Cr3   2.099068 S    
O12   Cr3   1.976306 S    
C7    H4    1.082187 S    
O24   Cr6   2.087125 S    
C47   H24   1.112892 S    
C12   C13   1.399504 A    
C41   C45   1.408244 A    
C10   C16   1.422153 A    
C14   C15   1.409430 A    
O7    Cr1   2.077955 S    
C35   C39   1.477792 S    
C7    C17   1.385004 A    
O12   C6    1.321267 A    
C36   H18   1.079193 S    
C15   C20   1.374721 A    
C8    C9    1.395645 A    
O19   C67   1.327848 A    
Cr6   O26   2.009517 S    
O17   Cr5   1.978928 S    
C63   N4    1.460657 S    
Cr2   O13   2.011342 S    
C10   C13   1.545918 S    
C54   C55   1.507729 S    
C68   O22   1.267602 A    
N4    O34   1.301900 A    
C42   C43   1.355201 A    
O23   C69   1.296039 A    
C38   H20   1.097334 S    
C59   C63   1.484054 S    
C26   C30   1.494050 S    
C47   F3    1.381050 S    
C30   H15   1.105518 S    
C60   C64   1.406055 A    
C26   C27   1.365434 A    
O9    Cr2   2.084726 S    
C12   C24   1.413549 A    
O2    Cr1   1.957334 S    
C28   H13   1.082812 S    
O14   Cr4   2.075710 S    
C57   C70   1.445872 S    
O23   Cr5   1.964026 S    
C45   F2    1.355898 S    
C11   C66   1.447918 S    
O6    Cr3   1.971652 S    
C66   O18   1.239444 A    
C2    O5    1.282281 A    
O3    Cr2   2.084489 S    
C60   C61   1.403130 A    
C33   C37   1.396321 A    
N4    O33   1.300383 A    
C5    C48   1.440462 S    
C3    C32   1.444056 S    
C11   C13   1.444828 A    
O25   C70   1.309308 A    
C30   C31   1.522472 S    
C38   C39   1.526239 S    
C33   C34   1.383785 A    
C31   H17   1.084692 S    
C42   C46   1.522297 S    
C20   H10   1.082340 S    
C50   C51   1.356038 A    
C46   N3    1.437905 S    
C54   H27   1.112000 S    
O7    C6    1.311912 A    
Cr4   O26   2.041243 S    
C52   C53   1.417010 A    
C15   H3    1.067941 S    
C16   C17   1.397795 A    
O2    C1    1.294149 A    
O18   Cr6   2.101170 S    
C49   C53   1.399592 A    
C36   C37   1.393916 A    
C1    C40   1.447685 S    
C7    C8    1.385798 A    
C51   C55   1.489353 S    
C63   F5    1.381853 S    
O14   C67   1.307992 A    
C55   H29   1.112449 S    
C39   N2    1.473961 S    
C28   C32   1.403754 A    
C4    O9    1.284594 A    
C37   H19   1.064223 S    
C57   C61   1.401115 A    
C58   C59   1.365149 A    
Cr5   O26   2.004611 S    
C16   H8    1.067125 S    
O10   C5    1.273312 A    
C58   C62   1.496785 S    
C14   C23   1.378695 A    
C49   C50   1.401729 A    
Cr3   O13   2.003954 S    
C9    H6    1.073325 S    
C44   C48   1.411795 A    
C1    O3    1.286309 A    
O8    C4    1.286358 A    
O21   C68   1.307462 A    
