data_mof_unit_46492.cif
_audit_creation_date              2012-12-11T15:37:33-0500
_audit_creation_method            fapswitch 2.2
_symmetry_space_group_name_H-M    P1
_symmetry_Int_Tables_number       1
_space_group_crystal_system       triclinic
_cell_length_a                    17.397048
_cell_length_b                    24.287974
_cell_length_c                    14.85948
_cell_angle_alpha                 89.995616
_cell_angle_beta                  126.021018
_cell_angle_gamma                 90.006104
_cell_volume                      5078.2293601

loop_
_atom_site_label
_atom_site_type_symbol
_atom_type_description
_atom_site_fract_x
_atom_site_fract_y
_atom_site_fract_z
_atom_type_partial_charge
C1    C     C_R   0.809137 0.625262 0.907230 -0.129181
C2    C     C_3   0.591139 0.499684 0.561220 0.064547
C3    C     C_3   0.070575 0.000008 0.474056 0.631196
C4    C     C_3   0.921307 0.000005 0.386431 0.052057
C5    C     C_3   0.081339 0.999997 0.583719 0.055314
C6    C     C_R   0.658101 0.313859 0.899643 -0.158117
C7    C     C_R   0.340277 0.689530 0.102958 -0.161154
C8    C     C_R   0.340142 0.310375 0.102925 -0.166393
C9    C     C_R   0.658209 0.686210 0.899690 -0.164020
C10   C     C_R   0.292324 0.731756 0.901651 -0.168407
C11   C     C_R   0.712535 0.267073 0.100181 -0.167325
C12   C     C_R   0.712610 0.732963 0.100228 -0.164897
C13   C     C_R   0.189890 0.373071 0.094041 -0.132365
C14   C     C_R   0.292266 0.268215 0.901619 -0.166152
C15   C     C_R   0.241355 0.688028 0.901517 -0.165907
C16   C     C_R   0.760163 0.312885 0.100993 -0.166961
C17   C     C_R   0.760258 0.687169 0.101038 -0.165040
C18   C     C_R   0.241266 0.311916 0.901486 -0.164766
C19   C     C_R   0.610990 0.267654 0.898719 -0.165736
C20   C     C_R   0.390958 0.733358 0.103127 -0.165591
C21   C     C_R   0.390863 0.266584 0.103093 -0.170836
C22   C     C_R   0.611073 0.732391 0.898767 -0.169860
C23   C     C_R   0.258358 0.671191 0.001864 0.142537
C24   C     C_R   0.189928 0.626894 0.094046 -0.128547
C25   C     C_R   0.739962 0.332535 0.000686 0.140184
C26   C     C_R   0.740057 0.667529 0.000727 0.140491
C27   C     C_R   0.258251 0.328728 0.001834 0.143026
C28   C     C_R   0.644421 0.240916 0.998960 0.137686
C29   C     C_R   0.360073 0.758397 0.002209 0.137792
C30   C     C_R   0.360025 0.241576 0.002177 0.139969
C31   C     C_R   0.644480 0.759112 0.999004 0.139576
C32   C     C_R   0.083478 0.450105 0.606619 -0.174363
C33   C     C_R   0.109963 0.549843 0.535541 -0.170109
C34   C     C_R   0.109973 0.450165 0.535563 -0.155563
C35   C     C_R   0.809106 0.374768 0.907220 -0.125415
C36   C     C_R   0.083467 0.549903 0.606595 -0.167738
C37   C     C_R   0.390704 0.950156 0.461228 -0.160239
C38   C     C_R   0.391887 0.049807 0.368926 -0.173838
C39   C     C_R   0.391894 0.950181 0.368947 -0.173860
C40   C     C_R   0.390701 0.049835 0.461210 -0.160131
C41   C     C_R   0.109658 0.500003 0.488052 0.143555
C42   C     C_R   0.059702 0.500003 0.631886 0.149529
C43   C     C_R   0.404041 0.999994 0.331082 0.141480
C44   C     C_R   0.400490 0.999997 0.514676 0.164351
C45   C     C_R   0.903850 0.376281 0.093946 -0.124431
C46   C     C_R   0.350737 0.152692 0.907953 -0.137487
C47   C     C_R   0.093462 0.629575 0.908021 -0.121499
C48   C     C_R   0.093414 0.370392 0.908009 -0.121431
C49   C     C_R   0.903887 0.623744 0.093961 -0.125286
C50   C     C_R   0.446024 0.848345 0.093274 -0.142839
C51   C     C_R   0.556872 0.150821 0.906268 -0.122977
C52   C     C_R   0.556881 0.849184 0.906280 -0.122004
C53   C     C_R   0.446024 0.151652 0.093263 -0.141797
C54   C     C_R   0.056484 0.545897 0.307788 -0.135871
C55   C     C_R   0.990741 0.453963 0.721403 -0.127817
C56   C     C_R   0.990733 0.546039 0.721390 -0.123288
C57   C     C_R   0.650427 0.847650 0.091901 -0.145206
C58   C     C_R   0.056489 0.454103 0.307795 -0.134928
C59   C     C_R   0.480329 0.046333 0.248389 -0.110422
C60   C     C_R   0.451170 0.953887 0.695267 -0.111717
C61   C     C_R   0.451169 0.046113 0.695261 -0.112269
C62   C     C_R   0.480325 0.953661 0.248390 -0.109571
C63   C     C_R   0.741342 0.454557 0.697564 -0.176018
C64   C     C_R   0.257850 0.545409 0.303238 -0.175704
C65   C     C_R   0.257939 0.454649 0.303293 -0.124445
C66   C     C_R   0.741247 0.545393 0.697534 -0.122690
C67   C     C_R   0.229933 0.953968 0.728598 -0.089359
C68   C     C_R   0.650416 0.152360 0.091885 -0.144527
C69   C     C_R   0.769490 0.045862 0.255238 -0.067850
C70   C     C_R   0.769488 0.954145 0.255234 -0.067312
C71   C     C_R   0.229935 0.046027 0.728601 -0.089034
C72   C     C_R   0.813007 0.637481 0.000969 0.042277
C73   C     C_R   0.184627 0.357912 0.001011 0.042803
C74   C     C_R   0.184696 0.642031 0.001026 0.040505
C75   C     C_R   0.812951 0.362564 0.000947 0.040004
C76   C     C_R   0.383993 0.184180 0.001323 0.052253
C77   C     C_R   0.619609 0.816655 0.998561 0.047748
C78   C     C_R   0.619588 0.183359 0.998536 0.047959
C79   C     C_R   0.350743 0.847301 0.907967 -0.136733
C80   C     C_R   0.384002 0.815809 0.001344 0.052375
C81   C     C_R   0.077715 0.500001 0.373288 0.057093
C82   C     C_R   0.011878 0.500002 0.685272 0.043558
C83   C     C_R   0.448922 0.999995 0.273265 0.034940
C84   C     C_R   0.434812 1.000000 0.631131 0.058835
C85   C     C_R   0.691907 0.499938 0.637018 0.119396
C86   C     C_R   0.306607 0.500070 0.364563 0.117017
C87   C     C_R   0.173119 0.999996 0.688154 0.075387
C88   C     C_R   0.826275 0.000006 0.286389 0.054348
C89   C     C_3   0.529222 0.452820 0.481545 -0.346553
C90   C     C_3   0.407280 0.500327 0.441355 0.066277
C91   C     C_3   0.469191 0.547192 0.521045 -0.347166
C92   C     C_3   0.465520 0.497324 0.393354 -0.298023
C93   C     C_3   0.532979 0.502688 0.609308 -0.299496
C94   C     C_3   0.006906 0.954064 0.540992 -0.338337
C95   C     C_3   0.995901 0.045981 0.429269 -0.335543
C96   C     C_3   0.995891 0.954032 0.429248 -0.336222
C97   C     C_3   0.006915 0.045927 0.541013 -0.339027
C98   C     C_3   0.470066 0.456918 0.527374 0.598793
C99   C     C_3   0.528341 0.543090 0.475210 0.598746
C100  C     C_3   0.932754 0.999994 0.496741 0.633748
H1    H     H_    0.750796 0.631521 0.821368 0.093814
H2    H     H_    0.062739 0.642384 0.824266 0.084753
H3    H     H_    0.062666 0.357577 0.824252 0.083554
H4    H     H_    0.932057 0.628555 0.180377 0.093974
H5    H     H_    0.494494 0.834653 0.178369 0.087855
H6    H     H_    0.510570 0.164073 0.820604 0.084209
H7    H     H_    0.510585 0.835930 0.820617 0.082800
H8    H     H_    0.494495 0.165345 0.178356 0.086154
H9    H     H_    0.075383 0.588058 0.335396 0.083636
H10   H     H_    0.983727 0.412406 0.692642 0.082642
H11   H     H_    0.983705 0.587595 0.692608 0.085257
H12   H     H_    0.248381 0.367926 0.180194 0.093812
H13   H     H_    0.075394 0.411944 0.335415 0.088772
H14   H     H_    0.469666 0.088952 0.258501 0.091917
H15   H     H_    0.434174 0.911618 0.667802 0.084672
H16   H     H_    0.434171 0.088380 0.667786 0.085656
H17   H     H_    0.469656 0.911040 0.258502 0.092081
H18   H     H_    0.724575 0.412071 0.671260 0.096766
H19   H     H_    0.274187 0.587883 0.329756 0.094619
H20   H     H_    0.274409 0.412183 0.329769 0.132384
H21   H     H_    0.724356 0.587873 0.671297 0.134586
H22   H     H_    0.209305 0.911616 0.703258 0.095780
H23   H     H_    0.248437 0.632027 0.180197 0.089020
H24   H     H_    0.791882 0.088290 0.276471 0.094556
H25   H     H_    0.791878 0.911718 0.276467 0.094820
H26   H     H_    0.209310 0.088378 0.703263 0.096113
H27   H     H_    0.555821 0.414564 0.467683 0.146653
H28   H     H_    0.442536 0.585437 0.534866 0.145753
H29   H     H_    0.435093 0.496223 0.303454 0.154874
H30   H     H_    0.563510 0.503786 0.699234 0.154158
H31   H     H_    0.011980 0.917810 0.589726 0.146174
H32   H     H_    0.990789 0.082248 0.380552 0.146150
H33   H     H_    0.990773 0.917775 0.380514 0.145863
H34   H     H_    0.750747 0.368527 0.821356 0.089012
H35   H     H_    0.011996 0.082171 0.589764 0.145806
H36   H     H_    0.635773 0.330828 0.820473 0.103210
H37   H     H_    0.360239 0.674437 0.182408 0.103642
H38   H     H_    0.360065 0.325430 0.182373 0.111237
H39   H     H_    0.635898 0.669261 0.820521 0.111195
H40   H     H_    0.271298 0.747592 0.822230 0.105679
H41   H     H_    0.736294 0.249763 0.179560 0.106636
H42   H     H_    0.736359 0.750266 0.179606 0.108024
H43   H     H_    0.271268 0.252396 0.822200 0.107075
H44   H     H_    0.183377 0.671431 0.822290 0.105127
H45   H     H_    0.311191 0.166445 0.822658 0.085031
H46   H     H_    0.818782 0.328764 0.180542 0.108554
H47   H     H_    0.818879 0.671290 0.180586 0.109225
H48   H     H_    0.183295 0.328518 0.822263 0.105435
H49   H     H_    0.554637 0.250546 0.819165 0.109153
H50   H     H_    0.447167 0.750665 0.182498 0.109635
H51   H     H_    0.447064 0.249275 0.182464 0.107013
H52   H     H_    0.554720 0.749497 0.819213 0.106572
H53   H     H_    0.074998 0.410831 0.634019 0.104254
H54   H     H_    0.117826 0.589096 0.507519 0.105472
H55   H     H_    0.117844 0.410913 0.507557 0.109865
H56   H     H_    0.688900 0.833593 0.176883 0.088622
H57   H     H_    0.074977 0.589176 0.633974 0.103510
H58   H     H_    0.391536 0.910835 0.495752 0.107243
H59   H     H_    0.393663 0.089083 0.336041 0.110475
H60   H     H_    0.393677 0.910904 0.336079 0.110071
H61   H     H_    0.391532 0.089157 0.495723 0.108368
H62   H     H_    0.492451 0.391614 0.611804 0.300816
H63   H     H_    0.505816 0.608429 0.390808 0.301316
H64   H     H_    0.885701 0.999981 0.585395 0.304126
H65   H     H_    0.119509 0.000021 0.387404 0.305063
H66   H     H_    0.688885 0.166419 0.176864 0.087354
H67   H     H_    0.311205 0.833545 0.822675 0.083912
H68   H     H_    0.932004 0.371477 0.180360 0.093948
N1    N     N_R   0.892620 0.603790 0.941800 -0.042619
N2    N     N_R   0.047790 0.602400 0.942090 -0.040524
N3    N     N_R   0.047790 0.397600 0.942090 -0.040280
N4    N     N_R   0.952210 0.602400 0.057910 -0.041719
N5    N     N_R   0.452210 0.897600 0.057910 -0.039198
N6    N     N_R   0.547790 0.102400 0.942090 -0.039627
N7    N     N_R   0.547790 0.897600 0.942090 -0.039702
N8    N     N_R   0.452210 0.102400 0.057910 -0.039210
N9    N     N_R   0.026300 0.529110 0.206760 -0.037022
N10   N     N_R   0.973700 0.470890 0.793240 -0.036239
N11   N     N_R   0.973700 0.529110 0.793240 -0.036930
N12   N     N_R   0.107380 0.396210 0.058200 -0.042106
N13   N     N_R   0.026300 0.470890 0.206760 -0.038267
N14   N     N_R   0.526300 0.029110 0.206760 -0.038635
N15   N     N_R   0.473700 0.970890 0.793240 -0.043042
N16   N     N_R   0.473700 0.029110 0.793240 -0.043008
N17   N     N_R   0.526300 0.970890 0.206760 -0.038539
N18   N     N_R   0.818530 0.472270 0.792960 -0.038141
N19   N     N_R   0.181470 0.527730 0.207040 -0.036103
N20   N     N_R   0.181470 0.472270 0.207040 -0.046422
N21   N     N_R   0.818530 0.527730 0.792960 -0.048563
N22   N     N_R   0.318530 0.972270 0.792960 -0.044252
N23   N     N_R   0.107380 0.603790 0.058200 -0.040781
N24   N     N_R   0.681470 0.027730 0.207040 -0.043043
N25   N     N_R   0.681470 0.972270 0.207040 -0.042951
N26   N     N_R   0.318530 0.027730 0.792960 -0.044193
N27   N     N_R   0.892620 0.396210 0.941800 -0.041314
N28   N     N_R   0.392620 0.103790 0.941800 -0.040676
N29   N     N_R   0.607380 0.896210 0.058200 -0.042382
N30   N     N_R   0.607380 0.103790 0.058200 -0.042404
N31   N     N_R   0.392620 0.896210 0.941800 -0.040735
N32   N     N_R   0.952210 0.397600 0.057910 -0.041945
Ni1   Ni    Ni4+2 0.934150 0.565840 0.869060 0.220789
Ni2   Ni    Ni4+2 0.065850 0.434160 0.130940 0.215022
Ni3   Ni    Ni4+2 0.065850 0.565840 0.130940 0.211240
Ni4   Ni    Ni4+2 0.934150 0.434160 0.869060 0.215863
Ni5   Ni    Ni4+2 0.434150 0.065840 0.869060 0.211901
Ni6   Ni    Ni4+2 0.565850 0.934160 0.130940 0.220314
Ni7   Ni    Ni4+2 0.565850 0.065840 0.130940 0.219268
Ni8   Ni    Ni4+2 0.434150 0.934160 0.869060 0.211103
O1    O     O_3   0.435341 0.412313 0.552965 -0.774092
O2    O     O_3   0.562965 0.587712 0.449526 -0.772195
O3    O     O_3   0.856463 0.999987 0.504584 -0.759835
O4    O     O_3   0.147789 0.000015 0.467956 -0.764265

loop_
_geom_bond_atom_site_label_1
_geom_bond_atom_site_label_2
_ccdc_geom_bond_type
C62   C83   A    
C59   H14   S    
C59   N14   A    
N10   Ni4   S    
C39   H60   S    
N5    N31   A    
C43   C83   S    
C14   C18   A    
C36   C42   A    
N13   Ni2   S    
C42   C82   S    
C70   C88   A    
C97   C100  S    
C66   C85   A    
C46   C76   A    
C5    C94   S    
C67   N22   A    
C65   C86   A    
C34   H55   S    
C45   N32   A    
C6    C19   A    
C35   C75   A    
C64   H19   S    
C10   H40   S    
C58   N13   A    
C17   C26   A    
N8    Ni7   S    
C16   H46   S    
C17   H47   S    
C59   C83   A    
C38   H59   S    
C13   H12   S    
C18   H48   S    
C10   C15   A    
C70   N25   A    
C7    C23   A    
C9    C22   A    
C46   H45   S    
C91   C93   S    
H64   O3    S    
C48   N3    A    
C66   N21   A    
N19   Ni3   S    
N28   Ni5   S    
C33   C36   A    
C26   C72   S    
C35   H34   S    
C2    C85   S    
C8    H38   S    
N14   Ni7   S    
N20   Ni2   S    
N3    Ni4   S    
N7    N29   A    
C62   H17   S    
C6    H36   S    
C9    H39   S    
C19   H49   S    
C4    C96   S    
C68   N30   A    
N11   Ni1   S    
C52   H7    S    
C12   H42   S    
N2    Ni1   S    
C49   C72   A    
C12   C17   A    
N6    Ni5   S    
N9    Ni3   S    
C71   H26   S    
N5    Ni6   S    
C28   C78   S    
C56   H11   S    
C35   N27   A    
C60   N15   A    
C15   C23   A    
C65   N20   A    
C47   H2    S    
C63   C85   A    
C55   C82   A    
N15   Ni8   S    
C79   H67   S    
N29   Ni6   S    
C34   C41   A    
N23   Ni3   S    
N7    Ni8   S    
C14   C30   A    
N17   Ni6   S    
C69   N24   A    
C64   C86   A    
C57   H56   S    
H63   O2    S    
C9    C26   A    
C31   C77   S    
C20   C29   A    
C68   C78   A    
C98   O1    S    
C22   H52   S    
N6    N30   A    
C1    C72   A    
C79   N31   A    
C91   H28   S    
N10   N11   A    
C86   C90   S    
C58   C81   A    
C7    H37   S    
C63   H18   S    
C33   H54   S    
C71   N26   A    
C39   C43   A    
N27   Ni4   S    
C69   H24   S    
N21   Ni1   S    
C48   H3    S    
N2    N23   A    
C24   H23   S    
N16   Ni5   S    
C32   H53   S    
C54   H9    S    
C25   C75   S    
N14   N17   A    
C32   C34   A    
C37   H58   S    
C2    C89   S    
N15   N16   A    
C57   C77   A    
C58   H13   S    
C4    C95   S    
C30   C76   S    
C11   C16   A    
C90   C92   S    
C50   H5    S    
C94   C100  S    
C63   N18   A    
C41   C81   S    
C22   C31   A    
C61   H16   S    
C8    C21   A    
C5    C87   S    
C66   H21   S    
N18   Ni4   S    
N8    N28   A    
C89   C92   S    
C94   C96   S    
C19   C28   A    
C11   H41   S    
C52   N7    A    
C3    C96   S    
C69   C88   A    
C36   H57   S    
C62   N17   A    
C71   C87   A    
C70   H25   S    
N22   Ni8   S    
C5    C97   S    
C2    C99   S    
C7    C20   A    
C51   N6    A    
C4    C100  S    
C12   C31   A    
C95   H32   S    
C56   N11   A    
N4    Ni3   S    
C38   C43   A    
N3    N12   A    
C53   C76   A    
C97   H35   S    
C23   C74   S    
C93   H30   S    
C67   H22   S    
C1    H1    S    
C47   N2    A    
C15   H44   S    
N27   N32   A    
C89   H27   S    
C16   C25   A    
N26   Ni5   S    
C14   H43   S    
C61   N16   A    
N25   Ni6   S    
C57   N29   A    
N30   Ni7   S    
C48   C73   A    
C2    C93   S    
C18   C27   A    
C3    O4    S    
C47   C74   A    
C13   C73   A    
C55   N10   A    
C3    C5    S    
C61   C84   A    
C50   C80   A    
C49   N4    A    
C3    C95   S    
C95   C97   S    
H65   O4    S    
C56   C82   A    
C96   H33   S    
C4    C88   S    
H62   O1    S    
C13   N12   A    
C21   C30   A    
C100  O3    S    
C67   C87   A    
C94   H31   S    
C54   N9    A    
C44   C84   S    
C89   C98   S    
C45   C75   A    
C49   H4    S    
C33   C41   A    
N24   N25   A    
N18   N21   A    
C92   H29   S    
C51   C78   A    
C40   H61   S    
C37   C39   A    
C38   C40   A    
C60   C84   A    
C53   H8    S    
C24   C74   A    
C90   C91   S    
C29   C80   S    
C11   C28   A    
C37   C44   A    
C51   H6    S    
N9    N13   A    
C1    N1    A    
N31   Ni8   S    
N24   Ni7   S    
C65   H20   S    
C20   H50   S    
C24   N23   A    
C21   H51   S    
C45   H68   S    
C64   N19   A    
N22   N26   A    
N1    Ni1   S    
C79   C80   A    
C6    C25   A    
C55   H10   S    
C10   C29   A    
C40   C44   A    
C53   N8    A    
N32   Ni2   S    
N12   Ni2   S    
C46   N28   A    
C8    C27   A    
C32   C42   A    
C60   H15   S    
N19   N20   A    
N1    N4    A    
C91   C99   S    
C27   C73   S    
C93   C98   S    
C90   C98   S    
C54   C81   A    
C52   C77   A    
C92   C99   S    
C50   N5    A    
C99   O2    S    
C68   H66   S    
