data_mof_unit_33715.cif
_audit_creation_date              2012-12-11T15:53:44-0500
_audit_creation_method            fapswitch 2.2
_symmetry_space_group_name_H-M    P1
_symmetry_Int_Tables_number       1
_space_group_crystal_system       triclinic
_cell_length_a                    10.71137
_cell_length_b                    10.70009
_cell_length_c                    17.08533
_cell_angle_alpha                 80.092427
_cell_angle_beta                  99.862515
_cell_angle_gamma                 118.883725
_cell_volume                      1680.17962067

loop_
_atom_site_label
_atom_site_type_symbol
_atom_type_description
_atom_site_fract_x
_atom_site_fract_y
_atom_site_fract_z
_atom_type_partial_charge
C1    C     C_R   0.384514 0.283675 0.631854 0.562510
C2    C     C_R   0.459699 0.786464 0.708631 -0.034147
C3    C     C_R   0.456790 0.767942 0.790445 -0.146901
C4    C     C_3   0.118260 0.427869 0.783550 -0.135244
C5    C     C_3   0.122764 0.434598 0.694628 -0.264284
C6    C     C_R   0.344206 0.684295 0.660822 0.004469
C7    C     C_1   0.852694 0.669205 0.702625 -0.040951
C8    C     C_1   0.900204 0.704104 0.769198 -0.053847
C9    C     C_1   0.364611 0.233003 0.714247 -0.045010
C10   C     C_1   0.332534 0.186346 0.781275 -0.048688
C11   C     C_1   0.372798 0.635471 0.274763 -0.060786
C12   C     C_R   0.373421 0.654225 0.587817 0.545291
C13   C     C_1   0.346624 0.653501 0.203929 -0.069801
C14   C     C_R   0.848923 0.672872 0.163128 0.023766
C15   C     C_R   0.909796 0.607693 0.224218 0.016294
C16   C     C_R   0.900070 0.609054 0.303088 -0.006689
C17   C     C_R   0.761534 0.736579 0.262495 -0.156449
C18   C     C_R   0.774715 0.738796 0.182405 -0.170066
C19   C     C_3   0.063186 0.640904 0.241052 -0.236189
C20   C     C_3   0.053940 0.649441 0.326903 -0.277438
C21   C     C_R   0.825182 0.670887 0.323206 0.020760
C22   C     C_R   0.302257 0.116008 0.172575 -0.015720
C23   C     C_R   0.781640 0.620991 0.626266 0.552349
C24   C     C_R   0.183237 0.090314 0.208139 0.010005
C25   C     C_R   0.192108 0.103057 0.287129 -0.004706
C26   C     C_R   0.434963 0.134308 0.305154 -0.060312
C27   C     C_R   0.423590 0.120101 0.223127 -0.059408
C28   C     C_3   0.075536 0.143814 0.183906 -0.245084
C29   C     C_3   0.085365 0.160163 0.271314 -0.257007
C30   C     C_R   0.322535 0.142843 0.334718 -0.012758
C31   C     C_R   0.948566 0.725574 0.851764 0.555900
C32   C     C_R   0.314418 0.705670 0.898643 0.535112
C33   C     C_R   0.285901 0.118109 0.858192 0.538936
C34   C     C_R   0.350536 0.222665 0.401655 0.547629
C35   C     C_R   0.889037 0.691469 0.084372 0.550371
C36   C     C_R   0.317414 0.696437 0.122382 0.532994
C37   C     C_R   0.280906 0.097884 0.088529 0.542583
C38   C     C_R   0.403750 0.624854 0.359244 0.571808
C39   C     C_R   0.772479 0.624845 0.400178 0.544101
C40   C     C_R   0.332364 0.669709 0.825397 -0.010874
C41   C     C_R   0.210097 0.587376 0.776425 0.016378
C42   C     C_R   0.217948 0.591465 0.695947 -0.027474
Cr1   Cr    Cr6+3 0.608440 0.389080 0.519680 0.991879
Cr2   Cr    Cr6+3 0.288640 0.400090 0.490760 0.972107
Cr3   Cr    Cr6+3 0.602940 0.710800 0.489510 0.975366
Cr4   Cr    Cr6+3 0.052530 0.947560 0.964210 1.017531
Cr5   Cr    Cr6+3 0.059970 0.626800 0.992920 1.038531
Cr6   Cr    Cr6+3 0.373320 0.938440 0.995370 1.054722
H1    H     H_    0.075480 0.546745 0.233053 0.148599
H2    H     H_    0.068618 0.566059 0.369675 0.163345
H3    H     H_    0.117182 0.760202 0.345079 0.141683
H4    H     H_    0.969654 0.059078 0.161244 0.163831
H5    H     H_    0.117693 0.247935 0.145614 0.146042
H6    H     H_    0.131321 0.274576 0.281807 0.159036
H7    H     H_    0.984384 0.085901 0.298764 0.149574
H8    H     H_    0.549804 0.840409 0.826422 0.153721
H9    H     H_    0.172235 0.368841 0.821484 0.129023
H10   H     H_    0.176279 0.375386 0.681107 0.156490
H11   H     H_    0.020549 0.415922 0.657680 0.147437
H12   H     H_    0.697756 0.781689 0.276601 0.153742
H13   H     H_    0.728970 0.792346 0.136261 0.137221
H14   H     H_    0.136390 0.745664 0.210222 0.146714
O1    O     O_R   0.754020 0.497590 0.609930 -0.512044
O2    O     O_R   0.295080 0.533620 0.397890 -0.514688
O3    O     O_R   0.485280 0.746620 0.388440 -0.525753
O4    O     O_R   0.720550 0.696220 0.420010 -0.529244
O5    O     O_3   0.500010 0.499990 0.499980 -0.274531
O6    O     O_R   0.163320 0.092900 0.874450 -0.527273
O7    O     O_R   0.934650 0.822080 0.882840 -0.502557
O8    O     O_R   0.915520 0.604140 0.893670 -0.474817
O9    O     O_R   0.191760 0.638110 0.923230 -0.510292
O10   O     O_R   0.406180 0.826930 0.920660 -0.518224
O11   O     O_R   0.358620 0.062870 0.901950 -0.480502
O12   O     O_R   0.481420 0.271390 0.600630 -0.502808
O13   O     O_R   0.163910 0.085460 0.050210 -0.517637
O14   O     O_R   0.935200 0.815170 0.045770 -0.501445
O15   O     O_R   0.916120 0.596690 0.069430 -0.503531
O16   O     O_R   0.192310 0.631200 0.086170 -0.510705
O17   O     O_R   0.406770 0.819480 0.096420 -0.492511
O18   O     O_R   0.359170 0.055960 0.064880 -0.487218
O19   O     O_3   0.161940 0.837600 0.984160 -0.278081
O20   O     O_R   0.263810 0.254550 0.589590 -0.530357
O21   O     O_R   0.300820 0.531200 0.560890 -0.513713
O22   O     O_R   0.491480 0.744020 0.564270 -0.535442
O23   O     O_R   0.726290 0.693800 0.583010 -0.507552
O24   O     O_R   0.747830 0.500190 0.434090 -0.514942
O25   O     O_R   0.475680 0.273800 0.437630 -0.504237
O26   O     O_R   0.257620 0.257160 0.413750 -0.529380
C43   C     C_R   0.591129 0.908833 0.678731 0.058189
C44   C     C_R   0.724452 0.912217 0.703266 -0.064357
C45   C     C_R   0.848728 0.024775 0.673903 -0.099884
C46   C     C_R   0.840808 0.137166 0.622077 -0.136109
C47   C     C_R   0.710041 0.140189 0.602265 -0.104242
C48   C     C_R   0.584509 0.024551 0.628979 -0.072058
H15   H     H_    0.730468 0.826082 0.744216 0.119427
H16   H     H_    0.950591 0.024115 0.690585 0.127994
H17   H     H_    0.935198 0.219754 0.595487 0.111424
H18   H     H_    0.705043 0.228080 0.562359 0.164162
H19   H     H_    0.482462 0.024040 0.610478 0.129783
C49   C     C_R   0.568894 0.148849 0.355244 0.052498
C50   C     C_R   0.702448 0.257953 0.332886 -0.042979
C51   C     C_R   0.828814 0.252466 0.365186 -0.107974
C52   C     C_R   0.823511 0.140077 0.421733 -0.147354
C53   C     C_R   0.691979 0.034305 0.446549 -0.096052
C54   C     C_R   0.564856 0.039682 0.414751 -0.065109
H20   H     H_    0.706285 0.340455 0.285576 0.120632
H21   H     H_    0.930051 0.331709 0.344112 0.110543
H22   H     H_    0.921116 0.134645 0.446233 0.120451
H23   H     H_    0.689728 0.948956 0.491109 0.178592
H24   H     H_    0.463184 0.955207 0.433335 0.133243
C55   C     C_1   0.538645 0.113665 0.192116 0.241324
N1    N     N_1   0.630544 0.108711 0.167874 -0.288388
C56   C     C_1   0.973823 0.382783 0.804406 0.235950
N2    N     N_1   0.859654 0.346047 0.820486 -0.258240

loop_
_geom_bond_atom_site_label_1
_geom_bond_atom_site_label_2
_ccdc_geom_bond_type
C54   H24   S    
C16   C21   A    
C11   C38   S    
C11   C13   T    
C41   C42   A    
C14   C18   A    
C55   N1    T    
C5    C42   S    
Cr2   O21   S    
Cr4   O14   S    
Cr1   O1    S    
C7    C8    T    
C32   O10   A    
Cr2   O2    S    
C15   C19   S    
C26   C27   A    
C47   C48   A    
C5    H10   S    
C1    O12   A    
Cr6   O17   S    
C28   C29   S    
C20   H3    S    
Cr2   O20   S    
C6    C12   S    
C53   H23   S    
C4    C41   S    
C19   H14   S    
C15   C16   A    
C25   C30   A    
Cr6   O19   S    
C12   O22   A    
C43   C48   A    
C49   C50   A    
Cr4   O7    S    
C20   H2    S    
C45   H16   S    
C31   O8    A    
C19   C20   S    
C4    H9    S    
Cr3   O5    S    
C52   H22   S    
C9    C10   T    
Cr1   O12   S    
C23   O1    A    
C37   O13   A    
C27   C55   S    
C8    C31   S    
C2    C6    A    
Cr6   O10   S    
C53   C54   A    
C46   H17   S    
C32   O9    A    
C38   O2    A    
C25   C29   S    
C37   O18   A    
C35   O14   A    
C5    H11   S    
C50   C51   A    
C4    C56   S    
C44   H15   S    
C1    C9    S    
C24   C25   A    
C13   C36   S    
C45   C46   A    
C30   C34   S    
Cr5   O19   S    
C29   H7    S    
C1    O20   A    
C22   C37   S    
C35   O15   A    
C17   C21   A    
C12   O21   A    
Cr3   O4    S    
C2    C43   S    
Cr3   O23   S    
Cr5   O8    S    
Cr4   O6    S    
Cr4   O19   S    
C3    H8    S    
C19   H1    S    
C21   C39   S    
C38   O3    A    
C16   C20   S    
C17   C18   A    
C49   C54   A    
C51   H21   S    
C34   O26   A    
Cr5   O9    S    
C33   O11   A    
C40   C41   A    
C3    C40   A    
C26   C30   A    
C22   C27   A    
C23   O23   A    
C39   O4    A    
C22   C24   A    
Cr3   O22   S    
Cr5   O15   S    
C14   C35   S    
C56   N2    T    
C50   H20   S    
Cr1   O24   S    
Cr6   O11   S    
C24   C28   S    
C4    C5    S    
C36   O17   A    
C28   H5    S    
C18   H13   S    
C29   H6    S    
C39   O24   A    
Cr1   O25   S    
Cr6   O18   S    
C2    C3    A    
C36   O16   A    
Cr3   O3    S    
C28   H4    S    
C44   C45   A    
C48   H19   S    
C7    C23   S    
C46   C47   A    
C10   C33   S    
C34   O25   A    
C32   C40   S    
C51   C52   A    
C17   H12   S    
C31   O7    A    
Cr1   O5    S    
C6    C42   A    
C52   C53   A    
Cr4   O13   S    
C14   C15   A    
Cr2   O5    S    
Cr5   O16   S    
C43   C44   A    
Cr2   O26   S    
C47   H18   S    
C33   O6    A    
C26   C49   S    
