data_mof_unit_40205.cif
_audit_creation_date              2013-03-05T15:44:47-0500
_audit_creation_method            fapswitch 2.2
_symmetry_space_group_name_H-M    P1
_symmetry_Int_Tables_number       1
_space_group_crystal_system       triclinic
_cell_length_a                    12.915947
_cell_length_b                    13.021442
_cell_length_c                    15.297356
_cell_angle_alpha                 116.326683
_cell_angle_beta                  63.379249
_cell_angle_gamma                 97.100523
_cell_volume                      2052.40274307

loop_
_atom_site_label
_atom_site_type_symbol
_atom_site_description
_atom_site_fract_x
_atom_site_fract_y
_atom_site_fract_z
_atom_type_partial_charge
C1    C     C_R   0.998173 0.832520 0.055336 -0.077140
H1    H     H_    0.025023 0.894818 0.114440 0.133208
N1    N     N_R   0.037310 0.720000 0.995790 -0.045281
C2    C     C_R   0.677912 0.478114 0.219226 -0.102000
H2    H     H_    0.608757 0.449879 0.195179 0.101366
N2    N     N_R   0.790790 0.446160 0.152010 -0.042956
C3    C     C_R   0.757612 0.516399 0.889646 0.304479
N3    N     N_R   0.824890 0.517960 0.936420 -0.092610
C4    C     C_R   0.011524 0.699671 0.304278 -0.210715
H3    H     H_    0.989310 0.664253 0.361804 0.140285
N4    N     N_R   0.003210 0.648190 0.211380 -0.065803
C5    C     C_R   0.676986 0.419784 0.988317 -0.184034
H4    H     H_    0.631580 0.355664 0.014465 0.117318
N5    N     N_R   0.774330 0.457010 0.995840 -0.067794
C6    C     C_R   0.093931 0.800407 0.209687 0.319918
N6    N     N_R   0.053760 0.709140 0.151960 -0.097186
C7    C     C_R   0.780031 0.562759 0.314658 -0.111716
H5    H     H_    0.805445 0.612375 0.378721 0.099322
N7    N     N_R   0.853860 0.498840 0.211410 -0.041404
C8    C     C_R   0.898765 0.747966 0.958436 -0.068101
H6    H     H_    0.833577 0.732274 0.929312 0.145687
N8    N     N_R   0.974240 0.667310 0.936390 -0.043666
C9    C     C_R   0.909796 0.852047 0.034642 0.058502
C10   C     C_R   0.668335 0.553206 0.322079 0.038442
C11   C     C_R   0.663631 0.455014 0.921195 0.030527
C12   C     C_R   0.068472 0.795354 0.305158 0.008810
C13   C     C_R   0.339453 0.513754 0.948081 -0.031536
H7    H     H_    0.399383 0.551201 0.896398 0.106128
N9    N     N_R   0.225670 0.542990 0.004160 -0.042182
C14   C     C_R   0.974106 0.179543 0.782344 -0.142986
H8    H     H_    0.939173 0.110271 0.804343 0.110314
N10   N     N_R   0.946240 0.290860 0.848040 -0.049176
C15   C     C_R   0.198518 0.510364 0.695301 -0.099279
H9    H     H_    0.159241 0.490581 0.641141 0.130576
N11   N     N_R   0.146140 0.501160 0.788590 -0.044914
C16   C     C_R   0.051569 0.255537 0.088619 -0.127154
H10   H     H_    0.088228 0.274992 0.144702 0.112456
N12   N     N_R   0.025760 0.332690 0.063610 -0.047849
C17   C     C_R   0.951074 0.172051 0.994651 -0.120525
H11   H     H_    0.894838 0.114490 0.964165 0.099763
N13   N     N_R   0.962690 0.280000 0.004210 -0.045181
C18   C     C_R   0.299662 0.595390 0.790048 -0.112644
H12   H     H_    0.353684 0.654258 0.822803 0.134504
N14   N     N_R   0.209210 0.553840 0.847990 -0.050611
C19   C     C_R   0.259270 0.414471 0.046095 -0.112461
H13   H     H_    0.248310 0.359737 0.085142 0.104408
N15   N     N_R   0.175110 0.482040 0.063580 -0.047928
C20   C     C_R   0.057859 0.279063 0.684571 -0.076203
H14   H     H_    0.101377 0.302051 0.617666 0.120067
N16   N     N_R   0.996790 0.351810 0.788620 -0.039446
Ni1   Ni    Ni4+2 0.130310 0.630310 0.999970 0.298255
Ni2   Ni    Ni4+2 0.869690 0.369690 0.000030 0.207426
Ni3   Ni    Ni4+2 0.985640 0.509470 0.863740 0.289311
Ni4   Ni    Ni4+2 0.014360 0.490530 0.136260 0.221359
C21   C     C_R   0.362842 0.430541 0.971332 0.114573
C22   C     C_R   0.045380 0.170235 0.679711 0.048187
C23   C     C_R   0.294990 0.570058 0.693948 0.017665
C24   C     C_R   0.007922 0.152268 0.045019 0.094476
C25   C     C_R   0.178235 0.928230 0.402887 0.418121
C26   C     C_R   0.169164 0.025177 0.496678 -0.295586
H15   H     H_    0.245987 0.065410 0.502306 0.171707
C27   C     C_R   0.059732 0.068909 0.584655 0.090979
C28   C     C_R   0.958945 0.018826 0.582214 -0.140885
H16   H     H_    0.873970 0.054101 0.650341 0.131724
C29   C     C_R   0.966050 0.926528 0.490037 -0.211074
H17   H     H_    0.886160 0.891466 0.487527 0.143689
C30   C     C_R   0.074027 0.882957 0.400109 0.000166
C31   C     C_R   0.564708 0.658197 0.522880 -0.153165
H18   H     H_    0.643120 0.692542 0.528718 0.118299
C32   C     C_R   0.471650 0.660278 0.616059 -0.142879
H19   H     H_    0.482135 0.695766 0.689928 0.130294
C33   C     C_R   0.373427 0.604887 0.609401 0.131799
C34   C     C_R   0.360485 0.568061 0.513934 -0.152979
H20   H     H_    0.283278 0.530974 0.507243 0.122813
C35   C     C_R   0.453717 0.565685 0.420734 -0.137515
H21   H     H_    0.444738 0.526843 0.345999 0.121535
C36   C     C_R   0.560306 0.599264 0.422639 0.131087
C37   C     C_2   0.476763 0.385412 0.941309 -0.205035
H22   H     H_    0.478883 0.342137 0.986873 0.139397
C38   C     C_2   0.571100 0.426492 0.887251 -0.123701
H23   H     H_    0.568206 0.463637 0.837665 0.176355
C39   C     C_2   0.829082 0.956656 0.092787 -0.196161
H24   H     H_    0.772303 0.962569 0.059838 0.157926
C40   C     C_2   0.818156 0.041983 0.187615 -0.079719
H25   H     H_    0.869769 0.040811 0.226935 0.127389
N17   N     N_R   0.291029 0.877210 0.313775 0.251595
O1    O     O_R   0.380649 0.937018 0.304662 -0.369847
O2    O     O_R   0.307343 0.768276 0.247184 -0.396963
N18   N     N_R   0.798802 0.539223 0.796504 0.219304
O3    O     O_R   0.726342 0.570037 0.772943 -0.425875
O4    O     O_R   0.909859 0.538643 0.739829 -0.439408
N19   N     N_R   0.176563 0.868993 0.165216 0.234721
O5    O     O_R   0.181663 0.975285 0.227477 -0.402260
O6    O     O_R   0.240865 0.828186 0.060762 -0.412696

loop_
_geom_bond_atom_site_label_1
_geom_bond_atom_site_label_2
_geom_bond_distance
_ccdc_geom_bond_type
C28   C29   1.359892 A    
C9    C39   1.476088 S    
C13   N9    1.326440 A    
C11   C38   1.453003 S    
C34   H20   1.080124 S    
N6    Ni1   1.873758 S    
C3    N3    1.344400 A    
C17   N13   1.343491 A    
C19   H13   1.077805 S    
N2    N7    1.390015 A    
N9    N15   1.364683 A    
C12   C30   1.421160 S    
C16   H10   1.079811 S    
C16   C24   1.387423 A    
C14   H8    1.078432 S    
C2    C10   1.392063 A    
C37   C38   1.335236 D    
N11   Ni3   1.854748 S    
C6    N6    1.337412 A    
C3    N18   1.434805 S    
C26   C27   1.395629 A    
C1    H1    1.075481 S    
N10   Ni2   1.873760 S    
C25   C30   1.412010 A    
C6    N19   1.432500 S    
N5    Ni2   1.815366 S    
C31   H18   1.080438 S    
C29   C30   1.394036 A    
N3    N5    1.364682 A    
C32   H19   1.080413 S    
N18   O4    1.300621 A    
C4    H3    1.081855 S    
N13   Ni2   1.814606 S    
C20   N16   1.332360 A    
C25   C26   1.394739 A    
C34   C35   1.383904 A    
C18   N14   1.335788 A    
C18   C23   1.384933 A    
C4    C12   1.364181 A    
C7    H5    1.076944 S    
N8    Ni3   1.839356 S    
C19   N15   1.339552 A    
N16   Ni3   1.840703 S    
C7    C10   1.389605 A    
C40   H25   1.084630 S    
N12   N13   1.390032 A    
C2    N2    1.335286 A    
C17   H11   1.079713 S    
C21   C37   1.445689 S    
N1    Ni1   1.814604 S    
C37   H22   1.083233 S    
C33   C34   1.403022 A    
C6    C12   1.376552 A    
C17   C24   1.388865 A    
C14   C22   1.375010 A    
C39   H24   1.085106 S    
C26   H15   1.083718 S    
C1    N1    1.348578 A    
C35   H21   1.080617 S    
C27   C28   1.390454 A    
C4    N4    1.324538 A    
N4    N6    1.364671 A    
N12   Ni4   1.839355 S    
C8    C9    1.384132 A    
N19   O6    1.300791 A    
C15   H9    1.079441 S    
C5    H4    1.079808 S    
N11   N14   1.390014 A    
C35   C36   1.401122 A    
N10   N16   1.364668 A    
N4    Ni4   1.840703 S    
N15   Ni4   1.854222 S    
N14   Ni1   1.873348 S    
C20   H14   1.080571 S    
C8    N8    1.345879 A    
C1    C9    1.390976 A    
C39   C40   1.335823 D    
C22   C27   1.416622 S    
C18   H12   1.079782 S    
N7    Ni4   1.854750 S    
N9    Ni1   1.815367 S    
C31   C36   1.402538 A    
C20   C22   1.378587 A    
C15   C23   1.381642 A    
N17   O1    1.301782 A    
C5    N5    1.326093 A    
C38   H23   1.079836 S    
N3    Ni3   1.854223 S    
C13   C21   1.382352 A    
C3    C11   1.386567 A    
C5    C11   1.374986 A    
C16   N12   1.343423 A    
C25   N17   1.441618 S    
C14   N10   1.324132 A    
C15   N11   1.332302 A    
N19   O5    1.300594 A    
C7    N7    1.333093 A    
N17   O2    1.301565 A    
C23   C33   1.461922 S    
C28   H16   1.084737 S    
C10   C36   1.462175 S    
C2    H2    1.077778 S    
C8    H6    1.077976 S    
C19   C21   1.383222 A    
C31   C32   1.384047 A    
C29   H17   1.085422 S    
C13   H7    1.078060 S    
N1    N8    1.390032 A    
C32   C33   1.401597 A    
N2    Ni2   1.873347 S    
N18   O3    1.300072 A    
