data_mof_unit_24527.cif
_audit_creation_date              2012-12-10T17:53:19-0500
_audit_creation_method            fapswitch 2.2
_symmetry_space_group_name_H-M    P1
_symmetry_Int_Tables_number       1
_space_group_crystal_system       triclinic
_cell_length_a                    22.814098
_cell_length_b                    10.581228
_cell_length_c                    10.025851
_cell_angle_alpha                 89.935929
_cell_angle_beta                  88.541641
_cell_angle_gamma                 92.84984
_cell_volume                      2416.469109

loop_
_atom_site_label
_atom_site_type_symbol
_atom_type_description
_atom_site_fract_x
_atom_site_fract_y
_atom_site_fract_z
_atom_type_partial_charge
C1    C     C_R   0.500873 0.258761 0.501202 0.862197
C2    C     C_R   0.975529 0.333773 0.720079 0.107246
C3    C     C_R   0.035631 0.352622 0.745721 -0.212443
C4    C     C_R   0.064928 0.469761 0.720314 -0.043674
C5    C     C_R   0.033110 0.574190 0.685994 -0.028660
C6    C     C_R   0.062791 0.690175 0.652430 0.000035
C7    C     C_R   0.030565 0.798545 0.636463 -0.172265
C8    C     C_R   0.969332 0.789257 0.646501 -0.185088
C9    C     C_R   0.126050 0.483269 0.716752 0.532068
C10   C     C_R   0.123431 0.690348 0.625387 0.495137
C11   C     C_R   0.256106 0.655166 0.625538 -0.111955
C12   C     C_R   0.389095 0.502255 0.502576 0.834425
C13   C     C_R   0.312832 0.637577 0.580671 -0.280817
C14   C     C_R   0.326775 0.526343 0.514454 -0.071349
C15   C     C_R   0.282245 0.434305 0.484161 0.054832
C16   C     C_R   0.222769 0.461532 0.511229 0.126034
C17   C     C_R   0.210880 0.567945 0.593307 0.231622
C18   C     C_R   0.755771 0.423171 0.628007 -0.087464
C19   C     C_R   0.698856 0.405348 0.581549 -0.068721
C20   C     C_R   0.674786 0.502543 0.505940 -0.171518
C21   C     C_R   0.709950 0.612524 0.470706 0.039068
C22   C     C_R   0.769708 0.616157 0.499946 -0.126973
C23   C     C_R   0.489367 0.735874 0.500318 0.869424
C24   C     C_R   0.792642 0.525466 0.584117 0.203803
C25   C     C_R   0.504657 0.103970 0.755615 -0.128707
C26   C     C_R   0.484215 0.043359 0.872642 -0.174362
C27   C     C_R   0.451606 0.929295 0.865458 -0.208524
C28   C     C_R   0.445075 0.869670 0.742853 -0.150770
C29   C     C_R   0.467650 0.928672 0.624514 0.075951
C30   C     C_R   0.489722 0.054026 0.628625 0.101685
C31   C     C_R   0.494815 0.122122 0.505597 -0.156877
C32   C     C_R   0.480510 0.061853 0.385363 -0.283606
C33   C     C_R   0.466917 0.933332 0.381799 0.109770
C34   C     C_R   0.610942 0.501926 0.499521 0.842816
C35   C     C_R   0.470491 0.864961 0.501786 -0.178874
C36   C     C_R   0.419985 0.335090 0.139930 -0.220988
C37   C     C_R   0.383253 0.249078 0.068996 0.166337
C38   C     C_R   0.384821 0.252613 0.930591 -0.188868
C39   C     C_R   0.421457 0.339527 0.862774 -0.186947
C40   C     C_R   0.459965 0.423060 0.929608 0.110804
C41   C     C_R   0.459150 0.423453 0.073319 0.098469
C42   C     C_R   0.544432 0.558420 0.067061 0.089459
C43   C     C_R   0.539991 0.572718 0.925473 0.122563
C44   C     C_R   0.878963 0.654907 0.650173 0.500757
C45   C     C_R   0.885555 0.431052 0.634031 0.485894
C46   C     C_R   0.943455 0.439955 0.680612 -0.042996
C47   C     C_R   0.971876 0.561473 0.678489 -0.046221
C48   C     C_R   0.939780 0.669834 0.660211 0.008712
H1    H     H_    0.797727 0.694723 0.463805 0.175859
H2    H     H_    0.478856 0.115195 0.293338 0.168600
H3    H     H_    0.533039 0.187430 0.768080 0.176432
H4    H     H_    0.493961 0.084621 0.968845 0.143674
H5    H     H_    0.435543 0.882012 0.955264 0.150027
H6    H     H_    0.422621 0.777306 0.741400 0.158014
H7    H     H_    0.060622 0.272902 0.774387 0.179604
H8    H     H_    0.419921 0.325755 0.245764 0.197123
H9    H     H_    0.359943 0.183047 0.873393 0.166075
H10   H     H_    0.420977 0.333576 0.757080 0.215974
H11   H     H_    0.052403 0.889728 0.614541 0.175972
H12   H     H_    0.945330 0.873947 0.632843 0.181163
H13   H     H_    0.247451 0.736498 0.687108 0.172063
H14   H     H_    0.346953 0.707391 0.606050 0.136884
H15   H     H_    0.771593 0.356082 0.698478 0.204621
N1    N     N_R   0.853184 0.537299 0.625379 -0.335294
N2    N     N_R   0.153079 0.583314 0.649522 -0.343318
N3    N     N_R   0.499460 0.498800 0.142780 -0.135271
N4    N     N_R   0.499440 0.498720 0.857170 -0.150043
O1    O     O_R   0.500000 0.316780 0.614690 -0.646480
O2    O     O_2   0.863277 0.319128 0.589567 -0.581515
O3    O     O_2   0.158337 0.395761 0.774185 -0.596703
O4    O     O_2   0.151616 0.793576 0.570666 -0.583634
O5    O     O_R   0.500000 0.316750 0.385360 -0.632248
O6    O     O_R   0.416160 0.499970 0.614690 -0.626491
O7    O     O_R   0.416150 0.499950 0.385360 -0.624628
O8    O     O_R   0.500000 0.683250 0.614640 -0.638362
O9    O     O_R   0.500000 0.683220 0.385310 -0.615378
O10   O     O_R   0.583850 0.500050 0.614640 -0.635373
O11   O     O_R   0.583840 0.500030 0.385310 -0.611951
O12   O     O_2   0.846295 0.757239 0.663163 -0.591005
Zn1   Zn    Zn3+2 0.500000 0.500020 0.653130 0.900880
Zn2   Zn    Zn3+2 0.500000 0.499980 0.346870 0.904747
C49   C     C_3   0.948488 0.200374 0.738564 -0.367255
C50   C     C_3   0.903729 0.192297 0.855608 -0.334768
C51   C     C_3   0.875226 0.059105 0.868925 -0.788221
H16   H     H_    0.851260 0.033129 0.777042 0.296368
H17   H     H_    0.909063 0.989282 0.886043 0.255290
H18   H     H_    0.843503 0.055540 0.954863 0.245352
H19   H     H_    0.926319 0.217255 0.949654 0.217022
H20   H     H_    0.868681 0.259874 0.841949 0.242263
H21   H     H_    0.928988 0.165192 0.644677 0.250454
H22   H     H_    0.983080 0.133110 0.759694 0.170772
C52   C     C_2   0.664013 0.286782 0.617704 0.420167
H23   H     H_    0.622053 0.264921 0.572684 0.049559
O13   O     O_2   0.682092 0.211113 0.697045 -0.590713
C53   C     C_3   0.684233 0.733771 0.421739 -0.404048
C54   C     C_3   0.712137 0.782514 0.289136 -0.362036
C55   C     C_3   0.679979 0.894798 0.236636 -0.870046
H24   H     H_    0.633407 0.866515 0.217769 0.252249
H25   H     H_    0.681611 0.973401 0.310017 0.273924
H26   H     H_    0.701317 0.929083 0.141734 0.256996
H27   H     H_    0.758730 0.813909 0.302983 0.229336
H28   H     H_    0.711024 0.706466 0.213419 0.230911
H29   H     H_    0.636021 0.722860 0.411664 0.202309
H30   H     H_    0.691721 0.807684 0.499054 0.215763
C56   C     C_3   0.444152 0.875652 0.252870 -0.410808
C57   C     C_3   0.383057 0.810072 0.275816 -0.315325
C58   C     C_3   0.360511 0.744365 0.150451 -0.851330
H31   H     H_    0.393363 0.679662 0.109550 0.265376
H32   H     H_    0.319396 0.687789 0.175533 0.259014
H33   H     H_    0.350545 0.815333 0.073830 0.240187
H34   H     H_    0.384689 0.737997 0.355495 0.233255
H35   H     H_    0.351378 0.880906 0.308849 0.218035
H36   H     H_    0.440219 0.950723 0.176772 0.169513
H37   H     H_    0.475550 0.810180 0.208147 0.226341
C59   C     C_3   0.605736 0.570409 0.121415 -0.367949
C60   C     C_3   0.631908 0.438393 0.119381 -0.298673
C61   C     C_3   0.697775 0.443449 0.142559 -0.887525
H38   H     H_    0.707322 0.480087 0.243045 0.277503
H39   H     H_    0.714178 0.346611 0.134773 0.259168
H40   H     H_    0.721453 0.504373 0.066391 0.254920
H41   H     H_    0.609045 0.373837 0.193205 0.248416
H42   H     H_    0.625117 0.394981 0.019533 0.211810
H43   H     H_    0.636332 0.633177 0.062561 0.191578
H44   H     H_    0.605764 0.622499 0.215394 0.232763
C62   C     C_3   0.346303 0.144979 0.138182 -0.448202
C63   C     C_3   0.279804 0.162091 0.128973 -0.334349
C64   C     C_3   0.253685 0.118375 0.996736 -0.793846
H45   H     H_    0.262828 0.190785 0.917874 0.263149
H46   H     H_    0.270960 0.026560 0.964808 0.245817
H47   H     H_    0.205232 0.105871 0.009165 0.249150
H48   H     H_    0.257225 0.104335 0.209438 0.210270
H49   H     H_    0.269950 0.262763 0.145610 0.224694
H50   H     H_    0.357369 0.052277 0.095128 0.206740
H51   H     H_    0.357698 0.140623 0.244806 0.171338
C65   C     C_3   0.585753 0.657726 0.850087 -0.363114
C66   C     C_3   0.590251 0.794955 0.901312 -0.454905
C67   C     C_3   0.649865 0.859331 0.864767 -0.805379
H52   H     H_    0.685480 0.810343 0.913897 0.258076
H53   H     H_    0.657577 0.857986 0.754926 0.270752
H54   H     H_    0.650935 0.959282 0.898669 0.270858
H55   H     H_    0.556493 0.848568 0.853002 0.267095
H56   H     H_    0.582315 0.801535 0.010613 0.221090
H57   H     H_    0.628830 0.613037 0.850272 0.198644
H58   H     H_    0.576382 0.667703 0.745781 0.273374
C68   C     C_3   0.298777 0.302769 0.444319 -0.449496
C69   C     C_3   0.301866 0.217999 0.568136 -0.326357
C70   C     C_3   0.317265 0.083656 0.530993 -0.896527
H59   H     H_    0.283956 0.040408 0.463749 0.267933
H60   H     H_    0.361149 0.084492 0.480796 0.264528
H61   H     H_    0.318404 0.024976 0.622724 0.257944
H62   H     H_    0.335865 0.258386 0.635271 0.215236
H63   H     H_    0.259177 0.214177 0.624118 0.242557
H64   H     H_    0.267494 0.261800 0.373238 0.197895
H65   H     H_    0.341761 0.305827 0.391164 0.194732
C71   C     C_3   0.172970 0.394863 0.434435 -0.426247
C72   C     C_3   0.152906 0.260656 0.483167 -0.329532
C73   C     C_3   0.092625 0.220900 0.430023 -0.871129
H66   H     H_    0.094144 0.220522 0.319190 0.268459
H67   H     H_    0.079338 0.124136 0.466098 0.253893
H68   H     H_    0.059181 0.286684 0.465577 0.267545
H69   H     H_    0.183645 0.189422 0.448342 0.225608
H70   H     H_    0.150557 0.254592 0.592883 0.266605
H71   H     H_    0.134475 0.455292 0.436112 0.206391
H72   H     H_    0.186515 0.389872 0.327349 0.190339

loop_
_geom_bond_atom_site_label_1
_geom_bond_atom_site_label_2
_ccdc_geom_bond_type
C62   H51   S    
O1    Zn1   S    
C63   C64   S    
C54   H28   S    
C53   C54   S    
C51   H18   S    
C23   O9    A    
C8    C48   A    
C55   H24   S    
C54   H27   S    
C65   C66   S    
C57   H35   S    
C45   C46   A    
C44   N1    A    
C5    C47   A    
C26   C27   A    
C73   H66   S    
C60   H42   S    
C50   C51   S    
C18   C24   A    
C56   H36   S    
C28   C29   A    
C70   H60   S    
C37   C38   A    
C51   H17   S    
C12   O7    A    
C61   H39   S    
C34   O10   A    
C65   H58   S    
C5    C6    A    
C18   H15   S    
C10   N2    A    
C57   C58   S    
C15   C16   A    
C1    C31   S    
C1    O1    A    
C60   C61   S    
C18   C19   A    
C66   H56   S    
C19   C52   S    
C70   H59   S    
C3    H7    S    
O6    Zn1   S    
C11   C17   A    
C13   H14   S    
C19   C20   A    
C16   C17   A    
C40   N4    A    
C12   O6    A    
C58   H31   S    
O8    Zn1   S    
O5    Zn2   S    
C68   H64   S    
C10   O4    S    
C65   H57   S    
C50   H19   S    
C72   H70   S    
C73   H67   S    
C13   C14   A    
C58   H32   S    
C36   C41   A    
C64   H46   S    
C7    H11   S    
C55   H25   S    
C53   H29   S    
C68   C69   S    
C37   C62   S    
C57   H34   S    
C38   C39   A    
C50   H20   S    
C67   H54   S    
C1    O5    A    
C59   H43   S    
C60   H41   S    
C45   O2    S    
C47   C48   A    
C56   H37   S    
C7    C8    A    
C70   H61   S    
C33   C56   S    
C51   H16   S    
C61   H40   S    
C39   C40   A    
C15   C68   S    
C28   H6    S    
C66   C67   S    
C21   C53   S    
C71   H71   S    
C25   C26   A    
C39   H10   S    
C2    C46   A    
C49   H22   S    
C72   C73   S    
C25   H3    S    
C29   C30   A    
C36   H8    S    
C26   H4    S    
C38   H9    S    
C67   H53   S    
C31   C32   A    
C63   H49   S    
C54   C55   S    
C16   C71   S    
C52   O13   D    
C9    O3    S    
C43   C65   S    
C32   H2    S    
C6    C7    A    
C22   H1    S    
C69   H63   S    
C68   H65   S    
C40   C41   A    
C12   C14   S    
C72   H69   S    
C73   H68   S    
C23   C35   S    
C62   C63   S    
C58   H33   S    
C22   C24   A    
C2    C49   S    
C42   C43   A    
O7    Zn2   S    
C3    C4    A    
C71   C72   S    
C55   H26   S    
C53   H30   S    
C69   C70   S    
C67   H52   S    
O10   Zn1   S    
C62   H50   S    
C25   C30   A    
C46   C47   A    
C36   C37   A    
C59   H44   S    
C44   O12   S    
N4    Zn1   S    
C23   O8    A    
C4    C5    A    
C11   H13   S    
O9    Zn2   S    
C6    C10   A    
C27   H5    S    
C41   N3    A    
C71   H72   S    
C56   C57   S    
C29   C35   A    
C45   N1    A    
C17   N2    S    
C49   H21   S    
C32   C33   A    
C2    C3    A    
C64   H47   S    
C20   C34   S    
C61   H38   S    
C34   O11   A    
N3    Zn2   S    
C11   C13   A    
O11   Zn2   S    
C59   C60   S    
C30   C31   A    
C63   H48   S    
C52   H23   S    
C33   C35   A    
C66   H55   S    
C24   N1    S    
C9    N2    A    
C69   H62   S    
C44   C48   A    
C42   C59   S    
C20   C21   A    
C43   N4    A    
C49   C50   S    
C27   C28   A    
C42   N3    A    
C14   C15   A    
C4    C9    A    
C21   C22   A    
C8    H12   S    
C64   H45   S    
