data_mof_unit_28407.cif
_audit_creation_date              2013-03-05T16:04:57-0500
_audit_creation_method            fapswitch 2.2
_symmetry_space_group_name_H-M    P1
_symmetry_Int_Tables_number       1
_space_group_crystal_system       triclinic
_cell_length_a                    23.239246
_cell_length_b                    20.406056
_cell_length_c                    15.070347
_cell_angle_alpha                 90.001444
_cell_angle_beta                  98.691627
_cell_angle_gamma                 89.997346
_cell_volume                      7064.60775652

loop_
_atom_site_label
_atom_site_type_symbol
_atom_site_description
_atom_site_fract_x
_atom_site_fract_y
_atom_site_fract_z
_atom_type_partial_charge
O1    O     O_R   0.541320 0.066090 0.608930 -0.615332
O2    O     O_R   0.458680 0.933910 0.391070 -0.614964
O3    O     O_R   0.458680 0.066090 0.391070 -0.613057
O4    O     O_R   0.541320 0.933910 0.608930 -0.612774
O5    O     O_R   0.041320 0.566090 0.608930 -0.612811
O6    O     O_R   0.958680 0.433910 0.391070 -0.613102
O7    O     O_R   0.958680 0.566090 0.391070 -0.614974
O8    O     O_R   0.041320 0.433910 0.608930 -0.615331
O9    O     O_R   0.572880 0.066110 0.470280 -0.620191
O10   O     O_R   0.427120 0.933890 0.529720 -0.616752
O11   O     O_R   0.427120 0.066110 0.529720 -0.622448
O12   O     O_R   0.572880 0.933890 0.470280 -0.626945
O13   O     O_R   0.072880 0.566110 0.470280 -0.626939
O14   O     O_R   0.927120 0.433890 0.529720 -0.622148
O15   O     O_R   0.927120 0.566110 0.529720 -0.616709
O16   O     O_R   0.072880 0.433890 0.470280 -0.620185
C1    C     C_R   0.574299 0.088575 0.552540 0.861222
C2    C     C_R   0.425819 0.911376 0.447442 0.864781
C3    C     C_R   0.423792 0.086287 0.446096 0.863673
C4    C     C_R   0.576207 0.913706 0.553867 0.858573
C5    C     C_R   0.076208 0.586294 0.553867 0.858557
C6    C     C_R   0.923803 0.413701 0.446100 0.863785
C7    C     C_R   0.925814 0.588618 0.447440 0.864921
C8    C     C_R   0.074295 0.411417 0.552534 0.861136
Zn1   Zn    Zn3+2 0.478910 0.000000 0.592580 0.937706
Zn2   Zn    Zn3+2 0.521090 0.000000 0.407420 0.938420
Zn3   Zn    Zn3+2 0.978910 0.500000 0.592580 0.937813
Zn4   Zn    Zn3+2 0.021090 0.500000 0.407420 0.938439
C9    C     C_R   0.626331 0.873292 0.589584 -0.057205
C10   C     C_R   0.374137 0.127339 0.410157 -0.056874
C11   C     C_R   0.389129 0.854646 0.419505 -0.055558
C12   C     C_R   0.610498 0.145992 0.579156 -0.055448
C13   C     C_R   0.110464 0.353964 0.579117 -0.055475
C14   C     C_R   0.889114 0.645338 0.419500 -0.055652
C15   C     C_R   0.874174 0.372617 0.410169 -0.056849
C16   C     C_R   0.126330 0.626711 0.589579 -0.057199
C17   C     C_R   0.695261 0.832488 0.713646 -0.201106
C18   C     C_R   0.310738 0.176550 0.285872 -0.201612
C19   C     C_R   0.344703 0.779114 0.305854 -0.199263
C20   C     C_R   0.647008 0.229962 0.686342 -0.199356
C21   C     C_R   0.146865 0.269889 0.686210 -0.199350
C22   C     C_R   0.844705 0.720880 0.305855 -0.199282
C23   C     C_R   0.810696 0.323525 0.285875 -0.201618
C24   C     C_R   0.195240 0.667553 0.713641 -0.201092
C25   C     C_R   0.642750 0.863532 0.681839 -0.201374
C26   C     C_R   0.361550 0.142621 0.318726 -0.200944
C27   C     C_R   0.379700 0.833431 0.330218 -0.199283
C28   C     C_R   0.614234 0.173448 0.664937 -0.200654
C29   C     C_R   0.114148 0.326454 0.664857 -0.200648
C30   C     C_R   0.879706 0.666566 0.330222 -0.199231
C31   C     C_R   0.861514 0.357447 0.318708 -0.200915
C32   C     C_R   0.142736 0.636499 0.681833 -0.201394
C33   C     C_R   0.662284 0.851442 0.530054 -0.251801
C34   C     C_R   0.335520 0.145569 0.467663 -0.257296
C35   C     C_R   0.365737 0.819493 0.484532 -0.249674
C36   C     C_R   0.638270 0.176349 0.514751 -0.246942
C37   C     C_R   0.138241 0.323616 0.514706 -0.246882
C38   C     C_R   0.865692 0.680471 0.484518 -0.249825
C39   C     C_R   0.835640 0.354254 0.467730 -0.257346
C40   C     C_R   0.162292 0.648544 0.530051 -0.251783
C41   C     C_R   0.717164 0.825106 0.560474 0.065249
C42   C     C_R   0.282447 0.175404 0.435477 0.066927
C43   C     C_R   0.330124 0.764946 0.462088 0.066424
C44   C     C_R   0.669783 0.234254 0.533353 0.063663
C45   C     C_R   0.169696 0.265662 0.533252 0.063652
C46   C     C_R   0.830103 0.735037 0.462076 0.066495
C47   C     C_R   0.782540 0.324479 0.435568 0.066979
C48   C     C_R   0.217166 0.674896 0.560475 0.065234
C49   C     C_R   0.733086 0.812594 0.653695 0.152303
C50   C     C_R   0.270893 0.194235 0.343720 0.153606
C51   C     C_R   0.317901 0.745528 0.370421 0.152042
C52   C     C_R   0.676309 0.260276 0.621882 0.151689
C53   C     C_R   0.176162 0.239577 0.621739 0.151679
C54   C     C_R   0.817891 0.754461 0.370415 0.152060
C55   C     C_R   0.770905 0.305764 0.343772 0.153600
C56   C     C_R   0.233073 0.687432 0.653696 0.152302
C57   C     C_R   0.754894 0.807928 0.498945 0.015432
C58   C     C_R   0.242711 0.190668 0.494674 0.014946
C59   C     C_R   0.302391 0.733347 0.527829 0.014702
C60   C     C_R   0.698670 0.263465 0.467291 0.014851
C61   C     C_R   0.198589 0.236461 0.467184 0.014861
C62   C     C_R   0.802382 0.766648 0.527817 0.014663
C63   C     C_R   0.742842 0.309188 0.494807 0.014933
C64   C     C_R   0.254904 0.692067 0.498952 0.015436
C65   C     C_R   0.246092 0.161838 0.580615 -0.221173
C66   C     C_R   0.746415 0.830820 0.409416 -0.221988
C67   C     C_R   0.685492 0.247583 0.375068 -0.224843
C68   C     C_R   0.319519 0.743010 0.621063 -0.221824
C69   C     C_R   0.819526 0.757003 0.621048 -0.221757
C70   C     C_R   0.185473 0.252427 0.374984 -0.224840
C71   C     C_R   0.246433 0.669166 0.409424 -0.221996
C72   C     C_R   0.746296 0.337948 0.580804 -0.221176
C73   C     C_R   0.212539 0.184811 0.643597 0.182617
C74   C     C_R   0.778134 0.805723 0.345535 0.180155
C75   C     C_R   0.720318 0.269260 0.312950 0.178434
C76   C     C_R   0.286066 0.719630 0.684092 0.178327
C77   C     C_R   0.786086 0.780404 0.684084 0.178300
C78   C     C_R   0.220333 0.230786 0.312890 0.178431
C79   C     C_R   0.278148 0.694265 0.345541 0.180179
C80   C     C_R   0.712751 0.314978 0.643791 0.182626
N1    N     N_R   0.549130 0.000000 0.284090 -0.100272
N2    N     N_R   0.450870 0.000000 0.715910 -0.100066
N3    N     N_R   0.049130 0.500000 0.284090 -0.100271
N4    N     N_R   0.950870 0.500000 0.715910 -0.100028
C81   C     C_R   0.627476 0.010499 0.198206 -0.316516
C82   C     C_R   0.371971 0.002800 0.801480 -0.306341
C83   C     C_R   0.127498 0.489675 0.198217 -0.316518
C84   C     C_R   0.871991 0.497161 0.801511 -0.306333
C85   C     C_R   0.607916 0.005801 0.280319 0.355908
C86   C     C_R   0.391988 0.997226 0.719610 0.343799
C87   C     C_R   0.107922 0.494247 0.280330 0.355909
C88   C     C_R   0.891984 0.502704 0.719628 0.343848
C89   C     C_R   0.509529 0.000108 0.208425 -0.117110
C90   C     C_R   0.490253 0.005943 0.791185 -0.116704
C91   C     C_R   0.009540 0.499945 0.208422 -0.117131
C92   C     C_R   0.990269 0.494185 0.791184 -0.116759
C93   C     C_R   0.527670 0.006758 0.123185 -0.002940
C94   C     C_R   0.471797 0.009015 0.876467 -0.003656
C95   C     C_R   0.027697 0.493391 0.123186 -0.002911
C96   C     C_R   0.971828 0.491145 0.876475 -0.003662
C97   C     C_R   0.588056 0.010702 0.119968 0.135489
C98   C     C_R   0.411302 0.007907 0.879669 0.136162
C99   C     C_R   0.088086 0.489530 0.119973 0.135490
C100  C     C_R   0.911335 0.492154 0.879689 0.136168
C101  C     C_R   0.488471 0.009460 0.041597 0.093547
C102  C     C_R   0.510875 0.011554 0.958157 0.093867
C103  C     C_R   0.988506 0.490695 0.041599 0.093568
C104  C     C_R   0.010913 0.488688 0.958159 0.093863
C105  C     C_R   0.571494 0.015729 0.959121 -0.238676
C106  C     C_R   0.427770 0.010801 0.040755 -0.239127
C107  C     C_R   0.071539 0.484661 0.959119 -0.238672
C108  C     C_R   0.927812 0.489251 0.040764 -0.239140
C109  C     C_R   0.609240 0.015737 0.038853 -0.202814
C110  C     C_R   0.389985 0.010325 0.960954 -0.202647
C111  C     C_R   0.109282 0.484638 0.038853 -0.202818
C112  C     C_R   0.890026 0.489696 0.960972 -0.202671
H1    H     H_    0.535198 0.006979 0.781886 0.134719
H2    H     H_    0.464660 0.995437 0.217306 0.134229
H3    H     H_    0.035211 0.493196 0.781871 0.134737
H4    H     H_    0.964667 0.504596 0.217299 0.134213
H5    H     H_    0.673768 0.015029 0.195599 0.152186
H6    H     H_    0.325651 0.000774 0.804684 0.144463
H7    H     H_    0.173794 0.485193 0.195613 0.152158
H8    H     H_    0.825670 0.499079 0.804729 0.144424
C113  C     C_3   0.218426 0.152032 0.734362 -0.941798
H9    H     H_    0.248145 0.109104 0.738902 0.241840
H10   H     H_    0.236341 0.187269 0.787578 0.242701
H11   H     H_    0.175181 0.134450 0.746989 0.243314
C114  C     C_3   0.766595 0.832200 0.250906 -0.940911
H12   H     H_    0.735093 0.873521 0.244367 0.243364
H13   H     H_    0.807792 0.850517 0.231027 0.243002
H14   H     H_    0.748154 0.793006 0.203943 0.243052
C115  C     C_3   0.703886 0.250515 0.215482 -0.938706
H15   H     H_    0.662521 0.222372 0.203424 0.246895
H16   H     H_    0.698090 0.295368 0.173372 0.242677
H17   H     H_    0.738504 0.219406 0.194067 0.241063
C116  C     C_3   0.306856 0.731645 0.782597 -0.936906
H18   H     H_    0.349604 0.757057 0.794167 0.245912
H19   H     H_    0.275010 0.762862 0.811027 0.241575
H20   H     H_    0.311863 0.684195 0.819006 0.242397
C117  C     C_3   0.806895 0.768419 0.782587 -0.936879
H21   H     H_    0.849648 0.743013 0.794149 0.245923
H22   H     H_    0.811902 0.815880 0.818970 0.242395
H23   H     H_    0.775062 0.737211 0.811050 0.241581
C118  C     C_3   0.203973 0.249634 0.215448 -0.938696
H24   H     H_    0.162615 0.277793 0.203377 0.246896
H25   H     H_    0.238618 0.280760 0.194158 0.241071
H26   H     H_    0.198198 0.204824 0.173246 0.242677
C119  C     C_3   0.266612 0.667782 0.250911 -0.940918
H27   H     H_    0.235118 0.626456 0.244374 0.243350
H28   H     H_    0.248162 0.706972 0.203945 0.243048
H29   H     H_    0.307813 0.649469 0.231032 0.242998
C120  C     C_3   0.718710 0.347690 0.734610 -0.941813
H30   H     H_    0.748474 0.390576 0.739186 0.241903
H31   H     H_    0.675494 0.365321 0.747307 0.243300
H32   H     H_    0.736607 0.312395 0.787760 0.242694
H33   H     H_    0.591516 0.019943 0.899503 0.135961
H34   H     H_    0.407785 0.012791 0.100644 0.136063
H35   H     H_    0.091573 0.480578 0.899499 0.135967
H36   H     H_    0.907833 0.487190 0.100652 0.136050
H37   H     H_    0.348187 0.137516 0.538661 0.162298
H38   H     H_    0.646290 0.854798 0.459185 0.165537
H39   H     H_    0.636626 0.152691 0.450601 0.161118
H40   H     H_    0.373891 0.837229 0.552377 0.151377
H41   H     H_    0.873798 0.662705 0.552351 0.151397
H42   H     H_    0.136639 0.347312 0.450592 0.161092
H43   H     H_    0.146309 0.645165 0.459179 0.165541
H44   H     H_    0.848386 0.362174 0.538742 0.162104
H45   H     H_    0.390717 0.128177 0.272543 0.159057
H46   H     H_    0.615590 0.880729 0.729451 0.158692
H47   H     H_    0.592179 0.151127 0.715671 0.160018
H48   H     H_    0.398659 0.859301 0.278922 0.158923
H49   H     H_    0.898683 0.640705 0.278934 0.158933
H50   H     H_    0.092089 0.348766 0.715595 0.160066
H51   H     H_    0.115570 0.619319 0.729443 0.158656
H52   H     H_    0.890622 0.371982 0.272486 0.159022
H53   H     H_    0.706045 0.825064 0.785290 0.152783
H54   H     H_    0.303142 0.188577 0.215173 0.152659
H55   H     H_    0.337556 0.765176 0.235808 0.153349
H56   H     H_    0.649774 0.248841 0.753915 0.153365
H57   H     H_    0.149587 0.250965 0.753752 0.153371
H58   H     H_    0.837568 0.734823 0.235813 0.153353
H59   H     H_    0.803040 0.311587 0.215147 0.152647
H60   H     H_    0.206013 0.674998 0.785284 0.152774
H61   H     H_    0.273853 0.120037 0.599110 0.151161
H62   H     H_    0.715755 0.869429 0.388256 0.149820
H63   H     H_    0.647034 0.219715 0.349567 0.152030
H64   H     H_    0.359967 0.767123 0.646584 0.149967
H65   H     H_    0.859979 0.732890 0.646554 0.150024
H66   H     H_    0.147042 0.280344 0.349484 0.152023
H67   H     H_    0.215781 0.630550 0.388264 0.149825
H68   H     H_    0.774108 0.379699 0.599338 0.151174
H69   H     H_    0.655611 0.019301 0.036913 0.143241
H70   H     H_    0.343523 0.010561 0.962992 0.143287
H71   H     H_    0.155658 0.481167 0.036913 0.143248
H72   H     H_    0.843567 0.489375 0.963016 0.143290
C121  C     C_3   0.346844 0.984009 0.638904 -0.836531
H73   H     H_    0.350354 0.017390 0.582890 0.261456
H74   H     H_    0.349510 0.932246 0.618503 0.240630
H75   H     H_    0.301938 0.990981 0.654320 0.192679
C122  C     C_3   0.654652 0.011317 0.360854 -0.861067
H76   H     H_    0.642076 0.996458 0.424475 0.287116
H77   H     H_    0.692041 0.979560 0.351482 0.198692
H78   H     H_    0.670580 0.062624 0.367038 0.220278
C123  C     C_3   0.846789 0.515649 0.638893 -0.836860
H79   H     H_    0.850055 0.481793 0.583343 0.260741
H80   H     H_    0.801916 0.509183 0.654543 0.192723
H81   H     H_    0.849581 0.567196 0.617816 0.241267
C124  C     C_3   0.154647 0.488654 0.360868 -0.861025
H82   H     H_    0.142084 0.503529 0.424491 0.287086
H83   H     H_    0.170523 0.437327 0.367021 0.220287
H84   H     H_    0.192071 0.520361 0.351532 0.198663

loop_
_geom_bond_atom_site_label_1
_geom_bond_atom_site_label_2
_geom_bond_distance
_ccdc_geom_bond_type
O16   Zn4   1.954796 S    
C18   C50   1.411240 A    
C47   C63   1.412235 A    
C116  H18   1.110827 S    
O8    C8    1.310359 A    
C17   C49   1.411993 A    
O2    C2    1.308611 A    
N1    C89   1.352788 A    
C119  H27   1.111200 S    
C54   C74   1.408423 A    
C33   H38   1.078671 S    
C58   C61   1.402768 A    
C53   C73   1.409917 A    
C66   H62   1.077668 S    
C68   C76   1.399100 A    
C117  H21   1.110821 S    
C55   C75   1.409862 A    
C5    C16   1.461945 S    
C43   C59   1.416255 A    
C120  H30   1.111176 S    
C74   C114  1.510624 S    
C63   C72   1.413869 A    
C10   C34   1.389182 A    
O11   C3    1.316915 A    
C124  H82   1.086875 S    
C62   C69   1.415056 A    
C9    C33   1.388608 A    
N2    C90   1.351100 A    
N3    C87   1.380983 A    
C68   H64   1.079063 S    
C122  H78   1.109729 S    
C107  C111  1.376474 A    
C31   H52   1.083159 S    
C114  H13   1.110317 S    
Zn2   N1    2.060376 S    
C81   H5    1.086367 S    
C59   C64   1.404187 A    
C30   H49   1.083227 S    
Zn1   N2    2.060378 S    
C11   C35   1.389809 A    
C29   H50   1.083147 S    
O11   Zn1   1.954794 S    
C13   C29   1.399530 A    
C14   C38   1.389772 A    
O6    C6    1.310717 A    
Zn3   N4    2.060378 S    
C123  H81   1.103532 S    
C45   C53   1.422569 A    
C42   C50   1.421172 A    
C15   C39   1.389106 A    
C94   C98   1.414131 A    
C90   H1    1.074839 S    
C27   H48   1.083241 S    
C24   C56   1.412009 A    
C86   C121  1.505674 S    
C93   C97   1.413755 A    
C103  C108  1.408949 A    
C98   C110  1.389910 A    
C28   H47   1.083157 S    
C19   H55   1.081582 S    
C106  H34   1.076404 S    
C39   C47   1.395055 A    
O5    Zn3   1.968562 S    
C65   C73   1.397240 A    
C101  C106  1.409036 A    
C38   C46   1.397712 A    
C111  H71   1.084856 S    
C41   C57   1.413222 A    
C35   C43   1.397765 A    
C13   C37   1.389888 A    
C35   H40   1.074114 S    
C18   H54   1.081565 S    
O13   Zn4   1.954838 S    
C73   C113  1.510186 S    
C64   C71   1.413227 A    
C83   C99   1.379455 A    
O14   Zn3   1.954839 S    
C115  H16   1.110313 S    
C66   C74   1.395320 A    
C118  H24   1.110915 S    
C16   C32   1.399272 A    
C92   H3    1.074811 S    
C24   C32   1.394064 A    
O15   C7    1.318364 A    
C76   C116  1.510141 S    
C118  H25   1.110285 S    
C22   H58   1.081549 S    
N4    C92   1.351068 A    
C38   H41   1.074139 S    
O1    Zn1   1.968562 S    
C119  H28   1.110242 S    
C82   C98   1.381755 A    
C106  C110  1.377793 A    
C32   H51   1.083152 S    
C33   C41   1.395990 A    
C84   C100  1.381647 A    
C60   C63   1.402746 A    
C44   C60   1.413935 A    
C21   C29   1.392813 A    
C59   C68   1.415096 A    
C117  H22   1.110328 S    
C42   C58   1.412281 A    
O9    Zn2   1.954838 S    
C82   H6    1.085589 S    
C4    C9    1.461897 S    
C120  H31   1.110289 S    
C99   C111  1.388919 A    
C121  H75   1.112000 S    
O6    Zn4   1.968564 S    
C22   C54   1.409847 A    
C14   C30   1.398860 A    
C113  H10   1.110230 S    
O13   C5    1.316421 A    
C48   C64   1.413279 A    
C71   H67   1.077685 S    
C114  H14   1.110220 S    
C37   C45   1.396144 A    
C70   H66   1.079845 S    
C72   C80   1.397219 A    
C100  C112  1.389829 A    
C69   H65   1.079073 S    
C20   H56   1.081566 S    
C102  C105  1.409201 A    
C121  H73   1.097306 S    
C19   C27   1.390900 A    
C105  H33   1.075867 S    
O7    Zn4   1.968479 S    
C92   C96   1.416386 A    
C21   H57   1.081557 S    
O12   Zn2   1.954796 S    
C75   C115  1.510030 S    
O5    C5    1.311221 A    
N3    C91   1.352688 A    
C122  H76   1.086886 S    
C6    C15   1.462057 S    
C46   C62   1.416180 A    
O15   Zn3   1.954794 S    
C108  C112  1.377697 A    
C7    C14   1.461424 S    
O12   C4    1.316436 A    
C36   C44   1.396109 A    
C123  H79   1.096843 S    
C34   H37   1.078562 S    
C81   C97   1.379488 A    
C39   H44   1.078574 S    
O2    Zn2   1.968564 S    
C91   H4    1.075398 S    
C115  H17   1.110291 S    
O3    C3    1.310750 A    
C67   H63   1.079845 S    
C37   H42   1.076067 S    
C90   C94   1.416437 A    
C60   C67   1.414855 A    
C22   C30   1.390878 A    
C105  C109  1.376486 A    
C61   C70   1.414829 A    
C58   C65   1.413866 A    
O9    C1    1.317446 A    
C49   C77   1.409855 A    
C108  H36   1.076358 S    
C57   C66   1.413198 A    
C118  H26   1.110308 S    
C17   H53   1.081541 S    
C23   H59   1.081570 S    
C101  C102  1.432483 A    
C87   C124  1.505641 S    
C119  H29   1.110337 S    
C89   C93   1.417751 A    
C72   H68   1.080306 S    
C48   C56   1.420837 A    
C26   H45   1.083164 S    
C17   C25   1.394057 A    
C103  C104  1.432458 A    
C104  C107  1.409187 A    
O4    Zn1   1.968480 S    
C113  H9    1.111177 S    
C84   H8    1.085552 S    
C113  H11   1.110284 S    
C85   C122  1.505642 S    
O10   Zn1   1.954839 S    
C117  H23   1.110304 S    
N4    C88   1.379140 A    
C82   C86   1.387476 A    
C120  H32   1.110235 S    
C41   C49   1.420807 A    
C20   C28   1.392788 A    
C81   C85   1.384623 A    
C67   C75   1.398597 A    
C107  H35   1.075834 S    
C88   C123  1.505687 S    
C20   C52   1.410674 A    
O8    Zn3   1.968480 S    
C89   H2    1.075399 S    
C83   C87   1.384601 A    
C10   C26   1.399865 A    
O3    Zn2   1.968479 S    
C43   C51   1.423899 A    
C16   C40   1.388669 A    
C52   C80   1.409893 A    
C96   C104  1.415978 A    
C79   C119  1.510663 S    
C36   H39   1.076098 S    
C95   C99   1.413728 A    
C116  H20   1.110345 S    
C124  H84   1.109870 S    
C34   C42   1.395095 A    
C91   C95   1.417674 A    
C8    C13   1.462759 S    
C110  H70   1.084808 S    
C122  H77   1.109907 S    
C71   C79   1.395328 A    
O14   C6    1.316936 A    
C109  H69   1.084872 S    
C124  H83   1.109664 S    
C114  H12   1.111196 S    
C56   C76   1.409865 A    
C15   C31   1.399884 A    
C40   H43   1.078690 S    
Zn4   N3    2.060376 S    
C23   C31   1.393608 A    
C12   C28   1.399538 A    
C51   C79   1.408440 A    
C57   C62   1.404124 A    
O10   C2    1.318376 A    
O7    C7    1.308592 A    
C123  H80   1.111216 S    
C12   C36   1.389875 A    
C44   C52   1.422593 A    
C121  H74   1.104448 S    
C83   H7    1.086362 S    
O16   C8    1.317452 A    
C18   C26   1.393591 A    
C78   C118  1.510025 S    
N2    C86   1.379058 A    
C96   C100  1.414085 A    
C21   C53   1.410680 A    
O4    C4    1.311181 A    
C93   C101  1.416401 A    
C84   C88   1.387346 A    
C25   H46   1.083144 S    
C47   C55   1.421156 A    
O1    C1    1.310334 A    
C40   C48   1.396044 A    
C116  H19   1.110328 S    
C69   C77   1.399095 A    
C80   C120  1.510198 S    
C24   H60   1.081565 S    
C1    C12   1.462690 S    
C23   C55   1.411242 A    
C45   C61   1.413949 A    
C11   C27   1.398891 A    
C2    C11   1.461496 S    
C94   C102  1.416024 A    
C97   C109  1.388950 A    
C115  H15   1.110916 S    
C65   H61   1.080336 S    
C3    C10   1.462099 S    
N1    C85   1.380969 A    
C70   C78   1.398586 A    
C9    C25   1.399256 A    
C50   C78   1.409861 A    
C77   C117  1.510096 S    
C95   C103  1.416273 A    
C112  H72   1.084762 S    
C19   C51   1.409878 A    
C46   C54   1.423854 A    
