data_mof_unit_58519.cif
_audit_creation_date              2012-12-10T19:24:32-0500
_audit_creation_method            fapswitch 2.2
_symmetry_space_group_name_H-M    P1
_symmetry_Int_Tables_number       1
_space_group_crystal_system       triclinic
_cell_length_a                    17.839491
_cell_length_b                    16.647357
_cell_length_c                    10.721017
_cell_angle_alpha                 90.001293
_cell_angle_beta                  95.379639
_cell_angle_gamma                 90.012241
_cell_volume                      3169.90745633

loop_
_atom_site_label
_atom_site_type_symbol
_atom_type_description
_atom_site_fract_x
_atom_site_fract_y
_atom_site_fract_z
_atom_type_partial_charge
C1    C     C_R   0.355609 0.499891 0.500318 0.957741
C2    C     C_R   0.644389 0.499904 0.499656 0.957985
C3    C     C_R   0.884061 0.490088 0.484469 -0.167888
C4    C     C_R   0.115929 0.490039 0.515469 -0.167418
C5    C     C_1   0.965872 0.487571 0.494820 0.215487
C6    C     C_1   0.034116 0.487552 0.505104 0.215264
C7    C     C_R   0.566864 0.829968 0.524870 0.259937
C8    C     C_R   0.461947 0.167644 0.399751 0.190139
C9    C     C_R   0.432856 0.829792 0.476043 0.181921
C10   C     C_R   0.538402 0.167689 0.600007 0.231589
C11   C     C_R   0.562222 0.745815 0.551331 0.433022
C12   C     C_R   0.455922 0.254699 0.406664 0.422407
C13   C     C_R   0.437659 0.745738 0.449030 0.452125
C14   C     C_R   0.544260 0.254760 0.593153 0.412149
C15   C     C_R   0.499806 0.873655 0.500505 -0.279995
C16   C     C_R   0.500000 0.124991 0.500054 -0.241643
C17   C     C_1   0.499677 0.962352 0.500501 0.317664
C18   C     C_1   0.499706 0.036183 0.500358 0.315554
C19   C     C_R   0.511968 0.500031 0.263626 0.875011
C20   C     C_R   0.488051 0.500030 0.736387 0.875028
C21   C     C_R   0.551566 0.648477 0.106437 0.424915
C22   C     C_R   0.445956 0.352951 0.896044 0.390625
C23   C     C_R   0.448563 0.648478 0.893637 0.426463
C24   C     C_R   0.554081 0.352946 0.103902 0.393970
C25   C     C_R   0.526721 0.720494 0.050876 -0.195615
C26   C     C_R   0.471696 0.281434 0.951499 -0.084060
C27   C     C_R   0.473444 0.720494 0.949197 -0.197825
C28   C     C_R   0.528376 0.281435 0.048333 -0.088979
C29   C     C_R   0.479636 0.573970 0.939956 -0.067100
C30   C     C_R   0.521343 0.427200 0.059468 -0.072450
C31   C     C_R   0.520470 0.573968 0.060090 -0.067649
C32   C     C_R   0.478692 0.427204 0.940542 -0.072599
C33   C     C_R   0.472433 0.500387 0.872112 -0.034452
C34   C     C_R   0.527627 0.500383 0.127920 -0.034441
C35   C     C_R   0.845336 0.564211 0.466029 0.366830
C36   C     C_R   0.158417 0.419255 0.501909 0.350674
C37   C     C_R   0.154699 0.564130 0.534197 0.366260
C38   C     C_R   0.841527 0.419284 0.497744 0.352465
C39   C     C_R   0.767743 0.567642 0.476106 -0.081461
C40   C     C_R   0.235811 0.424478 0.495724 -0.188708
C41   C     C_R   0.232290 0.567577 0.524114 -0.080822
C42   C     C_R   0.764136 0.424501 0.503907 -0.188551
C43   C     C_R   0.726796 0.498116 0.496187 -0.165316
C44   C     C_R   0.273197 0.498082 0.503753 -0.165297
Cu1   Cu    Cu3+1 0.500000 0.580420 0.500000 1.160703
Cu2   Cu    Cu3+1 0.500000 0.419580 0.500000 1.160971
H1    H     H_    0.552748 0.224763 0.080395 0.239113
H2    H     H_    0.451192 0.777433 0.913550 0.186123
H3    H     H_    0.447352 0.224764 0.919334 0.243508
H4    H     H_    0.548983 0.777433 0.086544 0.188169
H5    H     H_    0.738669 0.624274 0.462509 0.265419
H6    H     H_    0.267581 0.370125 0.487365 0.273152
H7    H     H_    0.261395 0.624192 0.537930 0.265606
H8    H     H_    0.732329 0.370135 0.511979 0.273480
N1    N     N_R   0.500000 0.701220 0.500000 -0.304864
N2    N     N_R   0.500000 0.298780 0.500000 -0.284922
O1    O     O_R   0.391260 0.567930 0.500000 -0.537884
O2    O     O_R   0.608740 0.432070 0.500000 -0.526552
O3    O     O_R   0.608740 0.567930 0.500000 -0.537399
O4    O     O_R   0.391260 0.432070 0.500000 -0.526717
O5    O     O_R   0.500000 0.567910 0.319660 -0.538865
O6    O     O_R   0.500000 0.432090 0.680340 -0.541447
O7    O     O_R   0.500000 0.567910 0.680340 -0.538554
O8    O     O_R   0.500000 0.432090 0.319660 -0.541668
S1    S     S_3+6 0.635171 0.656765 0.206368 0.048498
O9    O     O_2   0.620038 0.702579 0.321536 -0.318056
O10   O     O_2   0.666944 0.576491 0.242972 -0.259703
O11   O     O_3   0.699113 0.707256 0.131055 -0.446228
H9    H     H_    0.690151 0.764781 0.148013 0.369474
S2    S     S_3+6 0.361427 0.343471 0.796798 0.050359
O12   O     O_2   0.378881 0.316761 0.669176 -0.286406
O13   O     O_2   0.313684 0.279756 0.849818 -0.206253
O14   O     O_3   0.312150 0.428950 0.787249 -0.496356
H10   H     H_    0.259026 0.412519 0.767164 0.393584
S3    S     S_3+6 0.364894 0.656754 0.793881 0.045221
O15   O     O_2   0.379879 0.702829 0.678881 -0.326468
O16   O     O_2   0.333218 0.576474 0.756973 -0.258777
O17   O     O_3   0.300945 0.706950 0.869553 -0.444613
H11   H     H_    0.309871 0.764532 0.852943 0.367038
S4    S     S_3+6 0.638585 0.343474 0.203199 0.046096
O18   O     O_2   0.621089 0.316769 0.330801 -0.291171
O19   O     O_2   0.686326 0.279761 0.150219 -0.213170
O20   O     O_3   0.687884 0.428960 0.212780 -0.495434
H12   H     H_    0.741030 0.412530 0.232518 0.393827
S5    S     S_3+6 0.889449 0.653139 0.420754 0.119632
O21   O     O_2   0.920908 0.697461 0.535923 -0.172563
O22   O     O_2   0.951276 0.633329 0.339842 -0.227859
O23   O     O_3   0.825924 0.712197 0.339334 -0.434352
H13   H     H_    0.853710 0.761937 0.322399 0.404114
S6    S     S_3+6 0.119369 0.321987 0.498671 0.088837
O24   O     O_2   0.062324 0.316605 0.592454 -0.191603
O25   O     O_2   0.083227 0.305319 0.369051 -0.206013
O26   O     O_3   0.186806 0.253049 0.535339 -0.456011
H14   H     H_    0.160889 0.200539 0.524567 0.412708
S7    S     S_3+6 0.110644 0.652976 0.579873 0.121055
O27   O     O_2   0.079231 0.697516 0.464904 -0.170497
O28   O     O_2   0.048792 0.633020 0.660671 -0.228234
O29   O     O_3   0.174200 0.711875 0.661594 -0.433327
H15   H     H_    0.146435 0.761564 0.678822 0.405777
S8    S     S_3+6 0.880510 0.322006 0.500708 0.086478
O30   O     O_2   0.937539 0.316712 0.406889 -0.191626
O31   O     O_2   0.916656 0.305205 0.630274 -0.206665
O32   O     O_3   0.813024 0.253109 0.463894 -0.464953
H16   H     H_    0.838893 0.200582 0.474618 0.405359
S9    S     S_3+6 0.655698 0.879751 0.521438 0.118095
O33   O     O_2   0.688337 0.897292 0.652949 -0.177161
O34   O     O_2   0.709051 0.827050 0.458187 -0.177679
O35   O     O_3   0.647478 0.966484 0.440800 -0.542331
H17   H     H_    0.696459 0.994050 0.459431 0.401548
S10   S     S_3+6 0.420423 0.110038 0.265711 0.130829
O36   O     O_2   0.336618 0.121664 0.250325 -0.097584
O37   O     O_2   0.452453 0.138446 0.149092 -0.281174
O38   O     O_3   0.434541 0.010221 0.270103 -0.481291
H18   H     H_    0.482531 0.001301 0.232492 0.361965
S11   S     S_3+6 0.343972 0.879355 0.480001 0.149596
O39   O     O_2   0.311783 0.898405 0.348841 -0.098165
O40   O     O_2   0.289858 0.826187 0.540772 -0.186530
O41   O     O_3   0.351541 0.965496 0.562211 -0.481358
H19   H     H_    0.366763 0.948836 0.649648 0.354570
S12   S     S_3+6 0.580220 0.110169 0.733892 0.100926
O42   O     O_2   0.663939 0.122676 0.750018 -0.154351
O43   O     O_2   0.546847 0.137771 0.849689 -0.267965
O44   O     O_3   0.566403 0.010402 0.728521 -0.531799
H20   H     H_    0.590900 0.989611 0.808824 0.404819
S13   S     S_3+6 0.630913 0.711331 0.673859 0.092723
O45   O     O_2   0.621978 0.628183 0.722483 -0.276313
O46   O     O_2   0.708811 0.717384 0.632807 -0.207648
O47   O     O_3   0.625558 0.774407 0.795308 -0.525387
H21   H     H_    0.666718 0.757744 0.858455 0.403193
S14   S     S_3+6 0.379669 0.297620 0.301232 0.092240
O48   O     O_2   0.370197 0.386444 0.290180 -0.287944
O49   O     O_2   0.384379 0.269850 0.169526 -0.234807
O50   O     O_3   0.299408 0.260862 0.349051 -0.465219
H22   H     H_    0.259485 0.276230 0.282847 0.405836
S15   S     S_3+6 0.369088 0.711399 0.326178 0.094753
O51   O     O_2   0.378311 0.628453 0.276968 -0.278189
O52   O     O_2   0.291132 0.716924 0.367079 -0.210496
O53   O     O_3   0.374295 0.774926 0.205257 -0.510321
H23   H     H_    0.333387 0.758108 0.141746 0.403577
S16   S     S_3+6 0.620341 0.297835 0.698801 0.091646
O54   O     O_2   0.629689 0.386671 0.710108 -0.287099
O55   O     O_2   0.615476 0.269829 0.830371 -0.233102
O56   O     O_3   0.700745 0.261396 0.651107 -0.470687
H24   H     H_    0.740589 0.276900 0.717373 0.406236

loop_
_geom_bond_atom_site_label_1
_geom_bond_atom_site_label_2
_ccdc_geom_bond_type
C27   H2    S    
S15   O53   S    
C14   N2    A    
C4    C36   A    
C28   H1    S    
O26   H14   S    
O44   H20   S    
O14   H10   S    
C39   H5    S    
S7    O27   D    
S16   O56   S    
O47   H21   S    
S7    O29   S    
S15   O51   D    
S5    O21   D    
C7    C11   A    
C21   C31   A    
Cu1   O1    S    
C12   S14   S    
Cu2   O6    S    
C23   C29   A    
C40   H6    S    
C11   S13   S    
S16   O55   D    
C38   C42   A    
C8    S10   S    
C5    C6    T    
S11   O39   D    
C29   C33   A    
O35   H17   S    
C37   S7    S    
C15   C17   S    
C9    C13   A    
C25   H4    S    
O41   H19   S    
C24   S4    S    
C3    C38   A    
O11   H9    S    
S1    O10   D    
S13   O47   S    
C7    S9    S    
S2    O12   D    
C23   C27   A    
C2    C43   S    
S12   O44   S    
C21   S1    S    
S1    O11   S    
C7    C15   A    
C8    C16   A    
Cu2   O2    S    
C37   C41   A    
C13   S15   S    
S4    O20   S    
S12   O43   D    
C24   C30   A    
S5    O22   D    
S9    O35   S    
C30   C34   A    
C9    S11   S    
C36   C40   A    
S16   O54   D    
C38   S8    S    
C10   C14   A    
C1    O4    A    
O17   H11   S    
C39   C43   A    
S11   O40   D    
Cu1   Cu2   S    
Cu1   O7    S    
S8    O32   S    
S10   O36   D    
Cu2   O8    S    
S14   O49   D    
S3    O15   D    
C1    O1    A    
S9    O34   D    
C1    C44   S    
S6    O25   D    
O20   H12   S    
C3    C35   A    
C19   O8    A    
C8    C12   A    
S11   O41   S    
S2    O14   S    
S8    O31   D    
C17   C18   T    
C31   C34   A    
O23   H13   S    
S3    O16   D    
S10   O38   S    
C41   H7    S    
C12   N2    A    
C22   C32   A    
C20   C33   S    
C4    C6    S    
C14   S16   S    
O29   H15   S    
O50   H22   S    
C41   C44   A    
C26   H3    S    
S14   O50   S    
C42   C43   A    
C11   N1    A    
S12   O42   D    
S6    O26   S    
O38   H18   S    
S5    O23   S    
C36   S6    S    
S15   O52   D    
C21   C25   A    
Cu1   O3    S    
Cu2   O4    S    
C2    O3    A    
C24   C28   A    
C23   S3    S    
S4    O18   D    
C3    C5    S    
C19   C34   S    
S7    O28   D    
C25   C27   A    
S9    O33   D    
C26   C28   A    
C32   C33   A    
C20   O7    A    
S14   O48   D    
C9    C15   A    
C29   C31   A    
C10   C16   A    
C42   H8    S    
C30   C32   A    
C35   S5    S    
S6    O24   D    
S13   O45   D    
C19   O5    A    
C35   C39   A    
Cu1   O5    S    
S8    O30   D    
S4    O19   D    
C20   O6    A    
C2    O2    A    
S3    O17   S    
S10   O37   D    
C10   S12   S    
O53   H23   S    
C40   C44   A    
C4    C37   A    
Cu1   N1    S    
C16   C18   S    
S1    O9    D    
C22   C26   A    
Cu2   N2    S    
O32   H16   S    
S13   O46   D    
S2    O13   D    
C22   S2    S    
O56   H24   S    
C13   N1    A    
