data_mof_unit_30443.cif
_audit_creation_date              2012-12-10T20:43:24-0500
_audit_creation_method            fapswitch 2.2
_symmetry_space_group_name_H-M    P1
_symmetry_Int_Tables_number       1
_space_group_crystal_system       triclinic
_cell_length_a                    15.809587
_cell_length_b                    10.658834
_cell_length_c                    9.912471
_cell_angle_alpha                 88.918754
_cell_angle_beta                  90.757275
_cell_angle_gamma                 90.973902
_cell_volume                      1669.69034596

loop_
_atom_site_label
_atom_site_type_symbol
_atom_type_description
_atom_site_fract_x
_atom_site_fract_y
_atom_site_fract_z
_atom_type_partial_charge
C1    C     C_R   0.503382 0.260544 0.501089 0.873938
C2    C     C_R   0.555521 0.935828 0.408038 -0.237590
C3    C     C_R   0.499795 0.870937 0.493412 -0.142600
C4    C     C_R   0.339481 0.500176 0.499184 0.900100
C5    C     C_R   0.443147 0.933640 0.571778 0.044381
C6    C     C_3   0.427153 0.918963 0.719362 -0.012854
C7    C     C_3   0.429969 0.061331 0.723371 -0.503358
C8    C     C_R   0.429761 0.462373 0.070527 0.172112
C9    C     C_R   0.564275 0.553792 0.074061 -0.152503
C10   C     C_R   0.564175 0.557202 0.930619 0.174853
C11   C     C_R   0.429643 0.462083 0.928498 0.187882
C12   C     C_R   0.045967 0.538686 0.608336 -0.216836
C13   C     C_3   0.385582 0.336624 0.927829 -0.089765
C14   C     C_3   0.384764 0.339078 0.081664 -0.507477
C15   C     C_R   0.500547 0.739347 0.498585 0.877736
C16   C     C_R   0.660547 0.500215 0.500756 0.885081
C17   C     C_R   0.958631 0.538027 0.611297 -0.189867
C18   C     C_R   0.912922 0.502818 0.496910 0.120430
C19   C     C_R   0.953039 0.468922 0.378717 -0.184043
C20   C     C_R   0.041579 0.468825 0.373765 0.171940
C21   C     C_R   0.086915 0.503701 0.491265 0.103811
C22   C     C_3   0.635027 0.632203 0.866197 -0.359000
C23   C     C_1   0.824010 0.501728 0.500452 -0.073666
C24   C     C_3   0.718010 0.560559 0.871829 -0.848501
C25   C     C_3   0.296977 0.333637 0.860065 -0.333474
C26   C     C_3   0.243834 0.450639 0.880559 -0.840213
C27   C     C_3   0.089257 0.432652 0.247793 -0.401746
C28   C     C_3   0.034499 0.398359 0.125110 -0.911167
C29   C     C_3   0.633548 0.131445 0.338420 -0.390214
C30   C     C_3   0.616340 0.137190 0.186617 -0.828751
C31   C     C_3   0.340359 0.857910 0.748314 -0.355904
C32   C     C_3   0.324428 0.849213 0.899668 -0.884132
C33   C     C_1   0.176115 0.502953 0.494673 -0.091891
C34   C     C_1   0.251043 0.501691 0.497141 -0.200916
C35   C     C_1   0.749055 0.500886 0.501837 -0.194817
C36   C     C_R   0.446028 0.061832 0.574768 0.041259
C37   C     C_R   0.507210 0.128199 0.501512 -0.130920
C38   C     C_R   0.561818 0.065887 0.413501 0.150431
H1    H     H_    0.081657 0.566208 0.697380 0.148430
H2    H     H_    0.740973 0.550715 0.977821 0.238424
H3    H     H_    0.619406 0.663013 0.762756 0.252999
H4    H     H_    0.644433 0.721355 0.921414 0.160058
H5    H     H_    0.233871 0.467363 0.989235 0.248413
H6    H     H_    0.274630 0.534816 0.833788 0.269582
H7    H     H_    0.180990 0.436756 0.831473 0.236123
H8    H     H_    0.304559 0.320557 0.750117 0.215994
H9    H     H_    0.261452 0.250049 0.899161 0.195329
H10   H     H_    0.321260 0.347546 0.126896 0.207383
H11   H     H_    0.926786 0.564612 0.702371 0.143288
H12   H     H_    0.427531 0.263084 0.890874 0.143054
H13   H     H_    0.914467 0.442818 0.292404 0.152885
H14   H     H_    0.993557 0.315299 0.148576 0.261670
H15   H     H_    0.995130 0.479048 0.092507 0.259947
H16   H     H_    0.075959 0.374336 0.040145 0.258255
H17   H     H_    0.131584 0.512362 0.217524 0.210430
H18   H     H_    0.129766 0.351135 0.273404 0.210224
H19   H     H_    0.607338 0.041353 0.146161 0.243677
H20   H     H_    0.559157 0.192741 0.164098 0.266189
H21   H     H_    0.670882 0.183225 0.135093 0.240959
H22   H     H_    0.645854 0.227811 0.375098 0.208591
H23   H     H_    0.424005 0.265244 0.130127 0.190686
H24   H     H_    0.693016 0.079540 0.357940 0.190769
H25   H     H_    0.598627 0.884803 0.345788 0.155633
H26   H     H_    0.373851 0.791847 0.950780 0.258040
H27   H     H_    0.324796 0.944375 0.943501 0.264556
H28   H     H_    0.261774 0.803785 0.917798 0.248395
H29   H     H_    0.288749 0.911565 0.697803 0.208419
H30   H     H_    0.338783 0.761387 0.707671 0.219111
H31   H     H_    0.480673 0.874415 0.775317 0.171631
H32   H     H_    0.368416 0.104256 0.746410 0.193759
H33   H     H_    0.485260 0.097640 0.782075 0.187406
H34   H     H_    0.616049 0.596194 0.130482 0.160137
H35   H     H_    0.709521 0.465412 0.829530 0.278127
H36   H     H_    0.766794 0.612839 0.812774 0.241213
N1    N     N_R   0.499440 0.499140 0.142800 -0.122401
N2    N     N_R   0.499440 0.499180 0.857150 -0.145997
O1    O     O_R   0.500010 0.316790 0.614690 -0.620296
O2    O     O_R   0.500000 0.316760 0.385350 -0.609028
O3    O     O_R   0.378030 0.499990 0.614640 -0.617383
O4    O     O_R   0.378020 0.499950 0.385300 -0.606431
O5    O     O_R   0.500000 0.683240 0.614650 -0.652365
O6    O     O_R   0.499990 0.683210 0.385310 -0.610515
O7    O     O_R   0.621980 0.500050 0.614700 -0.616295
O8    O     O_R   0.621970 0.500010 0.385360 -0.621516
Zn1   Zn    Zn3+2 0.500010 0.500020 0.653130 0.921365
Zn2   Zn    Zn3+2 0.499990 0.499980 0.346870 0.939329

loop_
_geom_bond_atom_site_label_1
_geom_bond_atom_site_label_2
_ccdc_geom_bond_type
C6    H31   S    
C30   H19   S    
C1    O1    A    
C7    C36   S    
C25   H8    S    
C19   C20   A    
C9    H34   S    
C16   O8    A    
C7    H32   S    
C26   H6    S    
C15   O5    A    
C10   C22   S    
C31   H29   S    
C29   C30   S    
C36   C37   A    
O8    Zn2   S    
C4    O4    A    
C11   N2    A    
C16   C35   S    
C7    H33   S    
C5    C6    S    
C27   H17   S    
C24   H35   S    
C22   H3    S    
C21   C33   S    
C5    C36   A    
C11   C13   S    
C18   C19   A    
O4    Zn2   S    
C26   H7    S    
C10   N2    A    
C29   C38   S    
C9    C10   A    
C25   H9    S    
C1    C37   S    
O2    Zn2   S    
C6    C31   S    
O1    Zn1   S    
C13   C14   S    
C1    O2    A    
C13   C25   S    
C26   H5    S    
C17   C18   A    
C15   O6    A    
C31   H30   S    
C4    C34   S    
C18   C23   S    
C32   H26   S    
C4    O3    A    
C17   H11   S    
C28   H16   S    
C27   H18   S    
C14   H10   S    
C25   C26   S    
O6    Zn2   S    
C14   H23   S    
C12   C21   A    
C8    N1    A    
C12   C17   A    
C37   C38   A    
C2    C38   A    
N1    Zn2   S    
C31   C32   S    
C29   H22   S    
C30   H21   S    
C33   C34   T    
O7    Zn1   S    
C23   C35   T    
C22   C24   S    
O3    Zn1   S    
C3    C15   S    
C2    H25   S    
C32   H28   S    
C29   H24   S    
C8    C14   S    
C3    C5    A    
C28   H15   S    
C6    C7    S    
C20   C27   S    
C12   H1    S    
C2    C3    A    
C28   H14   S    
C24   H36   S    
C22   H4    S    
C8    C11   A    
C30   H20   S    
C24   H2    S    
C16   O7    A    
C13   H12   S    
C19   H13   S    
C20   C21   A    
C27   C28   S    
C9    N1    A    
N2    Zn1   S    
O5    Zn1   S    
C32   H27   S    
