data_mof_unit_43563.cif
_audit_creation_date              2012-12-10T16:50:06-0500
_audit_creation_method            fapswitch 2.2
_symmetry_space_group_name_H-M    P1
_symmetry_Int_Tables_number       1
_space_group_crystal_system       triclinic
_cell_length_a                    7.787294
_cell_length_b                    8.566153
_cell_length_c                    10.601365
_cell_angle_alpha                 90.967603
_cell_angle_beta                  85.694525
_cell_angle_gamma                 93.749937
_cell_volume                      703.630363154

loop_
_atom_site_label
_atom_site_type_symbol
_atom_type_description
_atom_site_fract_x
_atom_site_fract_y
_atom_site_fract_z
_atom_type_partial_charge
C1    C     C_R   0.545804 0.794678 0.496823 0.931595
C2    C     C_R   0.454206 0.205311 0.503259 0.962363
C3    C     C_R   0.498750 0.502696 0.260698 0.858698
C4    C     C_R   0.423722 0.788799 0.876486 -0.179061
C5    C     C_R   0.381240 0.922085 0.946401 -0.135985
C6    C     C_R   0.375998 0.920614 0.077918 -0.137279
C7    C     C_R   0.413178 0.785849 0.139929 -0.175986
C8    C     C_R   0.455563 0.649432 0.070371 0.094755
C9    C     C_R   0.460996 0.650979 0.938039 0.094217
C10   C     C_R   0.507857 0.514588 0.871258 -0.087464
C11   C     C_R   0.554272 0.382166 0.930905 -0.209031
C12   C     C_R   0.549020 0.380628 0.059954 -0.213556
C13   C     C_R   0.497578 0.511563 0.128522 -0.086925
C14   C     C_2   0.569796 0.958277 0.494957 -0.383826
C15   C     C_2   0.430189 0.041684 0.505140 -0.401423
C16   C     C_R   0.502506 0.504076 0.739217 0.859527
H1    H     H_    0.590586 0.278832 0.877394 0.149487
H2    H     H_    0.013298 0.382032 0.405409 0.193708
H3    H     H_    0.986718 0.617991 0.594582 0.194715
H4    H     H_    0.429465 0.795530 0.774482 0.142044
H5    H     H_    0.353491 0.027069 0.898370 0.139176
H6    H     H_    0.344134 0.024453 0.132040 0.135941
H7    H     H_    0.410139 0.790342 0.241994 0.149466
H8    H     H_    0.583253 0.276644 0.106812 0.148749
H9    H     H_    0.701575 0.009522 0.485209 0.185627
H10   H     H_    0.298411 0.990418 0.514876 0.183426
N1    N     N_2   0.950330 0.457950 0.466250 -0.171257
N2    N     N_2   0.049670 0.542050 0.533750 -0.170952
O1    O     O_R   0.389250 0.738570 0.508280 -0.622705
O2    O     O_R   0.678390 0.711630 0.486650 -0.625061
O3    O     O_R   0.355400 0.513470 0.694050 -0.613787
O4    O     O_R   0.644540 0.486530 0.672420 -0.620465
O5    O     O_R   0.321610 0.288370 0.513350 -0.627071
O6    O     O_R   0.610750 0.261430 0.491720 -0.612325
O7    O     O_R   0.355460 0.513470 0.327580 -0.628037
O8    O     O_R   0.644600 0.486530 0.305950 -0.607663
Zn1   Zn    Zn3+2 0.306930 0.517990 0.514440 0.939799
Zn2   Zn    Zn3+2 0.693070 0.482010 0.485560 0.946567

loop_
_geom_bond_atom_site_label_1
_geom_bond_atom_site_label_2
_ccdc_geom_bond_type
C8    C9    A    
C11   C12   A    
C6    C7    A    
H3    N2    S    
O4    Zn2   S    
C16   O4    A    
C9    C10   A    
C12   H8    S    
C3    C13   S    
C3    O7    A    
C2    O6    A    
C1    O1    A    
C7    C8    A    
C10   C16   S    
C16   O3    A    
C2    C15   S    
C8    C13   A    
C3    O8    A    
C7    H7    S    
N2    Zn1   S    
C2    O5    A    
O8    Zn2   S    
C1    O2    A    
O7    Zn1   S    
C14   H9    S    
C5    C6    A    
C10   C11   A    
N1    Zn2   S    
C4    H4    S    
C5    H5    S    
C12   C13   A    
O2    Zn2   S    
O1    Zn1   S    
N1    N2    D    
C14   C15   D    
C11   H1    S    
C15   H10   S    
C1    C14   S    
C4    C9    A    
O6    Zn2   S    
O5    Zn1   S    
H2    N1    S    
O3    Zn1   S    
C4    C5    A    
C6    H6    S    
