data_mof_unit_49652.cif
_audit_creation_date              2013-03-05T15:54:38-0500
_audit_creation_method            fapswitch 2.2
_symmetry_space_group_name_H-M    P1
_symmetry_Int_Tables_number       1
_space_group_crystal_system       triclinic
_cell_length_a                    9.878193
_cell_length_b                    10.728469
_cell_length_c                    16.68548
_cell_angle_alpha                 91.741596
_cell_angle_beta                  85.006882
_cell_angle_gamma                 89.119612
_cell_volume                      1760.47974949

loop_
_atom_site_label
_atom_site_type_symbol
_atom_site_description
_atom_site_fract_x
_atom_site_fract_y
_atom_site_fract_z
_atom_type_partial_charge
O1    O     O_R   0.385310 0.683220 0.500000 -0.651023
O2    O     O_R   0.614640 0.683250 0.500010 -0.634246
C1    C     C_R   0.498485 0.740325 0.495638 0.874248
O3    O     O_R   0.371780 0.500010 0.615800 -0.640687
O4    O     O_R   0.601110 0.500030 0.615800 -0.637159
C2    C     C_R   0.481112 0.493578 0.653034 0.835490
Zn1   Zn    Zn3+2 0.346870 0.499980 0.499990 0.927010
Zn2   Zn    Zn3+2 0.653130 0.500020 0.500010 0.934625
O5    O     O_R   0.385360 0.316750 0.499990 -0.619946
O6    O     O_R   0.614690 0.316780 0.500000 -0.621212
O7    O     O_R   0.398890 0.499970 0.384200 -0.614299
O8    O     O_R   0.628220 0.499990 0.384200 -0.611153
C3    C     C_R   0.499294 0.261215 0.508350 0.887116
C4    C     C_R   0.519236 0.496844 0.346510 0.901183
C5    C     C_R   0.470497 0.451180 0.735221 -0.028753
C6    C     C_R   0.579527 0.382623 0.761325 -0.204428
C7    C     C_R   0.568314 0.331298 0.836574 -0.154630
C8    C     C_R   0.449372 0.351119 0.887724 0.181981
C9    C     C_R   0.337496 0.413532 0.860382 -0.149874
C10   C     C_R   0.347805 0.463279 0.784024 -0.205686
C11   C     C_R   0.425387 0.442607 0.136831 -0.179104
C12   C     C_R   0.418023 0.481935 0.216773 -0.185397
C13   C     C_R   0.655149 0.423580 0.222026 -0.255682
C14   C     C_R   0.663548 0.381232 0.141688 0.332381
C15   C     C_R   0.546694 0.390360 0.098881 0.057595
C16   C     C_2   0.449232 0.328313 0.973469 -0.238765
C17   C     C_2   0.556124 0.364657 0.011998 -0.121903
C18   C     C_R   0.532317 0.471841 0.259937 -0.105608
H1    H     H_    0.673204 0.367183 0.723247 0.163328
H2    H     H_    0.322535 0.519730 0.244894 0.171473
H3    H     H_    0.743111 0.413327 0.255937 0.192521
H4    H     H_    0.649338 0.392149 0.978213 0.176658
H5    H     H_    0.245137 0.429434 0.899594 0.146740
H6    H     H_    0.336520 0.456715 0.104329 0.163986
H7    H     H_    0.261332 0.512769 0.763706 0.155498
H8    H     H_    0.354073 0.304824 0.006715 0.170822
H9    H     H_    0.654507 0.280483 0.856146 0.155615
H10   H     H_    0.713566 0.885551 0.481797 0.172850
C19   C     C_R   0.238256 0.894198 0.491705 -0.161051
H11   H     H_    0.226160 0.809565 0.456717 0.174244
C20   C     C_R   0.118856 0.958483 0.519875 -0.142470
H12   H     H_    0.020977 0.919027 0.510585 0.146899
C21   C     C_R   0.125777 0.071831 0.561607 -0.154248
H13   H     H_    0.033589 0.119466 0.586691 0.139601
C22   C     C_R   0.251538 0.126528 0.567741 -0.147942
H14   H     H_    0.253350 0.215199 0.600288 0.161079
C23   C     C_R   0.372323 0.067205 0.532244 0.099524
C24   C     C_R   0.367548 0.942848 0.505406 0.096143
C25   C     C_R   0.492890 0.874463 0.493519 -0.123300
C26   C     C_R   0.617099 0.935512 0.492044 -0.213008
H15   H     H_    0.716123 0.108325 0.494173 0.170147
C27   C     C_R   0.619093 0.062428 0.501944 -0.211915
C28   C     C_R   0.497288 0.129050 0.519353 -0.128517
H16   H     H_    0.889990 0.360280 0.409099 0.152249
C29   C     C_R   0.842011 0.663452 0.606400 -0.164396
H17   H     H_    0.734208 0.670686 0.609872 0.208949
C30   C     C_R   0.903844 0.742597 0.659210 -0.204635
H18   H     H_    0.842568 0.805589 0.699917 0.158158
C31   C     C_R   0.043844 0.741237 0.659666 -0.184730
H19   H     H_    0.091825 0.803422 0.700506 0.160022
C32   C     C_R   0.122829 0.661359 0.606904 -0.170988
H20   H     H_    0.229701 0.667376 0.609733 0.209623
C33   C     C_R   0.063620 0.579845 0.552638 0.149612
C34   C     C_R   0.918828 0.580291 0.552486 0.167026
N1    N     N_R   0.857140 0.501200 0.500750 -0.122663
C35   C     C_R   0.937033 0.423050 0.449927 -0.120194
H21   H     H_    0.141529 0.360393 0.409076 0.161928
C36   C     C_R   0.080386 0.423152 0.449904 -0.108379
N2    N     N_R   0.142740 0.501280 0.500770 -0.127725
N3    N     N_R   0.789574 0.327121 0.105521 0.194144
O9    O     O_R   0.789570 0.234502 0.053287 -0.396684
O10   O     O_R   0.904491 0.360225 0.131647 -0.408068

loop_
_geom_bond_atom_site_label_1
_geom_bond_atom_site_label_2
_geom_bond_distance
_ccdc_geom_bond_type
Zn1   N2    2.015175 S    
O4    Zn2   1.955476 S    
C35   C36   1.416055 A    
C13   C14   1.397363 A    
N3    O9    1.301660 A    
H10   C26   1.083951 S    
C7    H9    1.083400 S    
C15   C17   1.462088 S    
C21   C22   1.392485 A    
C20   H12   1.082919 S    
C26   C27   1.367257 A    
C23   C24   1.397151 A    
C8    C16   1.458657 S    
C23   C28   1.413483 A    
Zn2   O8    1.969071 S    
C34   N1    1.378199 A    
C25   C26   1.398372 A    
C29   H17   1.062933 S    
C29   C30   1.390922 A    
C7    C8    1.400289 A    
C1    C25   1.440932 S    
C33   N2    1.374029 A    
C14   N3    1.441081 S    
C31   H19   1.082771 S    
C19   C20   1.395169 A    
C36   N2    1.365979 A    
C12   C18   1.395590 A    
C11   C12   1.382191 A    
C29   C34   1.411602 A    
Zn1   O7    1.955476 S    
C20   C21   1.388411 A    
C30   H18   1.082778 S    
C32   H20   1.063711 S    
O3    Zn1   1.969071 S    
H16   C35   1.081839 S    
O1    C1    1.280657 A    
C16   H8    1.086201 S    
C24   C25   1.425173 A    
O8    C4    1.293556 A    
N3    O10   1.301503 A    
O2    C1    1.300957 A    
C3    C28   1.435503 S    
C22   C23   1.417805 A    
C21   H13   1.082585 S    
C16   C17   1.340085 D    
O4    C2    1.293367 A    
Zn2   O6    2.007939 S    
O7    C4    1.295078 A    
C30   C31   1.383490 A    
C31   C32   1.390045 A    
C5    C6    1.402652 A    
C17   H4    1.086606 S    
H21   C36   1.081770 S    
C22   H14   1.082142 S    
Zn2   N1    2.016593 S    
H15   C27   1.083842 S    
C14   C15   1.412974 A    
C6    H1    1.083492 S    
O3    C2    1.293926 A    
N1    C35   1.365598 A    
C9    H5    1.083542 S    
C19   H11   1.078317 S    
Zn1   O5    1.996466 S    
C11   C15   1.405984 A    
C8    C9    1.400500 A    
O1    Zn1   2.007939 S    
O5    C3    1.285644 A    
C11   H6    1.082313 S    
C12   H2    1.083482 S    
C4    C18   1.455381 S    
C2    C5    1.453553 S    
C13   C18   1.402723 A    
C10   H7    1.083473 S    
C5    C10   1.402063 A    
C32   C33   1.409428 A    
O2    Zn2   1.996464 S    
C9    C10   1.392437 A    
C6    C7    1.382612 A    
C27   C28   1.393944 A    
C33   C34   1.430440 A    
C19   C24   1.421234 A    
O6    C3    1.293229 A    
C13   H3    1.083370 S    
