data_mof_unit_53784.cif
_audit_creation_date              2012-12-10T17:42:09-0500
_audit_creation_method            fapswitch 2.2
_symmetry_space_group_name_H-M    P1
_symmetry_Int_Tables_number       1
_space_group_crystal_system       triclinic
_cell_length_a                    15.043292
_cell_length_b                    13.707655
_cell_length_c                    10.750072
_cell_angle_alpha                 90.238532
_cell_angle_beta                  90.247801
_cell_angle_gamma                 89.851261
_cell_volume                      2216.70629876

loop_
_atom_site_label
_atom_site_type_symbol
_atom_type_description
_atom_site_fract_x
_atom_site_fract_y
_atom_site_fract_z
_atom_type_partial_charge
C1    C     C_R   0.328651 0.500205 0.501664 0.797710
C2    C     C_3   0.585201 0.528823 0.922038 -0.453472
C3    C     C_R   0.814322 0.579728 0.455656 -0.247091
C4    C     C_R   0.768094 0.499614 0.501950 -0.075032
C5    C     C_R   0.813910 0.419649 0.551589 -0.251842
C6    C     C_R   0.907077 0.418739 0.557052 0.084160
C7    C     C_R   0.953441 0.499791 0.507897 0.028608
C8    C     C_R   0.906712 0.580254 0.457474 0.123255
C9    C     C_R   0.955364 0.339543 0.609595 0.131296
C10   C     C_R   0.048547 0.341859 0.608557 -0.210442
C11   C     C_R   0.094053 0.421034 0.558057 0.071802
C12   C     C_R   0.500199 0.499807 0.259771 0.771369
C13   C     C_R   0.046650 0.500741 0.508564 0.047921
C14   C     C_R   0.092643 0.581502 0.459205 0.116652
C15   C     C_R   0.045480 0.660809 0.410324 -0.174638
C16   C     C_R   0.952986 0.660162 0.409408 -0.207005
C17   C     C_R   0.186707 0.421742 0.556326 -0.192053
C18   C     C_R   0.232094 0.500968 0.505400 -0.092868
C19   C     C_R   0.185210 0.581230 0.458598 -0.215048
C20   C     C_R   0.432778 0.793093 0.557832 0.112414
C21   C     C_R   0.430162 0.207564 0.551611 0.105408
C22   C     C_R   0.566724 0.793495 0.442781 -0.004817
C23   C     C_R   0.567506 0.205760 0.444520 -0.002313
C24   C     C_R   0.567516 0.896305 0.441608 0.049168
C25   C     C_R   0.568141 0.102896 0.442966 0.045847
C26   C     C_R   0.671388 0.499880 0.500051 0.808199
C27   C     C_R   0.497661 0.948255 0.499091 0.027117
C28   C     C_R   0.497457 0.051742 0.498466 0.028510
C29   C     C_R   0.429624 0.896716 0.559849 -0.174130
C30   C     C_R   0.425708 0.104132 0.549964 -0.181019
C31   C     C_R   0.636787 0.948021 0.384904 -0.198565
C32   C     C_R   0.637390 0.050350 0.386275 -0.202285
C33   C     C_R   0.352401 0.052000 0.598871 0.320807
C34   C     C_R   0.360237 0.949777 0.618902 0.298252
C35   C     C_R   0.493064 0.499895 0.739596 0.754059
C36   C     C_3   0.422632 0.566990 0.074509 -0.373207
C37   C     C_3   0.472133 0.395466 0.074446 -0.414556
C38   C     C_3   0.424020 0.577078 0.931153 -0.006949
C39   C     C_3   0.468781 0.393359 0.930396 0.008611
C40   C     C_3   0.595113 0.526216 0.066947 0.312340
C41   C     C_3   0.499610 0.499047 0.121743 0.027283
C42   C     C_3   0.489804 0.498910 0.877580 -0.003263
Cu1   Cu    Cu3+1 0.499990 0.597420 0.500010 0.934561
Cu2   Cu    Cu3+1 0.499990 0.402580 0.500010 0.930855
H1    H     H_    0.422980 0.640062 0.117853 0.178325
H2    H     H_    0.516869 0.336872 0.108798 0.155913
H3    H     H_    0.085977 0.281693 0.648072 0.194353
H4    H     H_    0.223648 0.361211 0.595660 0.195303
H5    H     H_    0.220759 0.642655 0.419708 0.160636
H6    H     H_    0.080143 0.723102 0.372365 0.162037
H7    H     H_    0.917572 0.722057 0.370784 0.145415
H8    H     H_    0.380683 0.750633 0.599609 0.190827
H9    H     H_    0.378987 0.249975 0.596628 0.175472
H10   H     H_    0.619465 0.753031 0.397681 0.127388
H11   H     H_    0.621006 0.245639 0.401180 0.125324
H12   H     H_    0.690903 0.909278 0.340264 0.132351
H13   H     H_    0.691941 0.088432 0.342609 0.134933
H14   H     H_    0.358339 0.535225 0.104627 0.168251
H15   H     H_    0.408246 0.376742 0.118445 0.202386
H16   H     H_    0.452142 0.649969 0.910329 0.186797
H17   H     H_    0.526679 0.347524 0.902117 0.132731
H18   H     H_    0.601716 0.602466 0.885893 0.180121
H19   H     H_    0.634350 0.479566 0.876514 0.160382
H20   H     H_    0.778299 0.641181 0.416698 0.136656
H21   H     H_    0.775709 0.359317 0.587135 0.163501
N1    N     N_R   0.499930 0.743810 0.499950 -0.204186
N2    N     N_R   0.499930 0.256190 0.499950 -0.199402
O1    O     O_R   0.370250 0.582280 0.500040 -0.598075
O2    O     O_R   0.370250 0.417720 0.500040 -0.582338
O3    O     O_R   0.499970 0.582270 0.317700 -0.582863
O4    O     O_R   0.499970 0.417730 0.317700 -0.587306
O5    O     O_R   0.629730 0.582260 0.499980 -0.586197
O6    O     O_R   0.629730 0.417740 0.499980 -0.593851
O7    O     O_R   0.500000 0.582270 0.682320 -0.578909
O8    O     O_R   0.500000 0.417730 0.682320 -0.598634
S1    S     S_3+6 0.247207 0.111087 0.612264 -0.008802
O9    O     O_2   0.243926 0.166667 0.732763 -0.354561
O10   O     O_2   0.235092 0.180920 0.506035 -0.335264
O11   O     O_3   0.163327 0.030285 0.607010 -0.432984
H22   H     H_    0.108918 0.069521 0.621431 0.361891
S2    S     S_3+6 0.294084 0.891083 0.733166 0.022802
O12   O     O_2   0.223764 0.830781 0.669900 -0.248172
O13   O     O_2   0.352736 0.825092 0.808961 -0.376534
O14   O     O_3   0.245352 0.970877 0.830749 -0.425256
H23   H     H_    0.294980 0.000391 0.878538 0.349729
C43   C     C_3   0.330337 0.580616 0.869074 -0.410201
C44   C     C_3   0.263779 0.645959 0.937958 -0.694877
H24   H     H_    0.233735 0.606035 0.016885 0.210507
H25   H     H_    0.296207 0.712791 0.974542 0.286496
H26   H     H_    0.209223 0.667451 0.873655 0.273733
H27   H     H_    0.337453 0.609666 0.773278 0.227905
H28   H     H_    0.300279 0.508147 0.858917 0.211724
C45   C     C_3   0.386091 0.338607 0.872892 -0.340763
C46   C     C_3   0.303524 0.325590 0.954778 -0.792617
H29   H     H_    0.315244 0.267193 0.024322 0.256203
H30   H     H_    0.284523 0.393971 0.003220 0.235267
H31   H     H_    0.246139 0.303354 0.896210 0.276506
H32   H     H_    0.363724 0.373441 0.785423 0.195151
H33   H     H_    0.407668 0.264061 0.844669 0.207761
C47   C     C_3   0.635855 0.624871 0.118501 -0.345276
C48   C     C_3   0.583429 0.720323 0.106717 -0.861938
H34   H     H_    0.554884 0.730126 0.012861 0.253665
H35   H     H_    0.532225 0.727195 0.179606 0.266213
H36   H     H_    0.629581 0.782297 0.122859 0.232329
H37   H     H_    0.654532 0.615952 0.218000 0.196424
H38   H     H_    0.698793 0.639077 0.068162 0.213790
C49   C     C_3   0.664256 0.443021 0.101855 -0.438236
C50   C     C_3   0.762467 0.463930 0.073619 -0.870384
H39   H     H_    0.771008 0.492658 0.978089 0.254240
H40   H     H_    0.790573 0.516316 0.142255 0.250356
H41   H     H_    0.801447 0.395272 0.081453 0.254539
H42   H     H_    0.660004 0.425905 0.202566 0.200056
H43   H     H_    0.648834 0.374877 0.050287 0.202194
C51   C     C_3   0.910672 0.252256 0.668655 -0.394278
C52   C     C_3   0.875665 0.277372 0.798181 -0.815635
H44   H     H_    0.931481 0.299737 0.859922 0.260269
H45   H     H_    0.826182 0.337471 0.794438 0.245327
H46   H     H_    0.843269 0.212254 0.838853 0.243744
H47   H     H_    0.856418 0.224133 0.608194 0.194187
H48   H     H_    0.958562 0.190796 0.678566 0.209819

loop_
_geom_bond_atom_site_label_1
_geom_bond_atom_site_label_2
_ccdc_geom_bond_type
C44   H24   S    
C35   O7    A    
C45   C46   S    
C27   C29   A    
C26   O5    A    
C49   H42   S    
C17   H4    S    
C26   O6    A    
C6    C9    A    
S2    O12   D    
C7    C8    A    
C22   H10   S    
C3    H20   S    
C25   C28   A    
C35   O8    A    
C47   H37   S    
C48   H34   S    
C38   C43   S    
C9    C51   S    
C20   N1    A    
S1    O10   D    
C38   C42   S    
C36   H14   S    
C43   H27   S    
C5    C6    A    
C52   H44   S    
C1    O1    A    
C50   H39   S    
Cu2   O4    S    
C18   C19   A    
C15   H6    S    
C23   N2    A    
C35   C42   S    
C49   H43   S    
C22   N1    A    
Cu1   O1    S    
C52   H45   S    
C49   C50   S    
C24   C27   A    
C34   S2    S    
C31   H12   S    
C9    C10   A    
C45   H33   S    
C51   H47   S    
C25   C32   A    
C8    C16   A    
C13   C14   A    
C21   N2    A    
C36   C41   S    
C46   H29   S    
C32   H13   S    
C39   C45   S    
S2    O13   D    
C33   C34   A    
C39   C42   S    
C20   C29   A    
C39   H17   S    
C36   H1    S    
S1    O9    D    
C5    H21   S    
C3    C8    A    
C51   C52   S    
C43   C44   S    
C46   H31   S    
C29   C34   A    
C1    O2    A    
Cu1   O7    S    
Cu2   O8    S    
Cu1   Cu2   S    
C12   C41   S    
C19   H5    S    
C33   S1    S    
C31   C32   A    
C52   H46   S    
C17   C18   A    
C1    C18   S    
Cu2   O2    S    
O14   H23   S    
C46   H30   S    
C37   H15   S    
C40   C49   S    
C38   H16   S    
C40   C41   S    
C12   O4    A    
C48   H36   S    
C44   H25   S    
C22   C24   A    
C3    C4    A    
C10   H3    S    
S2    O14   S    
C2    H19   S    
Cu1   O5    S    
C12   O3    A    
C11   C17   A    
C16   H7    S    
C30   C33   A    
C14   C19   A    
C4    C5    A    
C40   C47   S    
C4    C26   S    
C23   H11   S    
C6    C7    A    
Cu1   O3    S    
C21   C30   A    
C47   H38   S    
C50   H41   S    
C20   H8    S    
C36   C38   S    
C24   C31   A    
C37   C39   S    
C43   H28   S    
C21   H9    S    
C11   C13   A    
C2    C42   S    
Cu1   N1    S    
C28   C30   A    
C47   C48   S    
C50   H40   S    
C23   C25   A    
C37   C41   S    
Cu2   O6    S    
C10   C11   A    
O11   H22   S    
C2    C40   S    
C7    C13   A    
S1    O11   S    
C48   H35   S    
C44   H26   S    
C27   C28   A    
C14   C15   A    
Cu2   N2    S    
C37   H2    S    
C2    H18   S    
C45   H32   S    
C51   H48   S    
C15   C16   A    
