data_mof_unit_67002.cif
_audit_creation_date              2012-12-11T17:41:05-0500
_audit_creation_method            fapswitch 2.2
_symmetry_space_group_name_H-M    P1
_symmetry_Int_Tables_number       1
_space_group_crystal_system       triclinic
_cell_length_a                    8.198147
_cell_length_b                    12.65661
_cell_length_c                    14.367236
_cell_angle_alpha                 92.836633
_cell_angle_beta                  91.012718
_cell_angle_gamma                 98.173756
_cell_volume                      1473.34277024

loop_
_atom_site_label
_atom_site_type_symbol
_atom_type_description
_atom_site_fract_x
_atom_site_fract_y
_atom_site_fract_z
_atom_type_partial_charge
Ba1   Ba    Ba6+2 0.855630 0.555280 0.454520 1.628183
Ba2   Ba    Ba6+2 0.334200 0.444810 0.545490 1.628290
C1    C     C_3   0.576754 0.944949 0.177750 -0.409765
C2    C     C_R   0.181325 0.498063 0.195539 0.046467
C3    C     C_R   0.337365 0.548094 0.225341 -0.288887
C4    C     C_3   0.108408 0.842847 0.212747 0.329998
C5    C     C_R   0.449875 0.594885 0.162861 0.023072
C6    C     C_R   0.404351 0.599403 0.069148 -0.152040
C7    C     C_R   0.246948 0.552494 0.035952 0.001998
C8    C     C_R   0.134627 0.498458 0.098352 -0.018235
C9    C     C_R   0.050851 0.506344 0.903099 -0.026802
C10   C     C_R   0.937961 0.452971 0.965585 -0.001897
C11   C     C_R   0.006417 0.504440 0.805436 0.029084
C12   C     C_3   0.620595 0.853069 0.233304 0.331322
C13   C     C_R   0.852477 0.451276 0.775089 -0.291224
C14   C     C_R   0.738937 0.405374 0.837526 0.019524
C15   C     C_R   0.781528 0.404708 0.932027 -0.145846
C16   C     C_3   0.080681 0.907805 0.129896 -0.209238
C17   C     C_R   0.203312 0.557548 0.940639 -0.047923
C18   C     C_R   0.767507 0.176954 0.535879 -0.277790
C19   C     C_R   0.441541 0.812171 0.456331 -0.280568
C20   C     C_R   0.414078 0.994082 0.425638 -0.108369
C21   C     C_R   0.352656 0.886123 0.419750 -0.009163
C22   C     C_R   0.583941 0.846019 0.509878 0.072826
C23   C     C_3   0.474314 0.309189 0.260049 0.304210
C24   C     C_R   0.647875 0.956880 0.520083 -0.059998
C25   C     C_R   0.562279 0.031312 0.475087 -0.062550
C26   C     C_R   0.622979 0.141413 0.484164 0.041946
C27   C     C_R   0.856933 0.104914 0.576506 -0.005553
C28   C     C_3   0.233728 0.757329 0.647464 0.287173
C29   C     C_R   0.793764 0.996042 0.572692 -0.091218
C30   C     C_3   0.261821 0.878357 0.663411 -0.368745
C31   C     C_3   0.967166 0.237939 0.344129 0.274402
C32   C     C_3   0.949932 0.118243 0.322593 -0.360724
C33   C     C_3   0.697483 0.674783 0.740026 0.312426
C34   C     C_3   0.456640 0.286689 0.154957 -0.392967
C35   C     C_3   0.642096 0.689668 0.839807 -0.393961
C36   C     C_3   0.084380 0.840852 0.039407 -0.254255
C37   C     C_3   0.044284 0.906994 0.958679 -0.236903
C38   C     C_3   0.064478 0.847402 0.867447 -0.346242
C39   C     C_3   0.047612 0.209241 0.802669 0.367021
C40   C     C_3   0.059605 0.181948 0.903998 -0.375748
C41   C     C_3   0.543509 0.144144 0.763654 0.346701
C42   C     C_3   0.586143 0.050594 0.817171 -0.412968
C43   C     C_R   0.981338 0.447848 0.060958 -0.040216
H1    H     H_    0.702350 0.885878 0.293604 0.066375
H2    H     H_    0.828526 0.662745 0.740467 -0.012188
H3    H     H_    0.619779 0.602480 0.708188 0.071638
H4    H     H_    0.522666 0.002609 0.224303 0.102963
H5    H     H_    0.717215 0.760051 0.876153 0.116769
H6    H     H_    0.653545 0.617287 0.878715 0.068617
H7    H     H_    0.511588 0.704032 0.838897 0.124882
H8    H     H_    0.503680 0.811318 0.260157 -0.050715
H9    H     H_    0.485470 0.913879 0.121549 0.109158
H10   H     H_    0.355711 0.329551 0.286446 0.016913
H11   H     H_    0.573396 0.377991 0.274218 0.058340
H12   H     H_    0.339734 0.901479 0.726689 0.105593
H13   H     H_    0.354420 0.220403 0.138467 0.123289
H14   H     H_    0.429343 0.358967 0.120410 0.063745
H15   H     H_    0.573232 0.263936 0.127200 0.119830
H16   H     H_    0.688015 0.987211 0.145827 0.119128
H17   H     H_    0.178336 0.978934 0.130605 0.092015
H18   H     H_    0.134000 0.283707 0.793881 0.101600
H19   H     H_    0.919647 0.223638 0.787495 -0.067150
H20   H     H_    0.186685 0.166903 0.921630 0.149418
H21   H     H_    0.030368 0.249429 0.949957 0.074796
H22   H     H_    0.969403 0.110418 0.916540 0.095554
H23   H     H_    0.324678 0.917596 0.604487 0.080945
H24   H     H_    0.657465 0.180288 0.729760 -0.052043
H25   H     H_    0.450029 0.113939 0.708195 0.085595
H26   H     H_    0.682852 0.079479 0.871059 0.113378
H27   H     H_    0.632753 0.991248 0.768754 0.093118
H28   H     H_    0.026803 0.764719 0.206658 0.100872
H29   H     H_    0.475428 0.011666 0.852221 0.125142
H30   H     H_    0.374315 0.547224 0.297961 0.066722
H31   H     H_    0.492107 0.639279 0.022362 0.073460
H32   H     H_    0.692620 0.366369 0.979137 0.071292
H33   H     H_    0.817586 0.449409 0.701955 0.066162
H34   H     H_    0.142104 0.908405 0.670575 0.139060
H35   H     H_    0.894004 0.403667 0.105268 0.097078
H36   H     H_    0.290196 0.600783 0.895945 0.089061
H37   H     H_    0.339416 0.047846 0.395438 0.105763
H38   H     H_    0.861702 0.943602 0.609501 0.110223
H39   H     H_    0.815127 0.261339 0.540582 0.065328
H40   H     H_    0.239354 0.829169 0.214189 -0.070088
H41   H     H_    0.389867 0.728423 0.451464 0.065269
H42   H     H_    0.958913 0.936663 0.135622 0.143754
H43   H     H_    0.350519 0.729658 0.628651 0.012195
H44   H     H_    0.142274 0.736824 0.589470 0.092521
H45   H     H_    0.847897 0.260266 0.365920 0.010317
H46   H     H_    0.197689 0.843457 0.859213 0.155600
H47   H     H_    0.997264 0.765065 0.867333 0.129373
H48   H     H_    0.015838 0.890093 0.809710 0.147430
H49   H     H_    0.915570 0.924713 0.963309 0.128680
H50   H     H_    0.131004 0.982740 0.961018 0.133957
H51   H     H_    0.209068 0.816203 0.031208 0.106842
H52   H     H_    0.990823 0.767639 0.040472 0.143575
H53   H     H_    0.060326 0.258601 0.401448 0.082254
H54   H     H_    0.850168 0.093485 0.269550 0.111236
H55   H     H_    0.921116 0.074103 0.386217 0.093462
H56   H     H_    0.068161 0.098322 0.295129 0.151574
O1    O     O_2   0.887370 0.460630 0.272300 -0.465774
O2    O     O_2   0.201150 0.111409 0.574873 -0.478538
O3    O     O_3   0.089614 0.124820 0.744596 -0.606894
O4    O     O_3   0.129410 0.451380 0.388510 -0.495067
O5    O     O_3   0.575400 0.626570 0.547370 -0.498374
O6    O     O_2   0.344320 0.238700 0.455090 -0.469900
O7    O     O_3   0.514266 0.217748 0.301259 -0.651305
O8    O     O_2   0.399946 0.408168 0.833566 -0.494369
O9    O     O_3   0.477072 0.215496 0.825644 -0.593644
O10   O     O_3   0.670210 0.653170 0.329170 -0.476506
O11   O     O_2   0.792710 0.596245 0.166068 -0.497093
O12   O     O_3   0.681702 0.767960 0.694209 -0.645355
O13   O     O_3   0.015065 0.289160 0.263059 -0.640650
O14   O     O_3   0.704667 0.786373 0.175897 -0.603712
O15   O     O_2   0.845380 0.761330 0.544970 -0.461346
O16   O     O_3   0.088930 0.704860 0.376040 -0.490098
O17   O     O_2   0.036252 0.886367 0.467594 -0.477336
O18   O     O_3   0.069032 0.901531 0.291732 -0.617564
O19   O     O_2   0.302330 0.539400 0.727760 -0.467906
O20   O     O_3   0.060300 0.548700 0.611500 -0.492463
O21   O     O_3   0.519500 0.346920 0.670840 -0.474140
O22   O     O_3   0.178555 0.711497 0.730080 -0.651773
O23   O     O_3   0.614310 0.373510 0.452640 -0.481034
O24   O     O_3   0.100780 0.295230 0.623970 -0.490417
P1    P     P_3+3 0.054400 0.427280 0.286870 0.970123
P2    P     P_3+3 0.668300 0.742890 0.573060 0.962899
P3    P     P_3+3 0.137571 0.843556 0.388796 0.944207
P4    P     P_3+3 0.135310 0.572810 0.713130 0.962584
P5    P     P_3+3 0.061972 0.156524 0.628538 0.950751
P6    P     P_3+3 0.655037 0.654241 0.207721 0.949455
P7    P     P_3+3 0.526751 0.241465 0.422435 0.931550
P8    P     P_3+3 0.533820 0.346488 0.792412 0.955166

loop_
_geom_bond_atom_site_label_1
_geom_bond_atom_site_label_2
_ccdc_geom_bond_type
C39   C40   S    
C23   H11   S    
C38   H48   S    
C34   H14   S    
C33   H2    S    
C1    H4    S    
C5    C6    A    
C12   H1    S    
O14   P6    S    
C9    C17   A    
C31   O13   S    
C4    H40   S    
O4    P1    S    
C20   H37   S    
C33   C35   S    
C22   C24   A    
C31   H53   S    
C34   H13   S    
C36   H52   S    
C36   C37   S    
O13   P1    S    
C1    H9    S    
C13   H33   S    
C14   P8    S    
C13   C14   A    
Ba2   O6    S    
C6    H31   S    
Ba2   P4    S    
C29   H38   S    
O23   P7    S    
C42   H26   S    
Ba1   Ba2   S    
O24   P5    S    
C7    C17   A    
C6    C7    A    
O15   P2    D    
C10   C15   A    
C40   H20   S    
C32   H55   S    
C33   O12   S    
Ba1   O15   S    
C7    C8    A    
C5    P6    S    
Ba1   O5    S    
C30   H23   S    
O18   P3    S    
Ba2   O21   S    
C24   C29   A    
O11   P6    D    
O3    P5    S    
O22   P4    S    
O17   P3    D    
C30   H12   S    
C28   H44   S    
C33   H3    S    
O16   P3    S    
C31   C32   S    
C18   C27   A    
C1    H16   S    
C4    C16   S    
C32   H56   S    
O8    P8    D    
O19   P4    D    
Ba1   P2    S    
Ba1   P1    S    
C37   C38   S    
C3    C5    A    
C35   H7    S    
Ba2   O19   S    
C10   C43   A    
C18   C26   A    
O1    P1    D    
O5    P2    S    
Ba2   O5    S    
C18   H39   S    
C26   P7    S    
C3    H30   S    
C41   C42   S    
O21   P8    S    
C22   P2    S    
C27   P5    S    
C8    C43   A    
C15   H32   S    
C32   H54   S    
C24   C25   A    
Ba1   O16   S    
C38   H47   S    
C42   H29   S    
C37   H50   S    
C1    C12   S    
O10   P6    S    
C41   O9    S    
C37   H49   S    
C20   C25   A    
C19   C21   A    
C40   H22   S    
C39   H18   S    
C28   H43   S    
C4    O18   S    
C4    H28   S    
Ba2   O20   S    
C19   H41   S    
C16   H17   S    
C23   H10   S    
O20   P4    S    
O6    P7    D    
C34   H15   S    
C9    C10   A    
O12   P2    S    
Ba2   O23   S    
C41   H25   S    
Ba2   O4    S    
C16   H42   S    
C39   O3    S    
C2    P1    S    
C11   C13   A    
C16   C36   S    
Ba1   O23   S    
C27   C29   A    
C31   H45   S    
Ba1   O10   S    
C30   H34   S    
C28   C30   S    
C35   H5    S    
C9    C11   A    
C14   C15   A    
C35   H6    S    
C42   H27   S    
C43   H35   S    
C38   H46   S    
O2    P5    D    
Ba1   O20   S    
O7    P7    S    
C23   C34   S    
Ba2   O24   S    
C2    C3    A    
C12   H8    S    
C28   O22   S    
C41   H24   S    
C19   C22   A    
C36   H51   S    
C25   C26   A    
C40   H21   S    
C11   P4    S    
C20   C21   A    
O9    P8    S    
C39   H19   S    
C17   H36   S    
C2    C8    A    
Ba1   O1    S    
C12   O14   S    
C23   O7    S    
Ba1   O4    S    
C21   P3    S    
