data_mof_unit_61331.cif
_audit_creation_date              2012-12-11T17:19:45-0500
_audit_creation_method            fapswitch 2.2
_symmetry_space_group_name_H-M    P1
_symmetry_Int_Tables_number       1
_space_group_crystal_system       triclinic
_cell_length_a                    8.243569
_cell_length_b                    16.439053
_cell_length_c                    22.920357
_cell_angle_alpha                 96.179612
_cell_angle_beta                  89.78387
_cell_angle_gamma                 93.370255
_cell_volume                      3082.68634358

loop_
_atom_site_label
_atom_site_type_symbol
_atom_type_description
_atom_site_fract_x
_atom_site_fract_y
_atom_site_fract_z
_atom_type_partial_charge
Ba1   Ba    Ba6+2 0.848660 0.538140 0.472240 1.649713
Ba2   Ba    Ba6+2 0.341160 0.461930 0.527770 1.653321
C1    C     C_3   0.656142 0.843611 0.324635 -0.357686
C2    C     C_R   0.187574 0.515957 0.926990 -0.038644
C3    C     C_R   0.144007 0.508047 0.866691 0.578182
C4    C     C_3   0.109377 0.712882 0.312032 0.357949
C5    C     C_R   0.863103 0.487347 0.891974 0.577211
C6    C     C_R   0.905211 0.487570 0.951830 -0.025042
C7    C     C_R   0.067591 0.503999 0.969567 -0.048066
C8    C     C_R   0.348933 0.535096 0.945863 -0.065275
C9    C     C_R   0.390201 0.539085 0.005349 -0.091729
C10   C     C_R   0.272807 0.522376 0.047808 -0.023361
C11   C     C_R   0.110271 0.507961 0.030160 -0.048067
C12   C     C_3   0.631367 0.758244 0.344091 0.344700
C13   C     C_R   0.788088 0.471450 0.994515 -0.093651
C14   C     C_R   0.829092 0.477967 0.054140 -0.066012
C15   C     C_R   0.990360 0.497460 0.072875 -0.035781
C16   C     C_3   0.098806 0.738309 0.250377 -0.344200
C17   C     C_R   0.034028 0.506714 0.133214 0.581438
C18   C     C_R   0.315348 0.518555 0.107217 0.581295
C19   C     C_2   0.819958 0.427480 0.765158 -0.058662
C20   C     C_3   0.783227 0.410834 0.700280 -0.075729
C21   C     C_1   0.996376 0.517231 0.684814 0.021814
C22   C     C_2   0.025867 0.533246 0.742197 -0.098672
C23   C     C_3   0.509808 0.344146 0.350609 0.303302
C24   C     C_2   0.937868 0.484384 0.786214 0.208721
C25   C     C_R   0.387082 0.563382 0.235364 -0.105475
C26   C     C_R   0.437550 0.562090 0.293558 -0.027090
C27   C     C_R   0.191804 0.483751 0.314709 0.021776
C28   C     C_3   0.189331 0.711080 0.596298 0.312318
C29   C     C_R   0.149393 0.476024 0.254563 -0.099927
C30   C     C_R   0.243357 0.518268 0.213466 0.190699
C31   C     C_2   0.876817 0.466319 0.662751 -0.259589
C32   C     C_R   0.385121 0.732393 0.474393 -0.295198
C33   C     C_R   0.526550 0.758908 0.505425 0.028537
C34   C     C_3   0.501864 0.323339 0.284386 -0.376601
C35   C     C_R   0.579275 0.842004 0.510798 -0.127952
C36   C     C_R   0.487781 0.899483 0.485556 0.245448
C37   C     C_R   0.340072 0.871969 0.457164 -0.168713
C38   C     C_R   0.287844 0.788689 0.452568 -0.009634
C39   C     C_R   0.620513 0.147023 0.490285 -0.121557
C40   C     C_3   0.199287 0.803689 0.611203 -0.384568
C41   C     C_R   0.669474 0.230192 0.494246 0.004052
C42   C     C_R   0.714680 0.091582 0.516700 0.259611
C43   C     C_R   0.808444 0.259680 0.525675 -0.277752
C44   C     C_R   0.909265 0.205899 0.548520 -0.025957
C45   C     C_3   0.030593 0.252353 0.687379 0.540718
C46   C     C_R   0.861761 0.121807 0.544833 -0.173694
C47   C     C_3   0.005466 0.288884 0.404236 0.310128
C48   C     C_3   0.992011 0.196339 0.388937 -0.384315
C49   C     C_3   0.680127 0.637956 0.646619 0.306277
C50   C     C_3   0.681685 0.656961 0.713038 -0.368374
C51   C     C_3   0.178939 0.281010 0.783437 -0.176045
C52   C     C_3   0.943841 0.177191 0.710355 -0.352716
C53   C     C_3   0.536406 0.242393 0.661617 0.391880
C54   C     C_3   0.502628 0.161021 0.686672 -0.377111
C55   C     C_R   0.335889 0.526349 0.333282 -0.293425
H1    H     H_    0.695322 0.757715 0.386607 0.087425
H2    H     H_    0.592452 0.584940 0.635058 0.083237
H3    H     H_    0.787580 0.859152 0.318545 0.152280
H4    H     H_    0.776202 0.706305 0.726448 0.112554
H5    H     H_    0.708221 0.601427 0.733951 0.080599
H6    H     H_    0.561044 0.677016 0.728486 0.141680
H7    H     H_    0.499057 0.745226 0.350148 -0.064674
H8    H     H_    0.607552 0.889296 0.358444 0.081896
H9    H     H_    0.386929 0.359275 0.366587 0.015236
H10   H     H_    0.596045 0.398368 0.360378 0.064575
H11   H     H_    0.413069 0.270619 0.272965 0.123167
H12   H     H_    0.285170 0.821352 0.648243 0.124113
H13   H     H_    0.463149 0.376803 0.263374 0.072106
H14   H     H_    0.623480 0.307377 0.267263 0.133996
H15   H     H_    0.591201 0.846360 0.282591 0.110470
H16   H     H_    0.143342 0.689476 0.218085 0.078605
H17   H     H_    0.935843 0.283863 0.666080 -0.061291
H18   H     H_    0.032302 0.138490 0.728932 0.108378
H19   H     H_    0.854240 0.196810 0.744551 0.079028
H20   H     H_    0.878267 0.139364 0.673845 0.074427
H21   H     H_    0.669823 0.250914 0.656655 -0.104110
H22   H     H_    0.479926 0.238640 0.617476 0.092323
H23   H     H_    0.242403 0.834396 0.572891 0.062826
H24   H     H_    0.561201 0.111703 0.658682 0.078298
H25   H     H_    0.035287 0.654466 0.313512 0.093215
H26   H     H_    0.552609 0.164636 0.731845 0.103043
H27   H     H_    0.734888 0.465653 0.085473 0.173393
H28   H     H_    0.664571 0.452357 0.981600 0.116544
H29   H     H_    0.514088 0.556934 0.018426 0.114958
H30   H     H_    0.461755 0.599737 0.207955 0.136525
H31   H     H_    0.443684 0.547702 0.914727 0.168715
H32   H     H_    0.105851 0.585843 0.757736 0.110920
H33   H     H_    0.761086 0.386019 0.793474 0.111830
H34   H     H_    0.077305 0.824950 0.623785 0.127107
H35   H     H_    0.044651 0.436271 0.240522 0.129360
H36   H     H_    0.373086 0.528200 0.378641 0.081081
H37   H     H_    0.238463 0.703103 0.321260 -0.072842
H38   H     H_    0.852896 0.457002 0.615928 0.079854
H39   H     H_    0.511543 0.126003 0.465594 0.104799
H40   H     H_    0.264831 0.915492 0.439694 0.091908
H41   H     H_    0.689281 0.861377 0.535346 0.111514
H42   H     H_    0.939766 0.079964 0.562848 0.085220
H43   H     H_    0.344585 0.668252 0.471016 0.076557
H44   H     H_    0.845174 0.324252 0.528144 0.066069
H45   H     H_    0.885657 0.310354 0.418002 0.002111
H46   H     H_    0.970890 0.748478 0.239571 0.157218
H47   H     H_    0.174671 0.795768 0.247231 0.103847
H48   H     H_    0.106390 0.695182 0.558218 0.068989
H49   H     H_    0.093830 0.303939 0.440682 0.074399
H50   H     H_    0.159837 0.361096 0.719237 0.233868
H51   H     H_    0.242614 0.333124 0.810673 0.144936
H52   H     H_    0.268869 0.236107 0.767931 0.140027
H53   H     H_    0.087602 0.252047 0.811637 0.078312
H54   H     H_    0.370384 0.144865 0.687867 0.147755
H55   H     H_    0.311772 0.690603 0.585237 0.004964
H56   H     H_    0.898046 0.179420 0.354466 0.128781
H57   H     H_    0.957940 0.165350 0.428114 0.064964
H58   H     H_    0.110682 0.174634 0.372604 0.126425
H59   H     H_    0.802739 0.622058 0.631590 -0.000067
N1    N     N_R   0.982154 0.494425 0.849100 -0.424093
N2    N     N_R   0.196836 0.514269 0.150738 -0.423282
N3    N     N_2   0.535716 0.984934 0.489174 -0.236178
N4    N     N_2   0.669334 0.005735 0.513849 -0.233895
N5    N     N_2   0.099174 0.310862 0.734363 -0.427414
O1    O     O_2   0.899090 0.455560 0.360740 -0.456813
O2    O     O_2   0.246115 0.210751 0.538806 -0.486947
O3    O     O_3   0.154608 0.226930 0.648156 -0.595714
O4    O     O_3   0.139470 0.456390 0.431790 -0.492909
O5    O     O_3   0.555510 0.597400 0.529070 -0.490269
O6    O     O_2   0.384010 0.302440 0.472310 -0.455637
O7    O     O_3   0.562110 0.276453 0.376328 -0.639328
O8    O     O_2   0.460836 0.467703 0.710303 -0.440163
O9    O     O_3   0.472481 0.306570 0.698956 -0.582862
O10   O     O_2   0.251276 0.511661 0.830011 -0.571395
O11   O     O_2   0.719498 0.482347 0.878364 -0.603671
O12   O     O_3   0.635507 0.707303 0.621414 -0.633015
O13   O     O_2   0.926026 0.509699 0.169818 -0.569717
O14   O     O_2   0.458773 0.516492 0.119466 -0.609597
O15   O     O_3   0.652060 0.602710 0.395680 -0.493624
O16   O     O_2   0.773232 0.547965 0.292292 -0.435315
O17   O     O_3   0.056411 0.324885 0.354311 -0.636492
O18   O     O_3   0.695323 0.701070 0.301406 -0.596321
O19   O     O_2   0.805680 0.697590 0.527730 -0.459957
O20   O     O_3   0.061950 0.644310 0.424380 -0.491495
O21   O     O_2   0.950799 0.790207 0.461101 -0.484035
O22   O     O_3   0.049464 0.774558 0.352221 -0.598322
O23   O     O_2   0.290610 0.544470 0.639300 -0.454057
O24   O     O_3   0.050220 0.543670 0.568220 -0.496899
O25   O     O_3   0.537630 0.397360 0.604330 -0.482383
O26   O     O_3   0.131613 0.675226 0.645456 -0.635124
O27   O     O_3   0.634180 0.402670 0.470930 -0.478238
O28   O     O_3   0.127750 0.355750 0.575620 -0.474193
P1    P     P_3+3 0.070660 0.431690 0.369620 0.987286
P2    P     P_3+3 0.630590 0.685720 0.544880 0.984926
P3    P     P_3+3 0.087032 0.750652 0.423303 0.949918
P4    P     P_3+3 0.119040 0.568370 0.630390 0.993534
P5    P     P_3+3 0.109060 0.248681 0.576968 0.953419
P6    P     P_3+3 0.640054 0.602596 0.319625 0.982995
P7    P     P_3+3 0.565658 0.300528 0.452601 0.949409
P8    P     P_3+3 0.562672 0.399031 0.680018 0.981608

loop_
_geom_bond_atom_site_label_1
_geom_bond_atom_site_label_2
_ccdc_geom_bond_type
C51   H53   S    
C53   C54   S    
C40   H23   S    
C4    H25   S    
O3    P5    S    
Ba2   O23   S    
C5    N1    Am   
Ba1   O24   S    
O12   P2    S    
C24   N1    S    
C19   C24   D    
C22   H32   S    
O8    P8    D    
C5    C6    A    
O25   P8    S    
C43   C44   A    
O17   P1    S    
Ba2   O24   S    
C38   P3    S    
O9    P8    S    
C32   C38   A    
O1    P1    D    
Ba2   P4    S    
C33   C35   A    
C23   O7    S    
Ba1   O4    S    
Ba1   Ba2   S    
C50   H4    S    
C36   C37   A    
C37   H40   S    
C39   H39   S    
C42   N4    S    
C9    H29   S    
Ba2   O27   S    
C13   C14   A    
C14   H27   S    
O16   P6    D    
C32   C33   A    
O21   P3    D    
O23   P4    D    
C46   H42   S    
C7    C11   A    
Ba1   O1    S    
C27   P1    S    
C12   H1    S    
C14   C15   A    
C21   C31   D    
C23   H10   S    
C26   P6    S    
C32   H43   S    
C21   C22   D    
Ba1   O15   S    
C54   H54   S    
C34   H14   S    
C13   H28   S    
C52   H20   S    
O24   P4    S    
Ba2   O6    S    
Ba2   O28   S    
C55   H36   S    
C47   O17   S    
C39   C41   A    
C1    H8    S    
C33   P2    S    
C4    C16   S    
C31   H38   S    
C18   N2    Am   
C35   H41   S    
C34   H13   S    
C19   H33   S    
C44   P5    S    
C44   C46   A    
C45   N5    S    
C49   C50   S    
C28   O26   S    
Ba1   O5    S    
C17   N2    Am   
O4    P1    S    
C30   N2    S    
C37   C38   A    
O15   P6    S    
C6    C7    A    
C4    H37   S    
C26   C55   A    
C40   H12   S    
C3    N1    Am   
C48   H57   S    
O28   P5    S    
Ba2   O4    S    
C35   C36   A    
C53   H22   S    
O5    P2    S    
C29   C30   A    
O18   P6    S    
C9    C10   A    
C53   O9    S    
C12   H7    S    
C10   C18   A    
Ba1   P1    S    
C16   H47   S    
C12   O18   S    
C25   H30   S    
C41   C43   A    
O19   P2    D    
C5    O11   D    
Ba1   O19   S    
C43   H44   S    
C45   C52   S    
C52   H19   S    
C36   N3    S    
Ba2   O5    S    
O22   P3    S    
C27   C55   A    
C29   H35   S    
C6    C13   A    
C21   P4    S    
C28   H48   S    
C39   C42   A    
C49   H2    S    
H50   N5    S    
C2    C8    A    
C41   P7    S    
C47   H45   S    
C54   H26   S    
C51   H52   S    
C53   H21   S    
C20   C31   S    
C25   C30   A    
C23   H9    S    
C45   H17   S    
C22   C24   S    
C2    C3    A    
C50   H6    S    
O6    P7    D    
N3    N4    D    
C34   H11   S    
C47   H49   S    
C20   P8    S    
C1    C12   S    
Ba2   O25   S    
C49   H59   S    
C11   C15   A    
C48   H56   S    
C16   H16   S    
C1    H15   S    
C4    O22   S    
C27   C29   A    
C51   N5    S    
C48   H58   S    
C49   O12   S    
C51   H51   S    
C45   O3    S    
C15   C17   A    
C54   H24   S    
Ba1   P2    S    
C17   O13   D    
C16   H46   S    
C18   O14   D    
O26   P4    S    
Ba1   O20   S    
C8    C9    A    
O7    P7    S    
C23   C34   S    
C52   H18   S    
C8    H31   S    
C42   C46   A    
C3    O10   D    
C10   C11   A    
C47   C48   S    
C28   H55   S    
C25   C26   A    
C28   C40   S    
Ba1   O27   S    
C50   H5    S    
O27   P7    S    
C2    C7    A    
C19   C20   S    
C1    H3    S    
C40   H34   S    
O20   P3    S    
O2    P5    D    
