data_mof_unit_61584.cif
_audit_creation_date              2012-10-26T17:19:26-0400
_audit_creation_method            fapswitch 2.2
_symmetry_space_group_name_H-M    P1
_symmetry_Int_Tables_number       1
_space_group_crystal_system       monoclinic
_cell_length_a                    36.804434
_cell_length_b                    30.249589
_cell_length_c                    21.406058
_cell_angle_alpha                 90.0
_cell_angle_beta                  54.990665
_cell_angle_gamma                 90.0
_cell_volume                      19519.6166805

loop_
_atom_site_label
_atom_site_type_symbol
_atom_type_description
_atom_site_fract_x
_atom_site_fract_y
_atom_site_fract_z
_atom_type_partial_charge
C1    C     C_R   0.085616 0.499996 0.414169 0.542729
C2    C     C_R   0.657311 0.472273 0.883694 -0.137402
C3    C     C_R   0.963905 0.156730 0.009277 0.047706
C4    C     C_R   0.500000 0.633817 0.000000 0.024954
C5    C     C_R   1.000000 0.133817 0.000000 0.024954
C6    C     C_R   0.464348 0.703321 0.007465 0.014669
C7    C     C_R   0.535652 0.703321 0.992535 0.014669
C8    C     C_R   0.964348 0.203321 0.007465 0.014669
C9    C     C_R   0.035652 0.203321 0.992535 0.014669
C10   C     C_R   0.500000 0.726629 0.000000 0.015570
C11   C     C_R   1.000000 0.226629 0.000000 0.015570
C12   C     C_R   0.429895 0.727073 0.012759 -0.088669
C13   C     C_R   0.842689 0.972273 0.116306 -0.137402
C14   C     C_R   0.570105 0.727073 0.987240 -0.088668
C15   C     C_R   0.929895 0.227073 0.012759 -0.088669
C16   C     C_R   0.070105 0.227073 0.987240 -0.088668
C17   C     C_R   0.929501 0.273265 0.011894 -0.001673
C18   C     C_R   0.070499 0.273265 0.988105 -0.001673
C19   C     C_R   0.429501 0.773265 0.011894 -0.001673
C20   C     C_R   0.570499 0.773265 0.988105 -0.001673
C21   C     C_R   0.964402 0.296773 0.006785 0.030388
C22   C     C_R   0.035598 0.296773 0.993215 0.030388
C23   C     C_R   0.464402 0.796773 0.006785 0.030388
C24   C     C_R   0.157311 0.972273 0.883694 -0.137402
C25   C     C_R   0.535598 0.796773 0.993215 0.030388
C26   C     C_3   0.027035 0.468022 0.743708 0.073116
C27   C     C_3   0.972965 0.468022 0.256292 0.073116
C28   C     C_3   0.527035 0.968022 0.743708 0.073116
C29   C     C_3   0.472965 0.968022 0.256292 0.073116
C30   C     C_R   1.000000 0.273361 0.000000 0.042189
C31   C     C_R   0.500000 0.773361 0.000000 0.042189
C32   C     C_R   0.964671 0.343140 0.008297 -0.122866
C33   C     C_R   0.035329 0.343140 0.991703 -0.122867
C34   C     C_R   0.464671 0.843140 0.008297 -0.122866
C35   C     C_R   0.366069 0.500526 0.133090 -0.007798
C36   C     C_R   0.535329 0.843140 0.991703 -0.122867
C37   C     C_R   1.000000 0.366069 0.000000 0.003238
C38   C     C_R   0.500000 0.866069 0.000000 0.003238
C39   C     C_R   0.540227 0.343621 0.948591 -0.024684
C40   C     C_R   0.459773 0.343621 0.051409 -0.024684
C41   C     C_R   0.040227 0.843621 0.948591 -0.024684
C42   C     C_R   0.959773 0.843621 0.051409 -0.024684
C43   C     C_R   0.500000 0.366382 0.000000 0.020973
C44   C     C_R   1.000000 0.866382 0.000000 0.020973
C45   C     C_R   0.459975 0.296836 0.051846 0.021374
C46   C     C_R   0.633931 0.500526 0.866910 -0.007798
C47   C     C_R   0.540025 0.296836 0.948154 0.021374
C48   C     C_R   0.959975 0.796836 0.051846 0.021374
C49   C     C_R   0.040025 0.796836 0.948154 0.021374
C50   C     C_R   0.500000 0.273730 0.000000 0.036252
C51   C     C_R   1.000000 0.773730 0.000000 0.036252
C52   C     C_R   0.421048 0.272266 0.102710 -0.128996
C53   C     C_R   0.578952 0.272266 0.897290 -0.128996
C54   C     C_R   0.921048 0.772266 0.102710 -0.128996
C55   C     C_R   0.078952 0.772266 0.897290 -0.128996
C56   C     C_R   0.921434 0.726369 0.102236 -0.124172
C57   C     C_R   0.866069 0.000526 0.133090 -0.007798
C58   C     C_R   0.078566 0.726369 0.897764 -0.124172
C59   C     C_R   0.421434 0.226369 0.102236 -0.124172
C60   C     C_R   0.578566 0.226369 0.897764 -0.124172
C61   C     C_R   0.960537 0.703497 0.051222 0.019950
C62   C     C_R   0.039463 0.703497 0.948778 0.019950
C63   C     C_R   0.460537 0.203497 0.051222 0.019950
C64   C     C_R   0.539463 0.203497 0.948778 0.019950
C65   C     C_3   0.999030 0.499125 0.812044 0.045373
C66   C     C_3   0.000970 0.499125 0.187956 0.045373
C67   C     C_3   0.499030 0.999125 0.812044 0.045373
C68   C     C_R   0.133931 0.000526 0.866910 -0.007798
C69   C     C_3   0.500970 0.999125 0.187956 0.045373
C70   C     C_R   0.000000 0.726967 0.000000 0.064972
C71   C     C_R   0.500000 0.226968 0.000000 0.064972
C72   C     C_R   0.960717 0.657360 0.050844 -0.110215
C73   C     C_R   0.039283 0.657360 0.949156 -0.110216
C74   C     C_R   0.460717 0.157360 0.050844 -0.110215
C75   C     C_R   0.539283 0.157360 0.949156 -0.110215
C76   C     C_R   1.000000 0.634158 0.000000 0.010740
C77   C     C_R   0.500000 0.134158 0.000000 0.010740
C78   C     C_3   0.012806 0.538813 0.758192 0.075624
C79   C     C_R   0.343456 0.529000 0.195878 -0.099480
C80   C     C_3   0.987194 0.538813 0.241808 0.075624
C81   C     C_3   0.512806 0.038813 0.758192 0.075624
C82   C     C_3   0.487194 0.038813 0.241808 0.075624
C83   C     C_3   0.971844 0.531177 0.756387 -0.108837
C84   C     C_3   0.028156 0.531177 0.243613 -0.108838
C85   C     C_3   0.471844 0.031177 0.756387 -0.108837
C86   C     C_3   0.528156 0.031177 0.243613 -0.108837
C87   C     C_3   0.958502 0.491167 0.810042 -0.036472
C88   C     C_3   0.041497 0.491167 0.189958 -0.036473
C89   C     C_3   0.458502 0.991167 0.810042 -0.036472
C90   C     C_R   0.656544 0.529000 0.804122 -0.099480
C91   C     C_3   0.541497 0.991167 0.189958 -0.036472
C92   C     C_3   0.986291 0.459649 0.741715 -0.112774
C93   C     C_3   0.013709 0.459649 0.258284 -0.112774
C94   C     C_3   0.486291 0.959649 0.741715 -0.112774
C95   C     C_3   0.513709 0.959649 0.258284 -0.112774
C96   C     C_3   0.891534 0.296102 0.015565 -0.257993
C97   C     C_3   0.906616 0.314254 0.937088 -0.294991
C98   C     C_3   0.870373 0.342191 0.942576 -0.454665
C99   C     C_3   0.108466 0.296102 0.984434 -0.257993
C100  C     C_3   0.093384 0.314254 0.062911 -0.294991
C101  C     C_R   0.843456 0.029000 0.195878 -0.099480
C102  C     C_3   0.129626 0.342191 0.057423 -0.454663
C103  C     C_3   0.391534 0.796102 0.015566 -0.257993
C104  C     C_3   0.406615 0.814254 0.937089 -0.294992
C105  C     C_3   0.370374 0.842191 0.942577 -0.454665
C106  C     C_3   0.608466 0.796102 0.984434 -0.257993
C107  C     C_3   0.593384 0.814254 0.062911 -0.294992
C108  C     C_3   0.629626 0.842191 0.057423 -0.454664
C109  C     C_3   0.583157 0.369473 0.895056 -0.251281
C110  C     C_3   0.593488 0.372951 0.814791 -0.293296
C111  C     C_3   0.637946 0.395678 0.759570 -0.437053
C112  C     C_R   0.914384 0.499996 0.585831 0.542729
C113  C     C_R   0.156544 0.029000 0.804122 -0.099480
C114  C     C_3   0.416843 0.369473 0.104944 -0.251281
C115  C     C_3   0.406512 0.372951 0.185209 -0.293295
C116  C     C_3   0.362054 0.395678 0.240430 -0.437053
C117  C     C_3   0.083157 0.869473 0.895056 -0.251281
C118  C     C_3   0.093488 0.872951 0.814791 -0.293296
C119  C     C_3   0.137946 0.895678 0.759570 -0.437053
C120  C     C_3   0.916843 0.869473 0.104944 -0.251281
C121  C     C_3   0.906512 0.872951 0.185209 -0.293295
C122  C     C_3   0.862054 0.895678 0.240430 -0.437053
C123  C     C_3   0.911081 0.481461 0.878127 -0.239551
C124  C     C_R   0.296988 0.530190 0.242238 0.021791
C125  C     C_3   0.880247 0.474124 0.852480 -0.309124
C126  C     C_3   0.832526 0.466452 0.920588 -0.448070
C127  C     C_3   0.088918 0.481461 0.121873 -0.239551
C128  C     C_3   0.119753 0.474124 0.147520 -0.309123
C129  C     C_3   0.167474 0.466452 0.079412 -0.448070
C130  C     C_3   0.411082 0.981461 0.878127 -0.239551
C131  C     C_3   0.380247 0.974124 0.852480 -0.309123
C132  C     C_3   0.332526 0.966452 0.920588 -0.448070
C133  C     C_3   0.588918 0.981461 0.121873 -0.239551
C134  C     C_3   0.619753 0.974124 0.147520 -0.309123
C135  C     C_R   0.703012 0.530190 0.757762 0.021791
C136  C     C_3   0.667474 0.966452 0.079412 -0.448070
C137  C     C_R   0.796988 0.030190 0.242238 0.021791
C138  C     C_R   0.203012 0.030190 0.757762 0.021791
C139  C     C_R   0.273407 0.500834 0.226036 0.040616
C140  C     C_R   0.726593 0.500834 0.773964 0.040616
C141  C     C_R   0.773407 0.000834 0.226036 0.040616
C142  C     C_R   0.226593 0.000834 0.773964 0.040616
C143  C     C_R   0.296404 0.471616 0.163235 0.018274
C144  C     C_R   0.585616 0.999996 0.414169 0.542729
C145  C     C_R   0.703596 0.471616 0.836765 0.018274
C146  C     C_R   0.796404 0.971616 0.163235 0.018274
C147  C     C_R   0.203596 0.971616 0.836765 0.018274
C148  C     C_R   0.273367 0.559813 0.304221 0.090687
C149  C     C_R   0.726632 0.559813 0.695779 0.090687
C150  C     C_R   0.773367 0.059813 0.304221 0.090687
C151  C     C_R   0.226632 0.059813 0.695779 0.090687
C152  C     C_R   0.227022 0.559888 0.349145 -0.100347
C153  C     C_R   0.772978 0.559888 0.650855 -0.100347
C154  C     C_R   0.727022 0.059888 0.349145 -0.100347
C155  C     C_R   0.414384 0.999996 0.585831 0.542729
C156  C     C_R   0.272978 0.059888 0.650855 -0.100347
C157  C     C_R   0.203590 0.530513 0.334012 -0.009914
C158  C     C_R   0.796410 0.530513 0.665987 -0.009914
C159  C     C_R   0.703590 0.030513 0.334012 -0.009914
C160  C     C_R   0.296410 0.030513 0.665987 -0.009914
C161  C     C_R   0.000216 0.499962 0.620080 0.552108
C162  C     C_R   0.999784 0.499962 0.379920 0.552108
C163  C     C_R   0.500216 0.999962 0.620080 0.552108
C164  C     C_R   0.499784 0.999962 0.379920 0.552108
C165  C     C_R   0.226762 0.500601 0.272605 0.055695
C166  C     C_3   0.000080 0.499773 0.688506 -0.004339
C167  C     C_R   0.773238 0.500601 0.727395 0.055695
C168  C     C_R   0.726762 0.000601 0.272605 0.055695
C169  C     C_R   0.273238 0.000601 0.727395 0.055695
C170  C     C_R   0.203264 0.470419 0.257773 0.021438
C171  C     C_R   0.796736 0.470419 0.742227 0.021438
C172  C     C_R   0.703264 0.970419 0.257773 0.021438
C173  C     C_R   0.296736 0.970419 0.742227 0.021438
C174  C     C_R   0.226493 0.441307 0.195839 -0.133911
C175  C     C_R   0.773507 0.441307 0.804161 -0.133911
C176  C     C_R   0.726493 0.941307 0.195839 -0.133911
C177  C     C_3   0.999920 0.499773 0.311494 -0.004339
C178  C     C_R   0.273507 0.941307 0.804161 -0.133911
C179  C     C_R   0.272755 0.442116 0.148559 -0.128713
C180  C     C_R   0.727245 0.442116 0.851441 -0.128713
C181  C     C_R   0.772755 0.942116 0.148559 -0.128713
C182  C     C_R   0.227245 0.942116 0.851441 -0.128713
C183  C     C_R   0.157247 0.530498 0.379488 -0.124685
C184  C     C_R   0.842752 0.530498 0.620512 -0.124685
C185  C     C_R   0.657247 0.030498 0.379488 -0.124685
C186  C     C_R   0.342753 0.030498 0.620512 -0.124685
C187  C     C_R   0.133982 0.500084 0.365575 0.000629
C188  C     C_3   0.500080 0.999773 0.688506 -0.004339
C189  C     C_R   0.866018 0.500084 0.634424 0.000629
C190  C     C_R   0.633982 0.000084 0.365575 0.000629
C191  C     C_R   0.366018 0.000084 0.634424 0.000629
C192  C     C_R   0.156909 0.469960 0.305167 -0.132105
C193  C     C_R   0.843091 0.469960 0.694833 -0.132105
C194  C     C_R   0.656909 0.969960 0.305167 -0.132105
C195  C     C_R   0.343091 0.969960 0.694833 -0.132105
C196  C     C_R   1.000000 0.414380 0.000000 0.557018
C197  C     C_R   0.500000 0.914380 0.000000 0.557018
C198  C     C_R   0.999722 0.499489 0.879850 0.582617
C199  C     C_3   0.499920 0.999773 0.311494 -0.004339
C200  C     C_R   0.000278 0.499489 0.120150 0.582616
C201  C     C_R   0.499722 0.999489 0.879850 0.582617
C202  C     C_R   0.500278 0.999489 0.120150 0.582616
C203  C     C_R   1.000000 0.585755 0.000000 0.576153
C204  C     C_R   0.500000 0.085755 0.000000 0.576153
C205  C     C_3   0.041149 0.507811 0.688949 -0.087925
C206  C     C_3   0.958851 0.507811 0.311051 -0.087925
C207  C     C_3   0.541149 0.007811 0.688949 -0.087925
C208  C     C_3   0.458851 0.007811 0.311051 -0.087925
C209  C     C_R   0.500000 0.414573 0.000000 0.525663
C210  C     C_R   0.342689 0.472273 0.116306 -0.137402
C211  C     C_R   1.000000 0.914573 0.000000 0.525663
C212  C     C_R   0.414380 0.500048 0.085390 0.548750
C213  C     C_R   0.585619 0.500048 0.914610 0.548749
C214  C     C_R   0.914380 0.000048 0.085390 0.548750
C215  C     C_R   0.085619 0.000048 0.914610 0.548749
C216  C     C_R   0.500000 0.585525 0.000000 0.602471
C217  C     C_R   1.000000 0.085525 0.000000 0.602471
C218  C     C_R   0.536095 0.656730 0.990723 0.047705
C219  C     C_R   0.463905 0.656730 0.009277 0.047706
C220  C     C_R   0.036095 0.156730 0.990723 0.047705
Cu1   Cu    Cu3+1 0.000000 0.544460 0.500000 0.969976
Cu2   Cu    Cu3+1 0.499980 0.499960 0.937270 0.983587
Cu3   Cu    Cu3+1 0.000020 0.999960 0.062730 0.983587
Cu4   Cu    Cu3+1 0.999980 0.999960 0.937270 0.983587
Cu5   Cu    Cu3+1 0.500000 0.044460 0.500000 0.969976
Cu6   Cu    Cu3+1 0.000000 0.455520 0.500000 0.956020
Cu7   Cu    Cu3+1 0.500000 0.955520 0.500000 0.956020
Cu8   Cu    Cu3+1 0.955530 0.500030 0.044440 0.984314
Cu9   Cu    Cu3+1 0.044470 0.500030 0.955560 0.984314
Cu10  Cu    Cu3+1 0.455530 0.000030 0.044440 0.984314
Cu11  Cu    Cu3+1 0.544470 0.000030 0.955560 0.984314
Cu12  Cu    Cu3+1 0.500020 0.499960 0.062730 0.983587
H1    H     H_    0.209259 0.582891 0.396342 0.145442
H2    H     H_    0.861398 0.446846 0.705701 0.113218
H3    H     H_    0.433052 0.392224 0.182612 0.191989
H4    H     H_    0.418483 0.403292 0.083558 0.148094
H5    H     H_    0.388896 0.354161 0.106605 0.129612
H6    H     H_    0.137009 0.930138 0.778062 0.170737
H7    H     H_    0.165081 0.877397 0.756580 0.157147
H8    H     H_    0.144985 0.896525 0.701731 0.159524
H9    H     H_    0.094461 0.839616 0.792166 0.167832
H10   H     H_    0.066948 0.892224 0.817388 0.191988
H11   H     H_    0.081517 0.903292 0.916442 0.148094
H12   H     H_    0.111104 0.854161 0.893394 0.129612
H13   H     H_    0.638602 0.946846 0.294298 0.113218
H14   H     H_    0.862990 0.930138 0.221938 0.170737
H15   H     H_    0.834918 0.877397 0.243420 0.157147
H16   H     H_    0.855014 0.896525 0.298269 0.159524
H17   H     H_    0.905538 0.839616 0.207834 0.167832
H18   H     H_    0.933052 0.892224 0.182612 0.191988
H19   H     H_    0.918483 0.903292 0.083558 0.148094
H20   H     H_    0.888896 0.854161 0.106605 0.129612
H21   H     H_    0.830454 0.436676 0.952803 0.149659
H22   H     H_    0.820085 0.495592 0.959127 0.163722
H23   H     H_    0.811062 0.461343 0.900241 0.150591
H24   H     H_    0.361398 0.946846 0.705701 0.113218
H25   H     H_    0.881082 0.503501 0.820474 0.169311
H26   H     H_    0.891543 0.444898 0.814170 0.157050
H27   H     H_    0.911309 0.451428 0.907820 0.154348
H28   H     H_    0.898978 0.509893 0.918164 0.168956
H29   H     H_    0.169545 0.436676 0.047197 0.149659
H30   H     H_    0.179915 0.495592 0.040872 0.163722
H31   H     H_    0.188938 0.461343 0.099759 0.150591
H32   H     H_    0.118918 0.503501 0.179526 0.169310
H33   H     H_    0.108457 0.444898 0.185830 0.157050
H34   H     H_    0.088691 0.451428 0.092180 0.154348
H35   H     H_    0.208867 0.418046 0.183794 0.106245
H36   H     H_    0.101022 0.509893 0.081836 0.168956
H37   H     H_    0.330454 0.936675 0.952803 0.149659
H38   H     H_    0.320085 0.995592 0.959127 0.163722
H39   H     H_    0.311062 0.961343 0.900241 0.150591
H40   H     H_    0.381082 0.003501 0.820474 0.169311
H41   H     H_    0.391543 0.944898 0.814170 0.157050
H42   H     H_    0.411309 0.951428 0.907820 0.154348
H43   H     H_    0.398978 0.009893 0.918164 0.168956
H44   H     H_    0.669546 0.936676 0.047197 0.149659
H45   H     H_    0.679915 0.995592 0.040873 0.163722
H46   H     H_    0.791133 0.418046 0.816206 0.106245
H47   H     H_    0.688938 0.961343 0.099759 0.150591
H48   H     H_    0.618918 0.003501 0.179526 0.169311
H49   H     H_    0.608457 0.944898 0.185830 0.157050
H50   H     H_    0.588691 0.951428 0.092180 0.154348
H51   H     H_    0.601022 0.009893 0.081836 0.168956
H52   H     H_    0.708867 0.918046 0.183794 0.106245
H53   H     H_    0.291133 0.918046 0.816206 0.106245
H54   H     H_    0.290072 0.419480 0.100739 0.111305
H55   H     H_    0.709928 0.419480 0.899261 0.111305
H56   H     H_    0.790072 0.919480 0.100739 0.111305
H57   H     H_    0.790741 0.582891 0.603658 0.145442
H58   H     H_    0.209928 0.919480 0.899261 0.111305
H59   H     H_    0.403045 0.709997 0.016264 0.152754
H60   H     H_    0.596955 0.709997 0.983735 0.152754
H61   H     H_    0.903045 0.209997 0.016264 0.152754
H62   H     H_    0.096955 0.209997 0.983735 0.152754
H63   H     H_    0.937989 0.362199 0.014388 0.127759
H64   H     H_    0.062011 0.362199 0.985612 0.127759
H65   H     H_    0.437989 0.862199 0.014388 0.127759
H66   H     H_    0.562011 0.862199 0.985612 0.127759
H67   H     H_    0.075127 0.514676 0.637944 0.143833
H68   H     H_    0.709259 0.082891 0.396342 0.145442
H69   H     H_    0.924873 0.514676 0.362056 0.143833
H70   H     H_    0.575127 0.014676 0.637944 0.143833
H71   H     H_    0.424873 0.014676 0.362056 0.143833
H72   H     H_    0.389661 0.287747 0.144060 0.117622
H73   H     H_    0.610339 0.287747 0.855940 0.117622
H74   H     H_    0.889661 0.787747 0.144060 0.117622
H75   H     H_    0.110339 0.787747 0.855940 0.117622
H76   H     H_    0.890922 0.708703 0.142098 0.122162
H77   H     H_    0.109078 0.708703 0.857902 0.122162
H78   H     H_    0.390922 0.208703 0.142098 0.122162
H79   H     H_    0.290741 0.082891 0.603658 0.145442
H80   H     H_    0.609078 0.208703 0.857902 0.122162
H81   H     H_    0.930268 0.639552 0.090598 0.143644
H82   H     H_    0.069732 0.639552 0.909402 0.143644
H83   H     H_    0.430268 0.139552 0.090598 0.143644
H84   H     H_    0.569732 0.139552 0.909402 0.143644
H85   H     H_    0.949277 0.557191 0.760523 0.137233
H86   H     H_    0.050723 0.557191 0.239477 0.137233
H87   H     H_    0.449277 0.057191 0.760523 0.137233
H88   H     H_    0.550723 0.057191 0.239477 0.137233
H89   H     H_    0.975482 0.427029 0.734106 0.136877
H90   H     H_    0.139190 0.553515 0.426687 0.127886
H91   H     H_    0.024517 0.427029 0.265894 0.136877
H92   H     H_    0.475482 0.927029 0.734106 0.136877
H93   H     H_    0.524517 0.927029 0.265894 0.136877
H94   H     H_    0.360630 0.450060 0.067880 0.112905
H95   H     H_    0.639370 0.450060 0.932120 0.112905
H96   H     H_    0.860630 0.950060 0.067880 0.112905
H97   H     H_    0.139370 0.950060 0.932120 0.112905
H98   H     H_    0.362611 0.550563 0.206915 0.173798
H99   H     H_    0.637389 0.550563 0.793085 0.173798
H100  H     H_    0.862611 0.050563 0.206915 0.173798
H101  H     H_    0.860810 0.553515 0.573313 0.127886
H102  H     H_    0.137389 0.050563 0.793085 0.173798
H103  H     H_    0.840041 0.322053 0.964884 0.161592
H104  H     H_    0.862190 0.370879 0.980917 0.148647
H105  H     H_    0.882151 0.354792 0.885135 0.146531
H106  H     H_    0.936827 0.334950 0.912316 0.174638
H107  H     H_    0.914890 0.286189 0.897479 0.177664
H108  H     H_    0.863765 0.272601 0.034660 0.148726
H109  H     H_    0.877349 0.322597 0.059405 0.150131
H110  H     H_    0.159959 0.322053 0.035115 0.161591
H111  H     H_    0.137810 0.370880 0.019082 0.148646
H112  H     H_    0.639190 0.053515 0.426687 0.127886
H113  H     H_    0.117849 0.354792 0.114865 0.146531
H114  H     H_    0.063173 0.334950 0.087684 0.174638
H115  H     H_    0.085110 0.286189 0.102521 0.177664
H116  H     H_    0.136235 0.272601 0.965340 0.148726
H117  H     H_    0.122650 0.322597 0.940595 0.150131
H118  H     H_    0.340041 0.822053 0.964885 0.161591
H119  H     H_    0.362190 0.870880 0.980918 0.148647
H120  H     H_    0.382151 0.854792 0.885135 0.146532
H121  H     H_    0.436827 0.834950 0.912316 0.174638
H122  H     H_    0.414890 0.786189 0.897479 0.177664
H123  H     H_    0.360810 0.053515 0.573313 0.127886
H124  H     H_    0.363765 0.772601 0.034660 0.148726
H125  H     H_    0.377349 0.822597 0.059405 0.150131
H126  H     H_    0.659959 0.822053 0.035115 0.161591
H127  H     H_    0.637810 0.870880 0.019082 0.148646
H128  H     H_    0.617849 0.854792 0.114865 0.146531
H129  H     H_    0.563173 0.834950 0.087683 0.174638
H130  H     H_    0.585110 0.786189 0.102521 0.177664
H131  H     H_    0.636235 0.772601 0.965340 0.148726
H132  H     H_    0.622650 0.822597 0.940595 0.150131
H133  H     H_    0.637009 0.430138 0.778062 0.170737
H134  H     H_    0.138601 0.446846 0.294298 0.113218
H135  H     H_    0.665081 0.377397 0.756580 0.157147
H136  H     H_    0.644985 0.396525 0.701731 0.159524
H137  H     H_    0.594461 0.339616 0.792166 0.167832
H138  H     H_    0.566948 0.392224 0.817388 0.191988
H139  H     H_    0.581517 0.403292 0.916442 0.148094
H140  H     H_    0.611104 0.354161 0.893394 0.129612
H141  H     H_    0.362990 0.430138 0.221938 0.170737
H142  H     H_    0.334918 0.377397 0.243420 0.157147
H143  H     H_    0.355015 0.396525 0.298269 0.159524
H144  H     H_    0.405538 0.339616 0.207834 0.167832
I1    I     I_    0.070166 0.417000 0.733842 -0.348941
I2    I     I_    0.966486 0.601742 0.227567 -0.371554
I3    I     I_    0.533514 0.101742 0.772433 -0.371554
I4    I     I_    0.466486 0.101742 0.227567 -0.371554
I5    I     I_    0.304577 0.606103 0.333906 -0.352499
I6    I     I_    0.695423 0.606103 0.666094 -0.352498
I7    I     I_    0.804577 0.106103 0.333906 -0.352498
I8    I     I_    0.195423 0.106103 0.666094 -0.352498
I9    I     I_    0.929834 0.417000 0.266158 -0.348941
I10   I     I_    0.570166 0.917000 0.733842 -0.348941
I11   I     I_    0.429834 0.917000 0.266158 -0.348941
I12   I     I_    0.592320 0.619858 0.968995 -0.354020
I13   I     I_    0.407680 0.619857 0.031005 -0.354019
I14   I     I_    0.092320 0.119858 0.968995 -0.354020
I15   I     I_    0.907680 0.119858 0.031005 -0.354019
I16   I     I_    0.033514 0.601742 0.772433 -0.371554
O1    O     O_R   0.064870 0.537550 0.435160 -0.509240
O2    O     O_R   0.564910 0.499970 0.988060 -0.490702
O3    O     O_R   0.935090 0.999970 0.011940 -0.490701
O4    O     O_R   0.064910 0.999970 0.988060 -0.490702
O5    O     O_R   0.500060 0.564850 0.052930 -0.476973
O6    O     O_R   0.499940 0.564850 0.947070 -0.476972
O7    O     O_R   0.000060 0.064850 0.052930 -0.476973
O8    O     O_R   0.999940 0.064850 0.947070 -0.476972
O9    O     O_R   0.064850 0.462440 0.435150 -0.507517
O10   O     O_R   0.935150 0.462440 0.564850 -0.507516
O11   O     O_R   0.564850 0.962440 0.435150 -0.507517
O12   O     O_R   0.935130 0.537550 0.564840 -0.509240
O13   O     O_R   0.435150 0.962440 0.564850 -0.507516
O14   O     O_R   0.999990 0.537540 0.591580 -0.503460
O15   O     O_R   0.000010 0.537540 0.408420 -0.503460
O16   O     O_R   0.499990 0.037540 0.591580 -0.503460
O17   O     O_R   0.500010 0.037540 0.408420 -0.503460
O18   O     O_R   0.999980 0.462440 0.591580 -0.509536
O19   O     O_R   0.000020 0.462440 0.408420 -0.509535
O20   O     O_R   0.499980 0.962440 0.591580 -0.509536
O21   O     O_R   0.500020 0.962440 0.408420 -0.509535
O22   O     O_R   0.962450 0.435150 0.037500 -0.509132
O23   O     O_R   0.564870 0.037550 0.435160 -0.509240
O24   O     O_R   0.037550 0.435150 0.962500 -0.509132
O25   O     O_R   0.462450 0.935150 0.037500 -0.509132
O26   O     O_R   0.537550 0.935150 0.962500 -0.509132
O27   O     O_R   0.962450 0.500030 0.945950 -0.533256
O28   O     O_R   0.037550 0.500030 0.054050 -0.533256
O29   O     O_R   0.462450 0.000030 0.945950 -0.533256
O30   O     O_R   0.537550 0.000030 0.054050 -0.533256
O31   O     O_R   0.037540 0.500060 0.870890 -0.468901
O32   O     O_R   0.962460 0.500060 0.129110 -0.468901
O33   O     O_R   0.537540 0.000060 0.870890 -0.468901
O34   O     O_R   0.435130 0.037550 0.564840 -0.509240
O35   O     O_R   0.462460 0.000060 0.129110 -0.468901
O36   O     O_R   0.962440 0.564920 0.037550 -0.507364
O37   O     O_R   0.037560 0.564920 0.962450 -0.507365
O38   O     O_R   0.462440 0.064920 0.037550 -0.507364
O39   O     O_R   0.537560 0.064920 0.962450 -0.507365
O40   O     O_R   0.499970 0.435080 0.053010 -0.523079
O41   O     O_R   0.500030 0.435080 0.946990 -0.523079
O42   O     O_R   0.999970 0.935080 0.053010 -0.523079
O43   O     O_R   0.000030 0.935080 0.946990 -0.523079
O44   O     O_R   0.435150 0.499980 0.117890 -0.515535
O45   O     O_R   0.564850 0.499980 0.882110 -0.515535
O46   O     O_R   0.935150 0.999980 0.117890 -0.515535
O47   O     O_R   0.064850 0.999980 0.882110 -0.515535
O48   O     O_R   0.435090 0.499970 0.011940 -0.490701

loop_
_geom_bond_atom_site_label_1
_geom_bond_atom_site_label_2
_ccdc_geom_bond_type
C105  H120  S    
C193  H2    S    
C172  C194  A    
Cu3   Cu4   S    
C185  H112  S    
C114  C115  S    
C148  I5    S    
C12   H59   S    
C29   C208  S    
Cu2   O48   S    
C214  O3    A    
C216  O6    A    
C131  H41   S    
C132  H38   S    
C72   H81   S    
C106  C107  S    
C26   C92   S    
C62   C70   A    
C28   C94   S    
C89   C94   S    
C149  C153  A    
C110  C111  S    
C162  C177  S    
C112  C189  S    
C40   C43   A    
C5    C217  S    
C49   C51   A    
Cu2   O41   S    
C128  H33   S    
Cu10  O29   S    
Cu3   O42   S    
C118  H9    S    
C81   C207  S    
C85   C188  S    
Cu11  O39   S    
C195  H24   S    
C155  O34   A    
C202  O35   A    
C29   I11   S    
C42   C44   A    
C41   C49   A    
C104  C105  S    
C107  H130  S    
C158  C167  A    
C65   C87   S    
C3    I15   S    
Cu7   O21   S    
C178  H53   S    
C83   C166  S    
C98   H103  S    
Cu1   O15   S    
C134  H49   S    
C120  H20   S    
C185  C190  A    
C136  H47   S    
C3    C8    A    
Cu10  O35   S    
C101  C137  A    
Cu11  O26   S    
C167  C171  A    
C123  H27   S    
C133  H51   S    
C83   H85   S    
Cu9   O28   S    
C17   C21   A    
C23   C31   A    
C19   C23   A    
C103  H125  S    
Cu6   O9    S    
C124  C148  A    
C156  C160  A    
C4    C219  A    
C17   C96   S    
C80   I2    S    
C178  C182  A    
C117  H11   S    
C9    C220  A    
Cu12  O2    S    
C56   H76   S    
C27   C93   S    
C129  H30   S    
C77   C204  S    
Cu8   O22   S    
C102  H111  S    
C39   C47   A    
C92   H89   S    
C170  C174  A    
C32   H63   S    
C214  O46   A    
C152  C157  A    
C141  C168  A    
C146  C181  A    
C84   C88   S    
C140  C145  A    
C60   H80   S    
C206  H69   S    
C134  C136  S    
C119  H6    S    
C63   C74   A    
C138  C151  A    
C203  O37   A    
C59   C63   A    
C60   C64   A    
Cu4   O3    S    
C130  C131  S    
C78   C205  S    
C27   C66   S    
C54   H74   S    
Cu3   O4    S    
C111  H133  S    
C45   C50   A    
C94   H92   S    
C47   C53   A    
Cu5   O23   S    
C197  O25   A    
C161  O14   A    
C119  H8    S    
C25   C36   A    
C13   C146  A    
C39   C109  S    
Cu9   O31   S    
C97   H107  S    
C102  H113  S    
C55   H75   S    
C66   C200  S    
C133  H50   S    
C174  H35   S    
C56   C61   A    
C25   C31   A    
C80   C206  S    
C188  C207  S    
C4    C216  S    
C124  C139  A    
C175  H46   S    
C171  C193  A    
C218  I12   S    
C128  C129  S    
C82   C208  S    
C97   C98   S    
C155  O13   A    
C144  O23   A    
C110  H137  S    
C150  I7    S    
C213  O45   A    
C201  O29   A    
C94   C188  S    
C197  O26   A    
C66   C88   S    
C27   I9    S    
C85   H87   S    
C115  C116  S    
C209  O40   A    
C163  O20   A    
C12   C19   A    
C153  C158  A    
C139  C165  A    
C68   C215  S    
C161  O18   A    
C181  H56   S    
C69   C82   S    
C217  O7    A    
C36   H66   S    
C131  H40   S    
C151  I8    S    
C74   C77   A    
C107  C108  S    
C62   C73   A    
C96   H108  S    
C166  C205  S    
C143  C179  A    
Cu4   O8    S    
C164  C199  S    
C95   H93   S    
C23   C34   A    
C140  C167  A    
C149  I6    S    
C154  H68   S    
C104  H121  S    
C43   C209  S    
C10   C31   A    
C204  O38   A    
C53   C60   A    
C112  O10   A    
C47   C50   A    
C1    C187  S    
C111  H135  S    
C109  H139  S    
C201  O33   A    
C202  O30   A    
C157  C165  A    
C93   C177  S    
Cu6   O19   S    
C45   C52   A    
C49   C55   A    
C78   I16   S    
C125  H26   S    
C16   H62   S    
C163  C188  S    
C53   H73   S    
C162  O15   A    
Cu3   O46   S    
C84   H86   S    
C67   C201  S    
Cu10  O38   S    
C86   H88   S    
Cu8   O32   S    
C46   C213  S    
C126  H22   S    
C42   C48   A    
C32   C37   A    
C75   C77   A    
C187  C192  A    
C93   H91   S    
Cu5   O16   S    
C67   C81   S    
C4    C218  A    
C2    C46   A    
C137  C150  A    
Cu1   O1    S    
C18   C99   S    
C116  H141  S    
Cu11  O30   S    
Cu12  O5    S    
C22   C30   A    
C18   C22   A    
C142  C147  A    
C96   H109  S    
C148  C152  A    
C208  H71   S    
C108  H127  S    
C175  C180  A    
C66   C80   S    
C79   C124  A    
C86   C199  S    
C117  C118  S    
C122  H14   S    
C215  O4    A    
C79   H98   S    
C134  H48   S    
C159  C185  A    
C180  H55   S    
C73   H82   S    
C176  H52   S    
C154  C159  A    
Cu12  O40   S    
C162  O19   A    
C87   C123  S    
C90   C135  A    
C42   C120  S    
C121  H18   S    
C144  C190  S    
C173  C178  A    
C35   C79   A    
C199  C208  S    
Cu5   Cu7   S    
C64   C75   A    
C215  O47   A    
C84   C177  S    
C191  C195  A    
C91   C95   S    
C65   C198  S    
C189  C193  A    
C183  H90   S    
C212  O44   A    
C169  C173  A    
C41   C117  S    
C69   C91   S    
C81   C85   S    
C172  C176  A    
C122  H15   S    
C101  H100  S    
C61   C70   A    
C58   C62   A    
C7    C10   A    
C83   C87   S    
C80   C84   S    
C115  H3    S    
C107  H129  S    
C76   C203  S    
C120  C121  S    
C2    C145  A    
C200  O32   A    
C98   H104  S    
Cu1   O14   S    
C106  H132  S    
C196  O22   A    
Cu2   O45   S    
C35   C210  A    
C164  O17   A    
C88   C127  S    
C86   C91   S    
C6    C12   A    
C123  C125  S    
C20   C25   A    
C2    H95   S    
C64   C71   A    
C186  C191  A    
C29   C69   S    
Cu8   Cu9   S    
Cu6   O10   S    
C7    C218  A    
C78   C83   S    
Cu5   O34   S    
C11   C30   A    
C153  H57   S    
C160  C169  A    
C130  H42   S    
C20   C106  S    
C219  I13   S    
C116  H143  S    
C72   C76   A    
C68   C113  A    
C105  H119  S    
C87   C92   S    
C207  H70   S    
C176  C181  A    
C129  H29   S    
C143  C210  A    
C28   I10   S    
C135  C140  A    
C163  O16   A    
Cu4   O47   S    
C14   C20   A    
C216  O5    A    
C151  C156  A    
C74   H83   S    
C127  H36   S    
C132  H37   S    
C85   C89   S    
C152  H1    S    
C82   C86   S    
Cu1   Cu6   S    
C24   C147  A    
C204  O39   A    
C33   C37   A    
C89   C130  S    
C100  H115  S    
C50   C71   A    
C183  C187  A    
C1    O9    A    
C111  H136  S    
Cu6   O18   S    
C209  O41   A    
C198  O31   A    
C121  C122  S    
C141  C146  A    
Cu10  O25   S    
C61   C72   A    
C156  H79   S    
C90   H99   S    
Cu8   O27   S    
C138  C142  A    
C125  C126  S    
C73   C76   A    
C26   C205  S    
C106  H131  S    
C131  C132  S    
C57   C101  A    
C99   H116  S    
C165  C170  A    
C15   C17   A    
C137  C141  A    
C65   C78   S    
C196  O24   A    
C213  O2    A    
C3    C5    A    
C6    C10   A    
C59   H78   S    
C46   C90   A    
C26   I1    S    
C123  H28   S    
Cu8   O36   S    
C21   C30   A    
C110  H138  S    
Cu9   O37   S    
C35   C212  S    
C27   C206  S    
C44   C211  S    
C36   C38   A    
C108  H126  S    
C109  C110  S    
Cu7   O13   S    
C145  C180  A    
C82   I4    S    
C128  H32   S    
Cu10  Cu11  S    
C33   H64   S    
C24   C68   A    
C117  H12   S    
C168  C172  A    
C13   C57   A    
C55   C58   A    
C103  C104  S    
C28   C207  S    
C113  C138  A    
C157  C183  A    
C129  H31   S    
C158  C184  A    
C102  H110  S    
C186  H123  S    
Cu9   O24   S    
C104  H122  S    
C127  H34   S    
Cu5   O17   S    
C52   H72   S    
C120  H19   S    
C160  C186  A    
C205  H67   S    
C119  H7    S    
C113  H102  S    
C132  H39   S    
C177  C206  S    
C48   C54   A    
C9    C16   A    
C8    C11   A    
C98   H105  S    
C5    C220  A    
Cu2   O6    S    
C125  H25   S    
C212  O48   A    
C1    O1    A    
C159  C168  A    
C118  C119  S    
C115  H144  S    
C103  H124  S    
C19   C103  S    
C48   C51   A    
C40   C114  S    
C194  H13   S    
C173  C195  A    
C126  H23   S    
C13   H96   S    
C211  O43   A    
C97   H106  S    
C161  C166  S    
Cu7   O20   S    
C200  O28   A    
C136  H44   S    
C139  C143  A    
C164  O21   A    
C58   H77   S    
C116  H142  S    
C7    C14   A    
C39   C43   A    
C21   C32   A    
C54   C56   A    
C118  H10   S    
C105  H118  S    
C37   C196  S    
C28   C67   S    
C108  H128  S    
C29   C95   S    
Cu7   O11   S    
C114  H4    S    
C211  O42   A    
C135  C149  A    
C171  C175  A    
C220  I14   S    
C52   C59   A    
C92   C166  S    
C57   C214  S    
C217  O8    A    
C121  H17   S    
C99   C100  S    
C91   C133  S    
C96   C97   S    
C100  C102  S    
C38   C197  S    
C100  H114  S    
Cu12  O44   S    
C182  H58   S    
C9    C11   A    
C155  C191  S    
C81   I3    S    
C114  H5    S    
C16   C18   A    
C51   C70   A    
C210  H94   S    
C142  C169  A    
Cu4   O43   S    
C14   H60   S    
C24   H97   S    
C147  C182  A    
C122  H16   S    
C203  O36   A    
Cu11  O33   S    
C22   C33   A    
C88   C93   S    
C15   H61   S    
C170  C192  A    
C109  H140  S    
C34   C38   A    
C26   C65   S    
C184  H101  S    
C75   H84   S    
C63   C71   A    
C99   H117  S    
Cu3   O7    S    
C8    C15   A    
C179  H54   S    
C192  H134  S    
C198  O27   A    
C136  H45   S    
C133  C134  S    
C34   H65   S    
C144  O11   A    
C41   C44   A    
C126  H21   S    
C190  C194  A    
Cu2   Cu12  S    
C6    C219  A    
C112  O12   A    
C69   C202  S    
C40   C45   A    
Cu1   O12   S    
C95   C199  S    
C150  C154  A    
C67   C89   S    
C184  C189  A    
C130  H43   S    
C174  C179  A    
C127  C128  S    
