data_mof_unit_65558.cif
_audit_creation_date              2012-12-10T18:12:21-0500
_audit_creation_method            fapswitch 2.2
_symmetry_space_group_name_H-M    P1
_symmetry_Int_Tables_number       1
_space_group_crystal_system       monoclinic
_cell_length_a                    18.335421
_cell_length_b                    18.335421
_cell_length_c                    43.158787
_cell_angle_alpha                 90.0
_cell_angle_beta                  90.0
_cell_angle_gamma                 89.999925
_cell_volume                      14509.4517501

loop_
_atom_site_label
_atom_site_type_symbol
_atom_type_description
_atom_site_fract_x
_atom_site_fract_y
_atom_site_fract_z
_atom_type_partial_charge
C1    C     C_R   0.999919 0.433879 0.884699 -0.125770
C2    C     C_R   0.500076 0.066121 0.615300 -0.125770
C3    C     C_R   0.256274 0.690258 0.269956 -0.136617
C4    C     C_R   0.690262 0.743731 0.730041 -0.136837
C5    C     C_R   0.309737 0.256269 0.269958 -0.136837
C6    C     C_R   0.256274 0.690258 0.730044 -0.136617
C7    C     C_R   0.743726 0.309742 0.269956 -0.136617
C8    C     C_R   0.309742 0.743726 0.269956 -0.136617
C9    C     C_R   0.690258 0.256274 0.730044 -0.136617
C10   C     C_R   0.743731 0.690262 0.269958 -0.136837
C11   C     C_R   0.256269 0.309737 0.730041 -0.136837
C12   C     C_R   0.690258 0.256274 0.269956 -0.136617
C13   C     C_R   0.066121 0.500095 0.384699 -0.125770
C14   C     C_R   0.309742 0.743726 0.730044 -0.136617
C15   C     C_R   0.256269 0.309737 0.269958 -0.136837
C16   C     C_R   0.743731 0.690262 0.730041 -0.136837
C17   C     C_R   0.809737 0.756269 0.230041 -0.136838
C18   C     C_R   0.190262 0.243731 0.769958 -0.136838
C19   C     C_R   0.243726 0.809742 0.230044 -0.136617
C20   C     C_R   0.756274 0.190258 0.769956 -0.136617
C21   C     C_R   0.190262 0.243731 0.230041 -0.136838
C22   C     C_R   0.809737 0.756269 0.769958 -0.136838
C23   C     C_R   0.756274 0.190258 0.230044 -0.136617
C24   C     C_R   0.933879 0.499903 0.615300 -0.125770
C25   C     C_R   0.243726 0.809742 0.769956 -0.136617
C26   C     C_R   0.809742 0.243726 0.769956 -0.136617
C27   C     C_R   0.190258 0.756274 0.230044 -0.136617
C28   C     C_R   0.243731 0.190262 0.769958 -0.136838
C29   C     C_R   0.756269 0.809738 0.230041 -0.136838
C30   C     C_R   0.190258 0.756274 0.769956 -0.136617
C31   C     C_R   0.809742 0.243726 0.230044 -0.136617
C32   C     C_R   0.756269 0.809737 0.769958 -0.136838
C33   C     C_R   0.243731 0.190262 0.230041 -0.136838
C34   C     C_R   0.196253 0.303747 0.750000 0.040195
C35   C     C_R   0.500078 0.066121 0.384699 -0.125770
C36   C     C_R   0.803747 0.696253 0.250000 0.040195
C37   C     C_R   0.696253 0.196253 0.750000 0.040182
C38   C     C_R   0.303747 0.803747 0.250000 0.040182
C39   C     C_R   0.803747 0.696253 0.750000 0.040195
C40   C     C_R   0.196253 0.303747 0.250000 0.040195
C41   C     C_R   0.303747 0.803747 0.750000 0.040182
C42   C     C_R   0.696253 0.196253 0.250000 0.040182
C43   C     C_R   0.196253 0.696253 0.250000 0.040182
C44   C     C_R   0.803747 0.303747 0.750000 0.040182
C45   C     C_R   0.696253 0.803747 0.250000 0.040195
C46   C     C_R   0.499924 0.933878 0.615300 -0.125770
C47   C     C_R   0.303747 0.196253 0.750000 0.040195
C48   C     C_R   0.803747 0.303747 0.250000 0.040182
C49   C     C_R   0.196253 0.696253 0.750000 0.040182
C50   C     C_R   0.303747 0.196253 0.250000 0.040195
C51   C     C_R   0.696253 0.803747 0.750000 0.040195
C52   C     C_R   0.933879 0.499904 0.384699 -0.125770
C53   C     C_R   0.066121 0.500097 0.615300 -0.125770
C54   C     C_R   0.000000 0.500000 0.933355 0.030819
C55   C     C_R   1.000000 0.500000 0.066645 0.030819
C56   C     C_R   0.500000 1.000000 0.933355 0.030819
C57   C     C_R   0.000079 0.566121 0.115300 -0.125770
C58   C     C_R   0.500000 0.000000 0.066645 0.030819
C59   C     C_R   0.500000 1.000000 0.433355 0.030820
C60   C     C_R   0.500000 0.000000 0.566645 0.030820
C61   C     C_R   1.000000 0.500000 0.433355 0.030820
C62   C     C_R   1.000000 0.500000 0.566645 0.030820
C63   C     C_R   0.999947 0.433899 0.916971 -0.124012
C64   C     C_R   0.000051 0.566101 0.083029 -0.124012
C65   C     C_R   0.566101 0.000041 0.916971 -0.124012
C66   C     C_R   0.433899 0.999956 0.083029 -0.124012
C67   C     C_R   0.000053 0.566101 0.916971 -0.124012
C68   C     C_R   0.566121 0.000069 0.884699 -0.125770
C69   C     C_R   0.999949 0.433899 0.083029 -0.124012
C70   C     C_R   0.433899 0.999959 0.916971 -0.124012
C71   C     C_R   0.566101 0.000044 0.083029 -0.124012
C72   C     C_R   0.499949 0.933898 0.416971 -0.124012
C73   C     C_R   0.500049 0.066101 0.583029 -0.124012
C74   C     C_R   0.066101 0.500068 0.416971 -0.124012
C75   C     C_R   0.933899 0.499931 0.583029 -0.124012
C76   C     C_R   0.500050 0.066102 0.416971 -0.124012
C77   C     C_R   0.499951 0.933898 0.583029 -0.124012
C78   C     C_R   0.933898 0.499932 0.416971 -0.124012
C79   C     C_R   0.433879 0.999928 0.115300 -0.125770
C80   C     C_R   0.066101 0.500069 0.583029 -0.124012
C81   C     C_R   0.000000 0.500000 0.868287 0.036286
C82   C     C_R   1.000000 0.500000 0.131713 0.036285
C83   C     C_R   0.500000 0.000000 0.868287 0.036285
C84   C     C_R   0.500000 0.000000 0.131713 0.036286
C85   C     C_R   0.500000 0.000000 0.368287 0.036286
C86   C     C_R   0.500000 0.000000 0.631713 0.036286
C87   C     C_R   0.000000 0.500000 0.368287 0.036286
C88   C     C_R   1.000000 0.500000 0.631713 0.036286
C89   C     C_R   0.954859 0.548311 0.983866 -0.114518
C90   C     C_R   0.000081 0.566121 0.884699 -0.125770
C91   C     C_R   0.045141 0.451689 0.016134 -0.114518
C92   C     C_R   0.451696 0.045148 0.983866 -0.114518
C93   C     C_R   0.548304 0.954852 0.016134 -0.114518
C94   C     C_R   0.045141 0.451689 0.983866 -0.114518
C95   C     C_R   0.954859 0.548311 0.016134 -0.114518
C96   C     C_R   0.548304 0.954852 0.983866 -0.114518
C97   C     C_R   0.451696 0.045148 0.016134 -0.114518
C98   C     C_R   0.454858 0.048310 0.483866 -0.114518
C99   C     C_R   0.545142 0.951690 0.516134 -0.114518
C100  C     C_R   0.951676 0.545127 0.483866 -0.114518
C101  C     C_R   0.999921 0.433879 0.115300 -0.125770
C102  C     C_R   0.048324 0.454873 0.516134 -0.114518
C103  C     C_R   0.545142 0.951690 0.483866 -0.114518
C104  C     C_R   0.454858 0.048310 0.516134 -0.114518
C105  C     C_R   0.048324 0.454873 0.483866 -0.114518
C106  C     C_R   0.951676 0.545126 0.516134 -0.114518
C107  C     C_R   0.500000 0.000000 0.532519 0.031348
C108  C     C_R   0.500000 1.000000 0.467481 0.031348
C109  C     C_R   1.000000 0.500000 0.532519 0.031348
C110  C     C_R   1.000000 0.500000 0.467481 0.031348
C111  C     C_R   1.000000 0.500000 0.032519 0.031347
C112  C     C_R   0.433879 0.999931 0.884699 -0.125770
C113  C     C_R   0.000000 0.500000 0.967481 0.031347
C114  C     C_R   0.500000 0.000000 0.032519 0.031347
C115  C     C_R   0.500000 1.000000 0.967481 0.031347
C116  C     C_R   0.500000 0.000000 0.834227 0.502570
C117  C     C_R   0.500000 0.000000 0.165773 0.502570
C118  C     C_R   1.000000 0.500000 0.834227 0.502570
C119  C     C_R   1.000000 0.500000 0.165773 0.502570
C120  C     C_R   0.000000 0.500000 0.334227 0.502571
C121  C     C_R   1.000000 0.500000 0.665773 0.502571
C122  C     C_R   0.500000 0.000000 0.334227 0.502570
C123  C     C_R   0.566121 0.000072 0.115300 -0.125770
C124  C     C_R   0.500000 0.000000 0.665773 0.502570
C125  C     C_R   0.640099 0.140099 0.750000 0.506348
C126  C     C_R   0.359901 0.859901 0.250000 0.506348
C127  C     C_R   0.859901 0.640099 0.750000 0.506250
C128  C     C_R   0.140099 0.359901 0.250000 0.506250
C129  C     C_R   0.359901 0.859901 0.750000 0.506348
C130  C     C_R   0.640099 0.140099 0.250000 0.506348
C131  C     C_R   0.140099 0.359901 0.750000 0.506250
C132  C     C_R   0.859901 0.640099 0.250000 0.506250
C133  C     C_R   0.640099 0.859901 0.250000 0.506249
C134  C     C_R   0.499922 0.933878 0.384699 -0.125770
C135  C     C_R   0.359901 0.140099 0.750000 0.506249
C136  C     C_R   0.859901 0.359901 0.250000 0.506348
C137  C     C_R   0.140099 0.640099 0.750000 0.506348
C138  C     C_R   0.359901 0.140099 0.250000 0.506249
C139  C     C_R   0.640099 0.859901 0.750000 0.506249
C140  C     C_R   0.140099 0.640099 0.250000 0.506348
C141  C     C_R   0.859901 0.359901 0.750000 0.506348
C142  C     C_R   0.309737 0.256269 0.730041 -0.136837
C143  C     C_R   0.690262 0.743731 0.269958 -0.136837
C144  C     C_R   0.743726 0.309742 0.730044 -0.136617
H1    H     H_    0.999661 0.382086 0.872638 0.132675
H2    H     H_    0.500330 0.117915 0.627362 0.132674
H3    H     H_    0.117915 0.500365 0.372638 0.132675
H4    H     H_    0.882085 0.499632 0.627362 0.132675
H5    H     H_    0.500334 0.117915 0.372638 0.132674
H6    H     H_    0.499670 0.882085 0.627362 0.132674
H7    H     H_    0.882085 0.499635 0.372638 0.132675
H8    H     H_    0.117914 0.500367 0.627362 0.132675
H9    H     H_    0.918801 0.585326 0.971710 0.103725
H10   H     H_    0.081199 0.414674 0.028289 0.103724
H11   H     H_    0.414686 0.081211 0.971710 0.103725
H12   H     H_    0.000336 0.617914 0.127362 0.132675
H13   H     H_    0.585314 0.918789 0.028290 0.103725
H14   H     H_    0.081199 0.414674 0.971710 0.103725
H15   H     H_    0.918801 0.585326 0.028289 0.103724
H16   H     H_    0.585314 0.918789 0.971710 0.103725
H17   H     H_    0.414686 0.081211 0.028290 0.103725
H18   H     H_    0.418800 0.085326 0.471710 0.103724
H19   H     H_    0.581200 0.914674 0.528289 0.103724
H20   H     H_    0.914650 0.581174 0.471710 0.103723
H21   H     H_    0.085350 0.418827 0.528289 0.103723
H22   H     H_    0.581200 0.914674 0.471710 0.103724
H23   H     H_    0.617914 0.000317 0.872638 0.132675
H24   H     H_    0.418800 0.085325 0.528289 0.103724
H25   H     H_    0.085350 0.418826 0.471710 0.103723
H26   H     H_    0.914649 0.581173 0.528289 0.103723
H27   H     H_    0.355640 0.261989 0.714432 0.136160
H28   H     H_    0.644360 0.738011 0.285567 0.136160
H29   H     H_    0.738002 0.355648 0.714437 0.136338
H30   H     H_    0.261998 0.644352 0.285562 0.136338
H31   H     H_    0.644360 0.738011 0.714432 0.136160
H32   H     H_    0.355640 0.261989 0.285567 0.136160
H33   H     H_    0.261998 0.644352 0.714437 0.136338
H34   H     H_    0.382085 0.999678 0.127362 0.132675
H35   H     H_    0.738002 0.355648 0.285562 0.136338
H36   H     H_    0.355648 0.738002 0.285562 0.136338
H37   H     H_    0.644352 0.261998 0.714437 0.136338
H38   H     H_    0.738011 0.644360 0.285567 0.136161
H39   H     H_    0.261989 0.355640 0.714432 0.136161
H40   H     H_    0.644352 0.261998 0.285562 0.136338
H41   H     H_    0.355648 0.738002 0.714437 0.136338
H42   H     H_    0.261989 0.355640 0.285567 0.136161
H43   H     H_    0.738011 0.644360 0.714432 0.136161
H44   H     H_    0.855640 0.761989 0.214432 0.136160
H45   H     H_    0.000339 0.617914 0.872638 0.132675
H46   H     H_    0.144360 0.238011 0.785567 0.136160
H47   H     H_    0.238002 0.855648 0.214437 0.136338
H48   H     H_    0.761998 0.144352 0.785562 0.136338
H49   H     H_    0.144360 0.238011 0.214432 0.136160
H50   H     H_    0.855640 0.761989 0.785567 0.136160
H51   H     H_    0.761998 0.144352 0.214437 0.136338
H52   H     H_    0.238002 0.855648 0.785562 0.136338
H53   H     H_    0.855648 0.238002 0.785562 0.136338
H54   H     H_    0.144352 0.761998 0.214437 0.136338
H55   H     H_    0.238011 0.144360 0.785567 0.136160
H56   H     H_    0.999664 0.382086 0.127362 0.132675
H57   H     H_    0.761989 0.855640 0.214432 0.136160
H58   H     H_    0.144352 0.761998 0.785562 0.136338
H59   H     H_    0.855648 0.238002 0.214437 0.136338
H60   H     H_    0.761989 0.855640 0.785567 0.136160
H61   H     H_    0.238011 0.144360 0.214432 0.136160
H62   H     H_    0.999018 0.382236 0.929130 0.105461
H63   H     H_    0.000979 0.617764 0.070870 0.105461
H64   H     H_    0.617765 0.000961 0.929130 0.105461
H65   H     H_    0.382235 0.999035 0.070870 0.105461
H66   H     H_    0.000982 0.617764 0.929130 0.105462
H67   H     H_    0.382086 0.999683 0.872638 0.132675
H68   H     H_    0.999021 0.382236 0.070870 0.105461
H69   H     H_    0.382235 0.999039 0.929130 0.105461
H70   H     H_    0.617765 0.000965 0.070870 0.105461
H71   H     H_    0.499023 0.882235 0.429130 0.105460
H72   H     H_    0.500974 0.117765 0.570870 0.105460
H73   H     H_    0.117765 0.501009 0.429130 0.105460
H74   H     H_    0.882236 0.498989 0.570870 0.105461
H75   H     H_    0.500977 0.117765 0.429130 0.105460
H76   H     H_    0.499026 0.882235 0.570870 0.105460
H77   H     H_    0.882235 0.498991 0.429130 0.105460
H78   H     H_    0.617915 0.000322 0.127362 0.132675
H79   H     H_    0.117764 0.501011 0.570870 0.105461
H80   H     H_    0.499666 0.882085 0.372638 0.132674
O1    O     O_3   0.500000 1.000000 0.750000 -0.433178
O2    O     O_R   0.439140 0.000000 0.180550 -0.547907
O3    O     O_R   0.000000 0.560860 0.819450 -0.547907
O4    O     O_R   0.000000 0.439140 0.180550 -0.547907
O5    O     O_R   0.939140 0.500000 0.319450 -0.547908
O6    O     O_R   0.060860 0.500000 0.680550 -0.547908
O7    O     O_R   0.500000 0.939140 0.319450 -0.547907
O8    O     O_R   0.500000 0.060860 0.680550 -0.547907
O9    O     O_R   0.060860 0.500000 0.319450 -0.547908
O10   O     O_R   0.939140 0.500000 0.680550 -0.547908
O11   O     O_R   0.500000 0.060860 0.319450 -0.547907
O12   O     O_3   0.500000 0.000000 0.250000 -0.433178
O13   O     O_R   0.500000 0.939140 0.680550 -0.547907
O14   O     O_R   0.646030 0.085480 0.768310 -0.549425
O15   O     O_R   0.353970 0.914520 0.231690 -0.549425
O16   O     O_R   0.914520 0.646030 0.768310 -0.549502
O17   O     O_R   0.085480 0.353970 0.231690 -0.549502
O18   O     O_R   0.353970 0.914520 0.768310 -0.549425
O19   O     O_R   0.646030 0.085480 0.231690 -0.549425
O20   O     O_R   0.085480 0.353970 0.768310 -0.549502
O21   O     O_R   0.914520 0.646030 0.231690 -0.549502
O22   O     O_R   0.646030 0.914520 0.231690 -0.549502
O23   O     O_3   1.000000 0.500000 0.750000 -0.433178
O24   O     O_R   0.353970 0.085480 0.768310 -0.549502
O25   O     O_R   0.914520 0.353970 0.231690 -0.549425
O26   O     O_R   0.085480 0.646030 0.768310 -0.549425
O27   O     O_R   0.353970 0.085480 0.231690 -0.549502
O28   O     O_R   0.646030 0.914520 0.768310 -0.549502
O29   O     O_R   0.085480 0.646030 0.231690 -0.549425
O30   O     O_R   0.914520 0.353970 0.768310 -0.549426
O31   O     O_R   0.146030 0.585480 0.268310 -0.549426
O32   O     O_R   0.853970 0.414520 0.731690 -0.549426
O33   O     O_R   0.414520 0.146030 0.268310 -0.549501
O34   O     O_3   0.000000 0.500000 0.250000 -0.433178
O35   O     O_R   0.585480 0.853970 0.731690 -0.549501
O36   O     O_R   0.853970 0.414520 0.268310 -0.549426
O37   O     O_R   0.146030 0.585480 0.731690 -0.549426
O38   O     O_R   0.585480 0.853970 0.268310 -0.549501
O39   O     O_R   0.414520 0.146030 0.731690 -0.549501
O40   O     O_R   0.146030 0.414520 0.731690 -0.549501
O41   O     O_R   0.853970 0.585480 0.268310 -0.549501
O42   O     O_R   0.414520 0.853970 0.731690 -0.549426
O43   O     O_R   0.585480 0.146030 0.268310 -0.549426
O44   O     O_R   0.853970 0.585480 0.731690 -0.549501
O45   O     O_R   0.439140 0.000000 0.819450 -0.547907
O46   O     O_R   0.146030 0.414520 0.268310 -0.549501
O47   O     O_R   0.585480 0.146030 0.731690 -0.549426
O48   O     O_R   0.414520 0.853970 0.268310 -0.549426
O49   O     O_R   0.560860 0.000000 0.180550 -0.547907
O50   O     O_R   0.000000 0.439140 0.819450 -0.547907
O51   O     O_R   0.000000 0.560860 0.180550 -0.547907
O52   O     O_R   0.560860 0.000000 0.819450 -0.547907
Zn1   Zn    Zn3+2 0.500000 0.086800 0.724180 0.931527
Zn2   Zn    Zn3+2 0.000000 0.413200 0.775820 0.931527
Zn3   Zn    Zn3+2 0.413200 0.000000 0.224180 0.931527
Zn4   Zn    Zn3+2 0.586800 0.000000 0.775820 0.931527
Zn5   Zn    Zn3+2 1.000000 0.413200 0.224180 0.931527
Zn6   Zn    Zn3+2 1.000000 0.586800 0.775820 0.931527
Zn7   Zn    Zn3+2 0.586800 0.000000 0.224180 0.931527
Zn8   Zn    Zn3+2 0.413200 0.000000 0.775820 0.931527
Zn9   Zn    Zn3+2 0.500000 0.913200 0.275820 0.931527
Zn10  Zn    Zn3+2 0.913200 0.500000 0.724180 0.931527
Zn11  Zn    Zn3+2 0.086800 0.500000 0.275820 0.931527
Zn12  Zn    Zn3+2 0.500000 0.913200 0.724180 0.931527
Zn13  Zn    Zn3+2 0.500000 0.086800 0.275820 0.931527
Zn14  Zn    Zn3+2 0.086800 0.500000 0.724180 0.931527
Zn15  Zn    Zn3+2 0.913200 0.500000 0.275820 0.931527
Zn16  Zn    Zn3+2 1.000000 0.586800 0.224180 0.931527

loop_
_geom_bond_atom_site_label_1
_geom_bond_atom_site_label_2
_ccdc_geom_bond_type
O34   Zn15  S    
C99   C103  A    
C105  C110  A    
C28   C47   A    
O12   Zn3   S    
C101  H56   S    
C65   H64   S    
C66   C79   A    
C105  H25   S    
C125  O47   A    
C126  O48   A    
C132  O21   A    
C21   C33   A    
C54   C63   A    
C40   C128  S    
C98   C108  A    
C116  O52   A    
C26   H53   S    
C12   C42   A    
O52   Zn4   S    
C84   C117  S    
C136  O36   A    
C53   H8    S    
C133  O22   A    
C127  O16   A    
O12   Zn7   S    
C8    C38   A    
O18   Zn8   S    
C98   H18   S    
C30   H58   S    
C89   C113  A    
C117  O49   A    
C3    C8    A    
C25   C41   A    
C33   C50   A    
C29   C45   A    
C23   C31   A    
C45   C133  S    
C8    H36   S    
C65   C68   A    
O37   Zn14  S    
O22   Zn7   S    
C124  O8    A    
C60   C107  S    
C70   C112  A    
C130  O43   A    
C30   C49   A    
C134  H80   S    
C31   C48   A    
C6    H33   S    
C10   H38   S    
C5    H32   S    
C62   C75   A    
C116  O45   A    
O3    Zn6   S    
O24   Zn8   S    
C18   H46   S    
C55   C111  S    
C68   C83   A    
C128  O46   A    
C46   C77   A    
C50   C138  S    
C69   C101  A    
C61   C74   A    
C71   H70   S    
C100  C106  A    
C7    C48   A    
O23   Zn2   S    
O39   Zn1   S    
C91   C94   A    
C52   H7    S    
O23   Zn14  S    
O1    Zn4   S    
O34   Zn5   S    
C93   C114  A    
O35   Zn12  S    
C5    C15   A    
O47   Zn1   S    
C72   H71   S    
C121  O10   A    
O41   Zn15  S    
C83   C112  A    
C102  C109  A    
C140  O29   A    
O13   Zn12  S    
C104  C107  A    
C125  O14   A    
C19   H47   S    
C80   H79   S    
O4    Zn5   S    
C49   C137  S    
C1    H1    S    
O6    Zn14  S    
C137  O26   A    
C26   C44   A    
C12   H40   S    
C122  O7    A    
C33   H61   S    
C22   C32   A    
C95   H15   S    
C141  O30   A    
C71   C123  A    
C143  H28   S    
O23   Zn6   S    
O14   Zn4   S    
O51   Zn16  S    
C36   C132  S    
C79   C84   A    
C129  O18   A    
C17   H44   S    
O1    Zn8   S    
C132  O41   A    
C44   C141  S    
C63   H62   S    
C117  O2    A    
C73   H72   S    
C17   C36   A    
O12   Zn13  S    
C85   C134  A    
O16   Zn6   S    
C106  H26   S    
C61   C110  S    
C38   C126  S    
C94   C113  A    
C92   C97   A    
C7    C12   A    
C57   H12   S    
C35   C76   A    
C28   H55   S    
C4    C51   A    
C112  H67   S    
O5    Zn15  S    
C53   C80   A    
C18   C28   A    
C42   C130  S    
C14   H41   S    
O48   Zn9   S    
C67   C90   A    
O15   Zn3   S    
O34   Zn11  S    
C4    C16   A    
C120  O9    A    
C6    C14   A    
C3    H30   S    
C13   C87   A    
O32   Zn10  S    
C43   C140  S    
C140  O31   A    
C2    C73   A    
C55   C69   A    
C25   H52   S    
C14   C41   A    
C99   H19   S    
C34   C131  S    
C97   H17   S    
C86   C124  S    
C13   H3    S    
C118  O50   A    
O34   Zn16  S    
C46   H6    S    
C47   C135  S    
C141  O32   A    
C48   C136  S    
O11   Zn13  S    
O12   Zn9   S    
C93   C96   A    
C35   H5    S    
C20   C37   A    
C35   C85   A    
C21   C40   A    
C22   C39   A    
C92   H11   S    
O2    Zn3   S    
O27   Zn3   S    
C9    H37   S    
C129  O42   A    
O42   Zn12  S    
C23   H51   S    
C58   C114  S    
O1    Zn1   S    
C57   C82   A    
C21   H49   S    
C97   C114  A    
C59   C76   A    
C142  H27   S    
C106  C109  A    
C51   C139  S    
C100  C110  A    
C17   C29   A    
C139  O28   A    
O46   Zn11  S    
C84   C123  A    
C135  O39   A    
C27   H54   S    
O25   Zn5   S    
C131  O20   A    
C58   C71   A    
C1    C81   A    
O31   Zn11  S    
C60   C73   A    
C102  C105  A    
C139  O35   A    
C59   C72   A    
C122  O11   A    
C94   H14   S    
C128  O17   A    
C82   C119  S    
O23   Zn10  S    
C52   C78   A    
C126  O15   A    
C83   C116  S    
C9    C144  A    
C52   C87   A    
C15   H42   S    
C29   H57   S    
C127  O44   A    
O33   Zn13  S    
O1    Zn12  S    
C91   H10   S    
C81   C118  S    
O8    Zn1   S    
C89   C95   A    
C32   C51   A    
C19   C38   A    
C72   C134  A    
O20   Zn2   S    
C85   C122  S    
C100  H20   S    
C69   H68   S    
C24   C88   A    
C136  O25   A    
O29   Zn16  S    
C62   C80   A    
C25   C30   A    
C70   H69   S    
C88   C121  S    
C16   H43   S    
C120  O5    A    
C20   H48   S    
C24   C75   A    
C64   H63   S    
C118  O3    A    
C99   C107  A    
O28   Zn4   S    
O30   Zn2   S    
O9    Zn11  S    
C56   C115  S    
C92   C115  A    
C15   C40   A    
C16   C39   A    
C119  O51   A    
C27   C43   A    
C13   C74   A    
C45   C143  A    
O7    Zn9   S    
C10   C36   A    
C76   H75   S    
C32   H60   S    
C62   C109  S    
C47   C142  A    
C3    C43   A    
C23   C42   A    
C56   C65   A    
C54   C113  S    
C67   H66   S    
C91   C111  A    
O19   Zn7   S    
C58   C66   A    
C144  H29   S    
C96   C115  A    
C103  C108  A    
C19   C27   A    
C31   H59   S    
C138  O33   A    
O26   Zn6   S    
C1    C63   A    
C37   C125  S    
O21   Zn16  S    
C133  O38   A    
C123  H78   S    
C60   C77   A    
C39   C127  S    
O49   Zn7   S    
O43   Zn13  S    
C11   H39   S    
C119  O4    A    
C138  O27   A    
C24   H4    S    
C54   C67   A    
C75   H74   S    
O10   Zn10  S    
C4    H31   S    
C104  H24   S    
C130  O19   A    
C89   H9    S    
C61   C78   A    
C44   C144  A    
C55   C64   A    
C9    C37   A    
C79   H34   S    
C7    H35   S    
O45   Zn8   S    
O40   Zn14  S    
C66   H65   S    
C93   H13   S    
C18   C34   A    
C96   H16   S    
C102  H21   S    
C56   C70   A    
C81   C90   A    
C57   C64   A    
C131  O40   A    
C121  O6    A    
O44   Zn10  S    
O50   Zn2   S    
C135  O24   A    
C11   C34   A    
O17   Zn5   S    
C77   H76   S    
C2    H2    S    
C59   C108  S    
C87   C120  S    
C95   C111  A    
C41   C129  S    
C124  O13   A    
C20   C26   A    
C98   C104  A    
C74   H73   S    
C82   C101  A    
C2    C86   A    
C53   C88   A    
C10   C143  A    
C6    C49   A    
C5    C50   A    
C11   C142  A    
O36   Zn15  S    
C78   H77   S    
C68   H23   S    
O38   Zn9   S    
C103  H22   S    
C22   H50   S    
C137  O37   A    
C46   C86   A    
C90   H45   S    
