data_mof_unit_65739.cif
_audit_creation_date              2012-12-10T16:41:27-0500
_audit_creation_method            fapswitch 2.2
_symmetry_space_group_name_H-M    P1
_symmetry_Int_Tables_number       1
_space_group_crystal_system       triclinic
_cell_length_a                    19.008563
_cell_length_b                    19.13549
_cell_length_c                    19.009467
_cell_angle_alpha                 110.157024
_cell_angle_beta                  109.531548
_cell_angle_gamma                 109.620437
_cell_volume                      5262.98643279

loop_
_atom_site_label
_atom_site_type_symbol
_atom_type_description
_atom_site_fract_x
_atom_site_fract_y
_atom_site_fract_z
_atom_type_partial_charge
C1    C     C_R   0.382124 0.380039 0.496348 0.809183
C2    C     C_2   0.312927 0.307975 0.486512 -0.010582
C3    C     C_2   0.490853 0.174536 0.246760 -0.155617
C4    C     C_R   0.498190 0.615668 0.618623 0.790319
C5    C     C_2   0.508417 0.184704 0.187113 -0.312061
C6    C     C_2   0.502882 0.247580 0.320056 -0.157835
C7    C     C_2   0.489737 0.309255 0.310872 -0.317753
C8    C     C_2   0.818135 0.743635 0.494373 -0.152762
C9    C     C_2   0.822607 0.819120 0.508724 -0.313528
C10   C     C_2   0.757866 0.683352 0.506976 -0.153517
C11   C     C_2   0.681751 0.678109 0.492605 -0.317070
C12   C     C_R   0.497698 0.672129 0.758746 0.098123
C13   C     C_R   0.381942 0.995189 0.878227 0.851862
C14   C     C_R   0.502518 0.878749 0.881449 0.785227
C15   C     C_R   0.618148 0.998808 0.115595 0.831910
C16   C     C_R   0.617578 0.615680 0.498265 0.854715
C17   C     C_R   0.502114 0.115472 0.116739 0.846139
C18   C     C_R   0.880787 0.998200 0.382428 0.851757
C19   C     C_R   0.121263 0.117076 0.504393 0.851421
C20   C     C_R   0.119342 0.001866 0.617528 0.839915
C21   C     C_R   0.884519 0.882741 0.502122 0.845606
C22   C     C_2   0.250075 0.993205 0.675773 -0.155981
C23   C     C_R   0.496969 0.679325 0.686791 -0.098270
C24   C     C_2   0.189838 0.009057 0.686729 -0.309432
C25   C     C_2   0.322863 0.004642 0.748153 -0.157246
C26   C     C_2   0.312618 0.988582 0.808386 -0.313749
C27   C     C_2   0.750386 0.007299 0.322479 -0.156988
C28   C     C_R   0.497508 0.380042 0.380959 0.827098
C29   C     C_2   0.810769 0.990935 0.312714 -0.314349
C30   C     C_2   0.677539 0.994112 0.248592 -0.157100
C31   C     C_2   0.687390 0.006595 0.186511 -0.311665
C32   C     C_R   0.489422 0.597880 0.763630 -0.177390
C33   C     C_R   0.494990 0.594471 0.837246 -0.139297
C34   C     C_R   0.499195 0.750852 0.681184 -0.199690
C35   C     C_R   0.508862 0.664502 0.907156 -0.135125
C36   C     C_R   0.514163 0.737113 0.902616 -0.170890
C37   C     C_R   0.505423 0.740757 0.827245 0.095801
C38   C     C_3   0.254617 0.222429 0.398701 -0.426058
C39   C     C_3   0.263330 0.226171 0.322265 -0.333964
C40   C     C_3   0.206496 0.136942 0.239532 -0.850022
C41   C     C_R   0.503190 0.816175 0.746386 -0.201208
C42   C     C_R   0.505442 0.811511 0.818741 -0.096030
C43   C     C_2   0.223101 0.263883 0.550115 -0.166102
C44   C     C_2   0.199439 0.180646 0.517058 -0.327593
C45   C     C_2   0.297475 0.324904 0.553160 -0.189574
Cu1   Cu    Cu3+1 0.561020 0.499620 0.560640 0.946647
Cu2   Cu    Cu3+1 0.438980 0.500380 0.439360 0.938504
Cu3   Cu    Cu3+1 0.561070 0.057880 0.996780 0.950617
Cu4   Cu    Cu3+1 0.439050 0.935860 0.996810 0.945208
Cu5   Cu    Cu3+1 0.000000 0.061410 0.561410 0.949405
Cu6   Cu    Cu3+1 1.000000 0.938590 0.438590 0.947079
H1    H     H_    0.498725 0.756608 0.626284 0.154125
H2    H     H_    0.248778 0.976132 0.614425 0.161024
H3    H     H_    0.477464 0.541374 0.710638 0.144315
H4    H     H_    0.196296 0.035238 0.750602 0.154226
H5    H     H_    0.383809 0.021599 0.748947 0.160651
H6    H     H_    0.249147 0.962530 0.802282 0.154822
H7    H     H_    0.751409 0.025714 0.383787 0.161587
H8    H     H_    0.804486 0.963463 0.248997 0.153735
H9    H     H_    0.616784 0.978666 0.247955 0.159770
H10   H     H_    0.750679 0.031472 0.192134 0.154563
H11   H     H_    0.489178 0.537480 0.840301 0.136875
H12   H     H_    0.472457 0.113450 0.244973 0.160038
H13   H     H_    0.514938 0.662341 0.964954 0.137445
H14   H     H_    0.526335 0.790367 0.959148 0.151465
H15   H     H_    0.503174 0.870167 0.739661 0.152467
H16   H     H_    0.187558 0.288334 0.575355 0.173869
H17   H     H_    0.238789 0.157443 0.498695 0.151542
H18   H     H_    0.336325 0.390098 0.609683 0.125261
H19   H     H_    0.226255 0.091169 0.249659 0.255069
H20   H     H_    0.137198 0.111444 0.220694 0.255277
H21   H     H_    0.213903 0.141822 0.185602 0.248651
H22   H     H_    0.242963 0.270459 0.308986 0.242404
H23   H     H_    0.535686 0.248157 0.194145 0.155656
H24   H     H_    0.331740 0.249809 0.338311 0.216585
H25   H     H_    0.271582 0.174278 0.405991 0.199911
H26   H     H_    0.185503 0.199142 0.379961 0.226169
H27   H     H_    0.518250 0.248030 0.380686 0.161199
H28   H     H_    0.464932 0.303760 0.247614 0.156386
H29   H     H_    0.862359 0.727810 0.477802 0.163234
H30   H     H_    0.785344 0.839299 0.534641 0.152934
H31   H     H_    0.774029 0.639505 0.523106 0.163209
H32   H     H_    0.661379 0.715074 0.467131 0.152944
O1    O     O_R   0.462500 0.410660 0.551220 -0.598620
O2    O     O_R   0.910970 0.948690 0.359670 -0.586385
O3    O     O_R   0.089030 0.140870 0.551850 -0.582684
O4    O     O_R   0.359440 0.411300 0.448810 -0.594581
O5    O     O_R   0.089030 0.037160 0.448130 -0.593632
O6    O     O_R   0.089030 0.051310 0.640330 -0.588727
O7    O     O_R   0.089030 0.947590 0.536610 -0.586019
O8    O     O_R   0.910970 0.962840 0.551870 -0.590662
O9    O     O_R   0.910970 0.859130 0.448150 -0.579838
O10   O     O_R   0.551530 0.589280 0.640810 -0.587138
O11   O     O_R   0.448470 0.589920 0.538390 -0.582643
O12   O     O_R   0.359500 0.945890 0.908340 -0.583252
O13   O     O_R   0.640560 0.588700 0.551190 -0.575667
O14   O     O_R   0.537500 0.589340 0.448780 -0.587334
O15   O     O_R   0.551530 0.410080 0.461610 -0.579628
O16   O     O_R   0.448470 0.410720 0.359190 -0.594080
O17   O     O_R   0.462540 0.048930 0.908310 -0.581716
O18   O     O_R   0.551580 0.958790 0.907180 -0.586630
O19   O     O_R   0.448540 0.855750 0.907210 -0.588381
O20   O     O_R   0.640630 0.047850 0.085250 -0.584563
O21   O     O_R   0.537580 0.944800 0.085280 -0.592750
O22   O     O_R   0.551590 0.137990 0.086380 -0.585570
O23   O     O_R   0.448540 0.034950 0.086410 -0.583828
O24   O     O_R   0.910970 0.052410 0.463390 -0.581174

loop_
_geom_bond_atom_site_label_1
_geom_bond_atom_site_label_2
_ccdc_geom_bond_type
C1    O4    A    
C40   H20   S    
C27   C29   D    
C41   C42   A    
C31   H10   S    
C35   C36   A    
C25   H5    S    
C3    C6    S    
Cu6   O2    S    
Cu4   O21   S    
C38   H25   S    
C24   H4    S    
C12   C23   A    
C40   H19   S    
C13   O12   A    
C36   C37   A    
Cu6   O7    S    
C38   C39   S    
C16   O14   A    
C14   O19   A    
C5    C17   S    
C41   H15   S    
C5    H23   S    
Cu2   O16   S    
C1    C2    S    
C37   C42   A    
C18   O24   A    
C29   H8    S    
C8    C9    D    
C22   C25   S    
C30   H9    S    
C35   H13   S    
C39   H24   S    
C15   O21   A    
C14   C42   S    
C19   O3    A    
Cu1   O15   S    
C12   C32   A    
C27   C30   S    
C34   C41   A    
C32   H3    S    
C22   H2    S    
C2    C45   D    
Cu3   O17   S    
C16   O13   A    
C18   O2    A    
C45   H18   S    
C20   C24   S    
C19   O5    A    
Cu4   O19   S    
C4    C23   S    
C36   H14   S    
C33   H11   S    
C14   O18   A    
C11   H32   S    
C25   C26   D    
Cu3   O20   S    
C20   O7    A    
C10   H31   S    
C7    C28   S    
C1    O1    A    
Cu2   O4    S    
C43   C44   D    
C17   O22   A    
Cu6   O9    S    
C11   C16   S    
C2    C38   S    
Cu5   O6    S    
Cu3   O22   S    
C23   C34   A    
Cu5   Cu6   S    
C18   C29   S    
Cu4   O12   S    
C43   C45   S    
C6    C7    D    
Cu1   O1    S    
C28   O16   A    
C43   H16   S    
Cu3   Cu4   S    
Cu5   O24   S    
C4    O11   A    
C13   C26   S    
C44   H17   S    
C39   C40   S    
C19   C44   S    
C7    H28   S    
C21   O8    A    
C28   O15   A    
Cu1   Cu2   S    
C40   H21   S    
C3    C5    D    
C27   H7    S    
Cu6   O5    S    
C15   C31   S    
Cu4   O23   S    
C38   H26   S    
C3    H12   S    
C20   O6    A    
C34   H1    S    
Cu2   O14   S    
C32   C33   A    
C13   O17   A    
C17   O23   A    
C9    C21   S    
C30   C31   D    
Cu1   O10   S    
Cu3   O18   S    
C33   C35   A    
Cu2   O11   S    
C22   C24   D    
C39   H22   S    
C26   H6    S    
C6    H27   S    
C10   C11   D    
Cu5   O3    S    
C4    O10   A    
Cu5   O8    S    
Cu1   O13   S    
C8    C10   S    
C12   C37   A    
C8    H29   S    
C15   O20   A    
C9    H30   S    
C21   O9    A    
