data_mof_unit_36923.cif
_audit_creation_date              2012-12-10T17:35:48-0500
_audit_creation_method            fapswitch 2.2
_symmetry_space_group_name_H-M    P1
_symmetry_Int_Tables_number       1
_space_group_crystal_system       triclinic
_cell_length_a                    10.559295
_cell_length_b                    12.076036
_cell_length_c                    12.819074
_cell_angle_alpha                 94.088534
_cell_angle_beta                  91.684634
_cell_angle_gamma                 86.824437
_cell_volume                      1627.42172243

loop_
_atom_site_label
_atom_site_type_symbol
_atom_type_description
_atom_site_fract_x
_atom_site_fract_y
_atom_site_fract_z
_atom_type_partial_charge
C1    C     C_R   0.498572 0.522282 0.700299 0.930231
C2    C     C_R   0.517878 0.478407 0.300812 0.908723
C3    C     C_R   0.573798 0.458772 0.868383 -0.090945
C4    C     C_R   0.529360 0.562249 0.132526 -0.063308
C5    C     C_R   0.548006 0.450208 0.973302 0.120974
C6    C     C_R   0.495380 0.545934 0.027642 0.102320
C7    C     C_R   0.362103 0.950238 0.414438 -0.128172
C8    C     C_R   0.596483 0.054539 0.618031 -0.101287
C9    C     C_R   0.384913 0.834956 0.417262 0.031610
C10   C     C_R   0.593990 0.167482 0.598999 0.076416
C11   C     C_R   0.547216 0.860306 0.547154 0.344400
C12   C     C_R   0.447885 0.139961 0.456707 0.339716
C13   C     C_R   0.530436 0.978835 0.547495 -0.084069
C14   C     C_R   0.444868 0.023844 0.472035 -0.084648
C15   C     C_R   0.742311 0.500391 0.501839 0.972231
C16   C     C_R   0.258030 0.499684 0.499404 1.001890
C17   C     C_3   0.966678 0.393846 0.499511 0.310664
C18   C     C_3   0.034633 0.605357 0.503619 0.258294
C19   C     C_3   0.050419 0.451369 0.585507 0.246207
C20   C     C_3   0.951372 0.547995 0.417613 0.206765
C21   C     C_3   0.123830 0.500312 0.500058 -0.299279
C22   C     C_3   0.877157 0.499384 0.503019 -0.247375
C23   C     C_3   0.041606 0.443351 0.414399 -0.233659
C24   C     C_3   0.960083 0.555972 0.588820 -0.207718
C25   C     C_R   0.548154 0.466998 0.189902 -0.157346
C26   C     C_R   0.497329 0.535099 0.812689 -0.119753
C27   C     C_R   0.417266 0.624284 0.974761 -0.073871
C28   C     C_R   0.581434 0.353842 0.027279 -0.054688
C29   C     C_R   0.413185 0.614644 0.864822 -0.105364
C30   C     C_R   0.581802 0.362446 0.137422 -0.124972
H1    H     H_    0.643612 0.225448 0.651433 0.168476
H2    H     H_    0.324305 0.778052 0.373239 0.210581
N1    N     N_R   0.523490 0.207800 0.519350 -0.127762
N2    N     N_R   0.476510 0.792200 0.480650 -0.141653
O1    O     O_R   0.506270 0.421700 0.658830 -0.652144
O2    O     O_R   0.493730 0.578300 0.341170 -0.666419
O3    O     O_R   0.491200 0.609310 0.646410 -0.570642
O4    O     O_R   0.508800 0.390690 0.353590 -0.557310
O5    O     O_R   0.693580 0.406210 0.506230 -0.597744
O6    O     O_R   0.306420 0.593790 0.493770 -0.582889
O7    O     O_R   0.678510 0.593830 0.493810 -0.579600
O8    O     O_R   0.321490 0.406170 0.506190 -0.584613
Zn1   Zn    Zn3+2 0.510060 0.374730 0.508290 1.052676
Zn2   Zn    Zn3+2 0.489940 0.625270 0.491710 1.033902
Br1   Br    Br    0.125651 0.382580 0.706666 -0.302811
Br2   Br    Br    0.882098 0.616124 0.294543 -0.400395
Br3   Br    Br    0.923065 0.239478 0.499836 -0.297505
Br4   Br    Br    0.075815 0.760458 0.506447 -0.380435
C31   C     C_2   0.089752 0.385698 0.314862 0.615305
H3    H     H_    0.151318 0.428147 0.266500 0.071027
O9    O     O_2   0.059420 0.291886 0.287254 -0.461260
C32   C     C_2   0.919927 0.618902 0.688126 0.617707
H4    H     H_    0.952163 0.701714 0.707636 0.132995
O10   O     O_2   0.853678 0.576686 0.748843 -0.566404
C33   C     C_2   0.575457 0.673212 0.173075 0.544224
H5    H     H_    0.618144 0.685473 0.250408 0.130611
O11   O     O_2   0.575407 0.751264 0.117497 -0.552659
C34   C     C_2   0.693480 0.405030 0.822991 0.580795
H6    H     H_    0.709589 0.400121 0.739813 0.082577
O12   O     O_2   0.780888 0.372337 0.879434 -0.496447
C35   C     C_2   0.626319 0.264753 0.195437 0.519196
H7    H     H_    0.592463 0.183116 0.172642 0.069463
O13   O     O_2   0.705389 0.274171 0.266534 -0.478013
C36   C     C_2   0.320362 0.685337 0.805889 0.458071
H8    H     H_    0.308535 0.773865 0.826396 0.057425
O14   O     O_2   0.254189 0.644483 0.735196 -0.542633
C37   C     C_2   0.327699 0.704590 0.033423 0.533733
H9    H     H_    0.291901 0.780444 0.000113 0.066034
O15   O     O_2   0.290730 0.685549 0.119429 -0.525898
C38   C     C_2   0.601202 0.242714 0.969768 0.487094
H10   H     H_    0.664989 0.179083 0.001077 0.092534
O16   O     O_2   0.543465 0.220468 0.887675 -0.566004
Br5   Br    Br    0.360439 0.202801 0.339491 -0.475239
Br6   Br    Br    0.678827 0.790732 0.629723 -0.470795
C39   C     C_2   0.239719 0.987809 0.365570 0.574060
H11   H     H_    0.187423 0.061326 0.398433 0.135979
O17   O     O_2   0.193958 0.935123 0.290118 -0.476818
C40   C     C_2   0.651766 0.025153 0.720543 0.551070
H12   H     H_    0.607155 0.965593 0.765023 0.092125
O18   O     O_2   0.745467 0.069730 0.757898 -0.497557

loop_
_geom_bond_atom_site_label_1
_geom_bond_atom_site_label_2
_ccdc_geom_bond_type
C24   C32   S    
C33   H5    S    
C16   C21   S    
C27   C29   A    
C18   C21   S    
C4    C25   A    
C15   C22   S    
C17   C23   S    
C18   C24   S    
C19   C21   S    
C5    C6    A    
C40   O18   D    
C23   C31   S    
C34   O12   D    
C35   O13   D    
C9    H2    S    
C10   H1    S    
C7    C14   A    
C31   O9    D    
C38   H10   S    
C10   N1    A    
O1    Zn1   S    
C1    O3    A    
C29   C36   S    
C12   Br5   S    
C8    C40   S    
C32   O10   D    
C11   N2    A    
C21   C23   S    
C37   H9    S    
N1    Zn1   S    
N2    Zn2   S    
C15   O7    A    
C4    C6    A    
C40   H12   S    
O5    Zn1   S    
C34   H6    S    
C37   O15   D    
C36   O14   D    
C39   H11   S    
C3    C34   S    
C5    C28   A    
C2    O4    A    
C6    C27   A    
C20   C23   S    
C39   O17   D    
C15   O5    A    
C16   O6    A    
C20   C22   S    
C33   O11   D    
C4    C33   S    
C1    C26   S    
O7    Zn2   S    
C22   C24   S    
O2    Zn2   S    
O8    Zn1   S    
C16   O8    A    
C32   H4    S    
C1    O1    A    
C2    O2    A    
C25   C30   A    
C7    C9    A    
C3    C26   A    
C28   C38   S    
C17   Br3   S    
C12   C14   A    
C3    C5    A    
C11   Br6   S    
C18   Br4   S    
C7    C39   S    
C19   Br1   S    
C17   C22   S    
C36   H8    S    
O3    Zn2   S    
C28   C30   A    
C19   C24   S    
O4    Zn1   S    
C11   C13   A    
C9    N2    A    
C17   C19   S    
C2    C25   S    
C18   C20   S    
C35   H7    S    
C27   C37   S    
C8    C13   A    
O6    Zn2   S    
C26   C29   A    
C8    C10   A    
C31   H3    S    
C30   C35   S    
C38   O16   D    
C12   N1    A    
C13   C14   A    
C20   Br2   S    
