data_mof_unit_37691.cif
_audit_creation_date              2013-03-05T15:57:36-0500
_audit_creation_method            fapswitch 2.2
_symmetry_space_group_name_H-M    P1
_symmetry_Int_Tables_number       1
_space_group_crystal_system       triclinic
_cell_length_a                    15.034575
_cell_length_b                    13.979727
_cell_length_c                    11.681211
_cell_angle_alpha                 91.046364
_cell_angle_beta                  85.416418
_cell_angle_gamma                 90.485344
_cell_volume                      2446.82755441

loop_
_atom_site_label
_atom_site_type_symbol
_atom_site_description
_atom_site_fract_x
_atom_site_fract_y
_atom_site_fract_z
_atom_type_partial_charge
O1    O     O_R   0.370260 0.582280 0.500020 -0.574725
O2    O     O_R   0.629740 0.417720 0.499980 -0.587278
O3    O     O_R   0.629740 0.582280 0.499980 -0.597600
O4    O     O_R   0.370260 0.417720 0.500020 -0.602210
C1    C     C_R   0.329258 0.499646 0.502553 0.804830
C2    C     C_R   0.670804 0.500309 0.497240 0.804228
O5    O     O_R   0.500010 0.582270 0.337200 -0.587072
O6    O     O_R   0.499990 0.417730 0.662800 -0.581032
O7    O     O_R   0.499990 0.582270 0.662800 -0.601668
O8    O     O_R   0.500010 0.417730 0.337200 -0.586783
C3    C     C_R   0.500093 0.499348 0.284359 0.801995
C4    C     C_R   0.499436 0.500681 0.715679 0.808336
Cu1   Cu    Cu3+1 0.500000 0.597420 0.500000 0.909618
Cu2   Cu    Cu3+1 0.500000 0.402580 0.500000 0.914215
C5    C     C_1   0.499422 0.498452 0.162583 -0.189347
C6    C     C_1   0.499097 0.501747 0.837545 -0.191951
C7    C     C_1   0.499032 0.499286 0.060020 -0.005808
C8    C     C_1   0.498932 0.500952 0.940156 -0.009127
C9    C     C_R   0.819904 0.462649 0.395731 0.134132
C10   C     C_R   0.180183 0.536366 0.603882 0.134590
C11   C     C_R   0.767777 0.501025 0.491489 -0.046591
C12   C     C_R   0.232400 0.498745 0.507900 -0.055748
C13   C     C_R   0.807408 0.542486 0.583574 -0.291427
C14   C     C_R   0.192977 0.458268 0.415066 -0.278394
C15   C     C_R   0.899476 0.545244 0.584651 0.079079
C16   C     C_R   0.100909 0.455642 0.413744 0.074654
C17   C     C_R   0.953424 0.499746 0.496184 -0.018652
C18   C     C_R   0.046877 0.500748 0.502415 -0.019178
C19   C     C_R   0.913929 0.453416 0.402147 0.091258
C20   C     C_R   0.086341 0.546520 0.596811 0.089756
C21   C     C_R   0.937434 0.594793 0.673257 -0.207871
C22   C     C_R   0.063074 0.406446 0.324845 -0.205023
C23   C     C_R   0.029808 0.599741 0.678666 0.182248
C24   C     C_R   0.970704 0.400703 0.319882 0.184972
H1    H     H_    0.765769 0.574520 0.654086 0.140642
H2    H     H_    0.234735 0.426808 0.344265 0.144750
H3    H     H_    0.894214 0.632718 0.737406 0.143340
H4    H     H_    0.106436 0.369051 0.260354 0.144565
C25   C     C_R   0.441200 0.796118 0.575056 0.174315
C26   C     C_R   0.557464 0.204826 0.422245 0.205155
C27   C     C_R   0.561905 0.793920 0.427665 0.207261
C28   C     C_R   0.437393 0.205072 0.570150 0.202797
N1    N     N_R   0.500000 0.743810 0.500000 -0.212825
N2    N     N_R   0.500000 0.256190 0.500000 -0.207762
C29   C     C_R   0.560919 0.896538 0.424589 -0.007256
C30   C     C_R   0.430494 0.102636 0.559667 -0.007815
C31   C     C_R   0.430988 0.897121 0.559889 0.018505
C32   C     C_R   0.560106 0.102329 0.424066 -0.002557
C33   C     C_R   0.495947 0.948062 0.492274 0.047069
C34   C     C_R   0.495802 0.051247 0.492379 0.050208
C35   C     C_R   0.622971 0.949661 0.353699 -0.218356
C36   C     C_R   0.358480 0.049374 0.612126 -0.220544
C37   C     C_R   0.357361 0.949499 0.607690 -0.207960
C38   C     C_R   0.623720 0.048830 0.355217 -0.215432
H5    H     H_    0.673476 0.916759 0.295517 0.154352
H6    H     H_    0.300804 0.083021 0.655940 0.149418
H7    H     H_    0.296773 0.914359 0.639644 0.146989
H8    H     H_    0.675590 0.081497 0.299663 0.150001
C39   C     C_3   0.776846 0.448682 0.283549 -0.924746
H9    H     H_    0.818085 0.483835 0.213110 0.239974
H10   H     H_    0.767316 0.372042 0.263858 0.246931
H11   H     H_    0.710501 0.482874 0.284360 0.206045
C40   C     C_3   0.222941 0.548808 0.716529 -0.898503
H12   H     H_    0.288591 0.513138 0.715925 0.204241
H13   H     H_    0.233952 0.625263 0.736484 0.241831
H14   H     H_    0.180781 0.514094 0.786447 0.239988
C41   C     C_3   0.063336 0.671417 0.764030 -0.871333
H15   H     H_    0.009543 0.720147 0.799457 0.221148
H16   H     H_    0.088003 0.635140 0.838689 0.239394
H17   H     H_    0.115268 0.718192 0.720898 0.233493
C42   C     C_3   0.937746 0.328821 0.234276 -0.873272
H18   H     H_    0.992098 0.281180 0.197766 0.221714
H19   H     H_    0.886854 0.280856 0.277539 0.233538
H20   H     H_    0.912130 0.364969 0.160123 0.238773
C43   C     C_3   0.409324 0.749015 0.688429 -0.342515
C44   C     C_3   0.354666 0.802433 0.786547 -0.465180
C45   C     C_3   0.354605 0.747968 0.899040 -0.833814
H21   H     H_    0.328892 0.673936 0.888160 0.257893
H22   H     H_    0.423188 0.744781 0.927771 0.257308
H23   H     H_    0.311194 0.785266 0.966838 0.249237
H24   H     H_    0.383641 0.874400 0.802019 0.246498
H25   H     H_    0.283950 0.807351 0.766514 0.222278
H26   H     H_    0.372053 0.683154 0.669604 0.238901
H27   H     H_    0.472316 0.732756 0.727014 0.233296
C46   C     C_3   0.615659 0.253978 0.327678 -0.352536
C47   C     C_3   0.579581 0.236814 0.208976 -0.369482
C48   C     C_3   0.639829 0.282550 0.113465 -0.858469
H28   H     H_    0.644656 0.360990 0.128163 0.261583
H29   H     H_    0.707657 0.251188 0.109796 0.251155
H30   H     H_    0.611574 0.269260 0.029596 0.250582
H31   H     H_    0.573884 0.159308 0.188732 0.219086
H32   H     H_    0.511579 0.267205 0.208753 0.242813
H33   H     H_    0.622280 0.330157 0.340836 0.260886
H34   H     H_    0.685835 0.230423 0.328192 0.150296
C49   C     C_3   0.637150 0.743665 0.354849 -0.335021
C50   C     C_3   0.728179 0.757680 0.406314 -0.365464
C51   C     C_3   0.804977 0.723959 0.322512 -0.852031
H35   H     H_    0.793880 0.648933 0.294912 0.267109
H36   H     H_    0.810619 0.769899 0.245655 0.246094
H37   H     H_    0.868537 0.728264 0.364737 0.252709
H38   H     H_    0.740805 0.833541 0.429413 0.213842
H39   H     H_    0.729465 0.718063 0.487388 0.247152
H40   H     H_    0.626309 0.667741 0.339854 0.243870
H41   H     H_    0.639815 0.770239 0.265674 0.152276
C52   C     C_3   0.376106 0.254453 0.663166 -0.345087
C53   C     C_3   0.403065 0.231917 0.783994 -0.377844
C54   C     C_3   0.342117 0.282108 0.876800 -0.849831
H42   H     H_    0.344674 0.360820 0.865418 0.255314
H43   H     H_    0.272236 0.256623 0.872817 0.251381
H44   H     H_    0.364273 0.265983 0.962768 0.246873
H45   H     H_    0.399886 0.153765 0.799104 0.220876
H46   H     H_    0.472907 0.256184 0.792264 0.240037
H47   H     H_    0.374787 0.331526 0.657076 0.255220
H48   H     H_    0.305453 0.234798 0.653832 0.158207

loop_
_geom_bond_atom_site_label_1
_geom_bond_atom_site_label_2
_geom_bond_distance
_ccdc_geom_bond_type
C15   C21   1.392213 A    
O5    Cu1   1.909599 S    
C48   H28   1.109500 S    
C40   H13   1.103712 S    
C16   C22   1.391635 A    
C50   H39   1.107361 S    
C17   C19   1.431937 A    
C27   N1    1.398502 A    
Cu2   N2    2.046492 S    
C46   H33   1.078118 S    
C49   C50   1.547732 S    
O3    C2    1.304924 A    
C51   H35   1.106845 S    
C31   C33   1.403651 A    
C53   H46   1.111751 S    
C45   H21   1.110397 S    
C49   H41   1.109914 S    
C32   C38   1.409997 A    
C14   H2    1.086268 S    
O1    C1    1.304465 A    
C52   H47   1.081547 S    
C9    C11   1.413626 A    
C14   C16   1.385695 A    
C47   H31   1.108863 S    
C43   H27   1.107862 S    
C53   C54   1.526943 S    
C29   C35   1.412395 A    
C30   C36   1.413906 A    
C26   C32   1.434360 A    
C28   C52   1.526279 S    
C28   C30   1.438591 A    
O7    Cu1   1.917286 S    
C3    C5    1.423166 S    
C1    C12   1.452523 S    
C4    C6    1.422951 S    
C54   H42   1.110753 S    
C21   C23   1.396356 A    
C25   C43   1.530422 S    
O3    Cu1   1.963796 S    
C31   C37   1.404740 A    
C32   C34   1.402568 A    
C40   H14   1.109438 S    
C39   H9    1.109507 S    
C50   H38   1.108095 S    
C54   H43   1.110751 S    
O2    C2    1.304352 A    
C28   N2    1.398163 A    
C51   H36   1.110693 S    
C49   H40   1.085649 S    
C53   H45   1.109900 S    
C45   H22   1.111051 S    
C39   H10   1.102284 S    
C41   H15   1.111280 S    
C52   H48   1.108250 S    
C44   C45   1.530631 S    
O8    Cu2   1.917287 S    
C44   H25   1.109692 S    
C42   H19   1.110108 S    
C37   H7    1.074797 S    
C47   C48   1.526021 S    
C25   N1    1.395914 A    
C9    C39   1.516077 S    
C46   C47   1.542806 S    
C2    C11   1.454079 S    
C19   C24   1.431361 A    
C21   H3    1.085517 S    
C41   H16   1.107404 S    
C22   C24   1.396140 A    
C26   C46   1.523477 S    
O5    C3    1.303290 A    
C43   C44   1.541160 S    
C46   H34   1.108431 S    
C29   C33   1.402064 A    
O6    C4    1.303661 A    
C50   C51   1.524925 S    
C7    C8    1.400894 S    
C10   C12   1.412367 A    
C13   H1    1.086168 S    
C11   C13   1.386309 A    
C54   H44   1.110506 S    
C12   C14   1.386395 A    
O1    Cu1   1.960234 S    
C9    C19   1.428624 A    
Cu1   N1    2.046492 S    
C51   H37   1.110573 S    
C36   C37   1.396251 A    
C23   C41   1.512521 S    
C25   C31   1.437309 A    
C38   H8    1.077850 S    
C45   H23   1.110457 S    
C5    C7    1.198813 T    
C39   H11   1.109015 S    
O6    Cu2   1.909599 S    
C20   C23   1.430060 A    
O4    C1    1.303999 A    
C44   H24   1.110479 S    
C42   H20   1.107521 S    
C15   C17   1.407519 A    
C52   C53   1.538013 S    
C30   C34   1.402139 A    
C16   C18   1.407376 A    
C22   H4    1.085680 S    
C35   C38   1.386106 A    
C41   H17   1.109749 S    
C10   C40   1.516552 S    
C18   C20   1.431677 A    
C42   H18   1.111905 S    
C47   H32   1.110672 S    
C10   C20   1.428277 A    
C43   H26   1.101651 S    
C27   C49   1.527967 S    
C35   H5    1.078001 S    
C13   C15   1.385464 A    
O4    Cu2   1.963798 S    
O2    Cu2   1.960232 S    
O7    C4    1.306639 A    
O8    C3    1.307074 A    
C40   H12   1.109046 S    
C26   N2    1.395792 A    
C6    C8    1.198680 T    
C33   C34   1.442500 A    
C48   H30   1.110534 S    
C17   C18   1.412648 A    
C48   H29   1.110810 S    
C27   C29   1.435902 A    
Cu1   Cu2   2.723809 S    
C24   C42   1.513074 S    
C36   H6    1.078103 S    
