data_mof_unit_33864.cif
_audit_creation_date              2012-12-10T19:29:21-0500
_audit_creation_method            fapswitch 2.2
_symmetry_space_group_name_H-M    P1
_symmetry_Int_Tables_number       1
_space_group_crystal_system       triclinic
_cell_length_a                    15.813174
_cell_length_b                    17.704139
_cell_length_c                    16.756451
_cell_angle_alpha                 88.706573
_cell_angle_beta                  90.662628
_cell_angle_gamma                 93.562624
_cell_volume                      4680.61166774

loop_
_atom_site_label
_atom_site_type_symbol
_atom_type_description
_atom_site_fract_x
_atom_site_fract_y
_atom_site_fract_z
_atom_type_partial_charge
C1    C     C_R   0.499499 0.355828 0.500953 0.918770
C2    C     C_R   0.499137 0.644022 0.499354 0.923955
C3    C     C_R   0.581461 0.769516 0.495670 -0.035526
C4    C     C_R   0.426125 0.228518 0.478345 -0.019374
C5    C     C_R   0.502134 0.727065 0.498827 -0.274438
C6    C     C_R   0.498881 0.272759 0.503676 -0.283590
C7    C     C_R   0.425748 0.763397 0.507564 0.274790
C8    C     C_R   0.570686 0.237418 0.534044 0.324018
C9    C     C_R   0.430050 0.840934 0.525445 0.224467
C10   C     C_R   0.564330 0.158679 0.549167 0.304250
C11   C     C_R   0.506155 0.884550 0.510758 -0.248687
C12   C     C_R   0.499218 0.114586 0.510724 -0.249096
C13   C     C_1   0.505090 0.965779 0.512584 0.255511
C14   C     C_1   0.502212 0.033523 0.512285 0.318703
C15   C     C_R   0.557952 0.548065 0.830313 0.249251
C16   C     C_R   0.465268 0.436562 0.171944 0.233501
C17   C     C_R   0.559013 0.545781 0.744151 0.160064
C18   C     C_R   0.453875 0.444343 0.256224 0.222024
C19   C     C_R   0.443061 0.452348 0.744924 0.305482
C20   C     C_R   0.542755 0.558026 0.254159 0.275743
C21   C     C_R   0.436791 0.457219 0.830412 0.022671
C22   C     C_R   0.536847 0.560746 0.168130 -0.006250
C23   C     C_R   0.339891 0.498524 0.499668 0.864884
C24   C     C_R   0.660164 0.502266 0.500376 0.869440
C25   C     C_R   0.496642 0.502923 0.873666 -0.064356
C26   C     C_R   0.500468 0.498211 0.126279 -0.082541
C27   C     C_1   0.496589 0.501559 0.963160 0.140888
C28   C     C_1   0.497518 0.499288 0.036896 0.090718
C29   C     C_3   0.971446 0.472552 0.570986 0.119434
C30   C     C_3   0.029139 0.531776 0.430381 0.128212
C31   C     C_3   0.022025 0.429851 0.509577 0.128294
C32   C     C_3   0.978580 0.574529 0.491798 0.126553
C33   C     C_1   0.250280 0.498765 0.499068 -0.084844
C34   C     C_1   0.749979 0.503695 0.501244 -0.103483
C35   C     C_3   0.032673 0.543898 0.561609 0.111774
C36   C     C_3   0.967944 0.460431 0.439789 0.112629
C37   C     C_3   0.082979 0.501179 0.500165 -0.061128
C38   C     C_3   0.917551 0.503199 0.501196 -0.060337
C39   C     C_1   0.174802 0.499746 0.499371 -0.049830
C40   C     C_1   0.825600 0.503942 0.501503 -0.062493
C41   C     C_R   0.581454 0.849865 0.491499 0.340090
C42   C     C_R   0.432645 0.149592 0.469986 0.402714
Cu1   Cu    Cu3+1 0.500000 0.499980 0.580420 0.971012
Cu2   Cu    Cu3+1 0.500000 0.500020 0.419580 0.971050
N1    N     N_R   0.499980 0.499970 0.701220 -0.210506
N2    N     N_R   0.500020 0.500030 0.298780 -0.217441
O1    O     O_R   0.499990 0.391240 0.567930 -0.571945
O2    O     O_R   0.500010 0.608760 0.432070 -0.568056
O3    O     O_R   0.500000 0.391270 0.432120 -0.576722
O4    O     O_R   0.500000 0.608730 0.567880 -0.591823
O5    O     O_R   0.379070 0.499980 0.567900 -0.593076
O6    O     O_R   0.620930 0.500020 0.432100 -0.588713
O7    O     O_R   0.379080 0.500010 0.432080 -0.574228
O8    O     O_R   0.620920 0.499990 0.567920 -0.571880
C43   C     C_3   0.058933 0.351867 0.518504 -0.415562
C44   C     C_3   0.991617 0.287230 0.530318 -0.754648
H1    H     H_    0.960252 0.291194 0.588658 0.249365
H2    H     H_    0.943343 0.287219 0.481951 0.261986
H3    H     H_    0.022255 0.232498 0.529701 0.263971
H4    H     H_    0.096230 0.341603 0.464556 0.204644
H5    H     H_    0.103727 0.352211 0.569996 0.199385
C45   C     C_3   0.942539 0.652876 0.482871 -0.428731
C46   C     C_3   0.010669 0.716997 0.471422 -0.684870
H6    H     H_    0.058338 0.716952 0.520307 0.276570
H7    H     H_    0.042909 0.712565 0.413588 0.254808
H8    H     H_    0.980564 0.772004 0.471339 0.259737
H9    H     H_    0.897866 0.653024 0.431305 0.206534
H10   H     H_    0.905296 0.663385 0.536740 0.203368
C47   C     C_3   0.393654 0.386004 0.706137 -0.393854
C48   C     C_3   0.438799 0.312564 0.720575 -0.739605
H11   H     H_    0.442080 0.297370 0.785015 0.254322
H12   H     H_    0.404439 0.265152 0.689371 0.236502
H13   H     H_    0.504645 0.318598 0.698095 0.297122
H14   H     H_    0.327857 0.379013 0.728185 0.175457
H15   H     H_    0.382593 0.393422 0.642439 0.236413
C49   C     C_3   0.597726 0.620555 0.294001 -0.338639
C50   C     C_3   0.555340 0.696418 0.296009 -0.771266
H16   H     H_    0.564922 0.730719 0.240671 0.243904
H17   H     H_    0.486257 0.687799 0.306954 0.279526
H18   H     H_    0.584777 0.731508 0.343641 0.238412
H19   H     H_    0.617408 0.605091 0.354349 0.227406
H20   H     H_    0.659965 0.628308 0.264051 0.160481
C51   C     C_3   0.363026 0.416500 0.875756 -0.360628
C52   C     C_3   0.284408 0.462274 0.870091 -0.842600
H21   H     H_    0.297600 0.518335 0.897636 0.258395
H22   H     H_    0.264755 0.470980 0.806892 0.252044
H23   H     H_    0.231389 0.431645 0.902525 0.256613
H24   H     H_    0.347585 0.358377 0.855099 0.224485
H25   H     H_    0.378014 0.407361 0.939721 0.235234
C53   C     C_3   0.567716 0.630536 0.119378 -0.314096
C54   C     C_3   0.493633 0.678729 0.096755 -0.718214
H26   H     H_    0.450585 0.648830 0.053418 0.253163
H27   H     H_    0.456336 0.690948 0.150132 0.236122
H28   H     H_    0.518049 0.733256 0.069166 0.272896
H29   H     H_    0.618607 0.665863 0.148076 0.200375
H30   H     H_    0.599260 0.613287 0.065210 0.290343
C55   C     C_3   0.927453 0.440111 0.646624 -0.356713
C56   C     C_3   0.989363 0.415025 0.711022 -0.808608
H31   H     H_    0.032746 0.374319 0.687549 0.252877
H32   H     H_    0.027048 0.464257 0.735244 0.252499
H33   H     H_    0.953208 0.386861 0.760961 0.260525
H34   H     H_    0.887760 0.483337 0.671328 0.203902
H35   H     H_    0.883934 0.391217 0.630174 0.219681
C57   C     C_3   0.073337 0.563968 0.354735 -0.364748
C58   C     C_3   0.011587 0.589408 0.290386 -0.812820
H36   H     H_    0.973075 0.540428 0.266655 0.256876
H37   H     H_    0.968999 0.630835 0.313753 0.256378
H38   H     H_    0.047898 0.616846 0.240146 0.254699
H39   H     H_    0.117241 0.612620 0.371154 0.234915
H40   H     H_    0.112717 0.520489 0.330022 0.201107
C59   C     C_3   0.920369 0.415674 0.373932 -0.356067
C60   C     C_3   0.978824 0.374669 0.320064 -0.788699
H41   H     H_    0.028499 0.414259 0.293980 0.248458
H42   H     H_    0.009136 0.328755 0.353446 0.260354
H43   H     H_    0.940998 0.348706 0.270429 0.263385
H44   H     H_    0.873980 0.373697 0.401737 0.235208
H45   H     H_    0.883480 0.455109 0.337115 0.209294
C61   C     C_3   0.080242 0.588414 0.627638 -0.350842
C62   C     C_3   0.021777 0.629412 0.681514 -0.785478
H46   H     H_    0.991890 0.675649 0.648270 0.258927
H47   H     H_    0.971732 0.589928 0.707160 0.250147
H48   H     H_    0.059509 0.654942 0.731448 0.263367
H49   H     H_    0.117006 0.548833 0.664400 0.202959
H50   H     H_    0.126745 0.630366 0.600024 0.257187
S1    S     S_3+6 0.673991 0.908538 0.465368 0.042478
O9    O     O_2   0.716932 0.935056 0.540981 -0.190235
O10   O     O_2   0.736024 0.868238 0.417216 -0.294150
O11   O     O_3   0.647386 0.984957 0.411488 -0.473073
H51   H     H_    0.617367 0.964217 0.363804 0.352729
S2    S     S_3+6 0.360558 0.096565 0.406096 0.049706
O12   O     O_2   0.279003 0.077466 0.449225 -0.239390
O13   O     O_2   0.342573 0.142673 0.332118 -0.250960
O14   O     O_3   0.400336 0.015872 0.376740 -0.536884
H52   H     H_    0.352766 0.987851 0.349182 0.391362
C63   C     C_3   0.664034 0.728393 0.496914 -0.356984
C64   C     C_3   0.717711 0.745266 0.571628 -0.702705
H53   H     H_    0.677026 0.746993 0.624993 0.244719
H54   H     H_    0.755427 0.799702 0.564991 0.307716
H55   H     H_    0.762931 0.700363 0.581411 0.200584
H56   H     H_    0.652496 0.666188 0.496193 0.138221
H57   H     H_    0.701195 0.740757 0.442260 0.239873
C65   C     C_3   0.341208 0.264136 0.466140 -0.342321
C66   C     C_3   0.280191 0.242058 0.533997 -0.763066
H58   H     H_    0.278067 0.180556 0.548051 0.303557
H59   H     H_    0.299937 0.272979 0.588583 0.220653
H60   H     H_    0.215454 0.257798 0.517053 0.235698
H61   H     H_    0.347754 0.326605 0.465290 0.141324
H62   H     H_    0.311596 0.249104 0.408158 0.261890
S3    S     S_3+6 0.326346 0.711785 0.491945 0.026179
O15   O     O_2   0.333333 0.657666 0.424913 -0.344772
O16   O     O_2   0.303001 0.667556 0.566891 -0.264294
O17   O     O_3   0.248078 0.768433 0.467772 -0.452124
H63   H     H_    0.262179 0.788725 0.413647 0.354376
S4    S     S_3+6 0.669362 0.291310 0.543377 0.044549
O18   O     O_2   0.667583 0.339509 0.615968 -0.295074
O19   O     O_2   0.681127 0.341307 0.470280 -0.324348
O20   O     O_3   0.752839 0.237207 0.550019 -0.441890
H64   H     H_    0.801701 0.272827 0.562478 0.352982
S5    S     S_3+6 0.343782 0.883270 0.571578 0.090104
O21   O     O_2   0.290704 0.919378 0.508235 -0.183648
O22   O     O_2   0.289394 0.825561 0.618003 -0.192048
O23   O     O_3   0.379780 0.950547 0.634981 -0.498062
H65   H     H_    0.415609 0.924037 0.674090 0.355565
S6    S     S_3+6 0.633208 0.115890 0.619423 0.097243
O24   O     O_2   0.587294 0.050340 0.662322 -0.287352
O25   O     O_2   0.707188 0.087736 0.575971 -0.156244
O26   O     O_3   0.668231 0.178899 0.687800 -0.466926
H66   H     H_    0.712233 0.153275 0.718860 0.383276
S7    S     S_3+6 0.628006 0.610395 0.888277 -0.020969
O27   O     O_2   0.670382 0.563523 0.951064 -0.273885
O28   O     O_2   0.696580 0.656593 0.844923 -0.274332
O29   O     O_3   0.567306 0.671382 0.932408 -0.545285
H67   H     H_    0.538659 0.697665 0.887882 0.350696
S8    S     S_3+6 0.435417 0.349212 0.124592 0.024920
O30   O     O_2   0.482102 0.341557 0.047867 -0.270501
O31   O     O_2   0.456144 0.284100 0.178994 -0.205557
O32   O     O_3   0.330675 0.343754 0.105389 -0.500611
H68   H     H_    0.320114 0.390889 0.074937 0.320152
C67   C     C_3   0.630102 0.591816 0.702257 -0.280144
C68   C     C_3   0.715011 0.554160 0.710845 -0.722974
H69   H     H_    0.734566 0.546350 0.773936 0.290068
H70   H     H_    0.710808 0.496935 0.685110 0.267737
H71   H     H_    0.765450 0.589291 0.679483 0.211402
H72   H     H_    0.618771 0.603515 0.639544 0.224021
H73   H     H_    0.633849 0.650460 0.723347 0.206231
C69   C     C_3   0.376561 0.401979 0.292399 -0.301591
C70   C     C_3   0.296454 0.443397 0.273392 -0.831703
H74   H     H_    0.303178 0.502500 0.294468 0.273917
H75   H     H_    0.283727 0.444939 0.208179 0.261149
H76   H     H_    0.241297 0.413678 0.303554 0.237554
H77   H     H_    0.367193 0.343293 0.271633 0.256242
H78   H     H_    0.381506 0.394743 0.356526 0.219063

loop_
_geom_bond_atom_site_label_1
_geom_bond_atom_site_label_2
_ccdc_geom_bond_type
Cu2   O3    S    
C24   O6    A    
C66   H60   S    
C57   H40   S    
C43   C44   S    
C46   H7    S    
O20   H64   S    
S7    O27   D    
C59   C60   S    
C52   H23   S    
O11   H51   S    
C60   H42   S    
C55   C56   S    
C53   H29   S    
C50   H16   S    
O29   H67   S    
C58   H37   S    
C15   S7    S    
C33   C39   T    
C45   H9    S    
C34   C40   T    
S6    O24   D    
C35   C37   S    
C17   N1    A    
C67   H72   S    
S3    O16   D    
S5    O21   D    
C4    C65   S    
C57   H39   S    
S8    O30   D    
C62   H48   S    
C9    S5    S    
C24   O8    A    
C66   H58   S    
C44   H1    S    
C20   C49   S    
C7    C9    A    
C69   H77   S    
C61   C62   S    
C57   C58   S    
C70   H76   S    
C12   C42   A    
C2    O4    A    
C7    S3    S    
Cu2   O7    S    
C21   C51   S    
C68   H70   S    
C23   C33   S    
C1    O3    A    
C29   C38   S    
S1    O11   S    
S5    O22   D    
C11   C41   A    
C59   H44   S    
C32   C38   S    
C8    S4    S    
S4    O19   D    
C55   H34   S    
C68   H71   S    
C61   H49   S    
C43   H4    S    
C17   C67   S    
C62   H47   S    
C51   H24   S    
C46   H8    S    
C38   C40   S    
C13   C14   T    
S7    O28   D    
C36   C59   S    
C64   H55   S    
C18   N2    A    
C60   H41   S    
Cu2   O6    S    
Cu2   N2    S    
C23   O7    A    
C50   H17   S    
C16   C26   A    
C63   H56   S    
C51   H25   S    
C58   H38   S    
C1    C6    S    
C32   C35   S    
C65   H62   S    
C63   C64   S    
C49   C50   S    
S4    O20   S    
C64   H54   S    
S3    O17   S    
C49   H20   S    
O26   H66   S    
C5    C7    A    
C1    O1    A    
C6    C8    A    
C2    O2    A    
C18   C69   S    
C24   C34   S    
C31   C37   S    
C30   C37   S    
S2    O13   D    
Cu1   Cu2   S    
C45   C46   S    
C41   S1    S    
C54   H27   S    
C9    C11   A    
Cu1   O8    S    
C23   O5    A    
C51   C52   S    
C29   C31   S    
C48   H13   S    
C22   C53   S    
S5    O23   S    
C47   H14   S    
C42   S2    S    
C16   C18   A    
C61   H50   S    
C52   H21   S    
Cu1   N1    S    
S8    O32   S    
S4    O18   D    
C55   H35   S    
C10   C12   A    
C4    C6    A    
C20   C22   A    
C56   H31   S    
C56   H32   S    
O14   H52   S    
S7    O29   S    
C19   C47   S    
C2    C5    S    
C54   H26   S    
C48   H11   S    
C68   H69   S    
O23   H65   S    
C50   H18   S    
C16   S8    S    
C66   H59   S    
C21   C25   A    
C3    C41   A    
C10   S6    S    
C19   C21   A    
C65   C66   S    
C65   H61   S    
S6    O26   S    
C52   H22   S    
C64   H53   S    
C3    C5    A    
C49   H19   S    
C62   H46   S    
C19   N1    A    
Cu1   O4    S    
C53   H30   S    
C67   H73   S    
C30   C36   S    
C67   C68   S    
C25   C27   S    
C56   H33   S    
C58   H36   S    
C29   C35   S    
C26   C28   S    
C44   H3    S    
C29   C55   S    
C59   H45   S    
S6    O25   D    
S2    O12   D    
C12   C14   S    
C32   C45   S    
C70   H74   S    
C37   C39   S    
S3    O15   D    
C54   H28   S    
C30   C32   S    
C11   C13   S    
Cu1   O5    S    
C53   C54   S    
S1    O9    D    
C4    C42   A    
C43   H5    S    
C36   C38   S    
C44   H2    S    
C47   H15   S    
C3    C63   S    
C45   H10   S    
C69   H78   S    
C47   C48   S    
S8    O31   D    
C70   H75   S    
C15   C25   A    
C46   H6    S    
S2    O14   S    
C63   H57   S    
O17   H63   S    
C8    C10   A    
O32   H68   S    
C22   C26   A    
C30   C57   S    
C27   C28   T    
S1    O10   D    
C31   C36   S    
C35   C61   S    
C48   H12   S    
C31   C43   S    
C69   C70   S    
C15   C17   A    
Cu1   O1    S    
C60   H43   S    
C20   N2    A    
Cu2   O2    S    
