data_mof_unit_37012.cif
_audit_creation_date              2012-10-26T20:59:12-0400
_audit_creation_method            fapswitch 2.2
_symmetry_space_group_name_H-M    P1
_symmetry_Int_Tables_number       1
_space_group_crystal_system       triclinic
_cell_length_a                    15.804405
_cell_length_b                    9.125378
_cell_length_c                    7.858627
_cell_angle_alpha                 90.815309
_cell_angle_beta                  92.764294
_cell_angle_gamma                 93.454701
_cell_volume                      1129.83742071

loop_
_atom_site_label
_atom_site_type_symbol
_atom_type_description
_atom_site_fract_x
_atom_site_fract_y
_atom_site_fract_z
_atom_type_partial_charge
C1    C     C_1   0.499873 0.065339 0.498982 -0.055733
C2    C     C_3   0.994032 0.633040 0.599830 -0.021516
C3    C     C_1   0.248866 0.474873 0.484233 -0.045876
C4    C     C_1   0.751073 0.528288 0.516837 -0.022468
C5    C     C_3   0.040740 0.495173 0.657330 0.283264
C6    C     C_3   0.959989 0.519458 0.356359 0.283266
C7    C     C_3   0.081505 0.484118 0.483368 0.008033
C8    C     C_3   0.919274 0.528062 0.529384 0.016745
C9    C     C_1   0.172707 0.469945 0.477379 -0.050930
C10   C     C_1   0.827254 0.537090 0.527984 -0.028128
C11   C     C_3   0.007733 0.237924 0.310445 -0.252951
C12   C     C_1   0.500037 0.934652 0.501014 -0.055584
C13   C     C_3   0.918719 0.188175 0.232924 -0.277583
C14   C     C_3   0.896454 0.024775 0.253060 -0.460699
C15   C     C_3   0.972956 0.776497 0.689005 -0.252845
C16   C     C_3   0.049055 0.888144 0.722981 -0.294800
C17   C     C_3   0.041336 0.977732 0.885981 -0.467473
C18   C     C_3   0.931022 0.258109 0.688527 -0.252201
C19   C     C_3   0.833923 0.233979 0.681514 -0.310414
C20   C     C_3   0.804561 0.086596 0.754510 -0.451061
C21   C     C_3   0.075120 0.755017 0.329279 -0.252134
C22   C     C_3   0.169215 0.795123 0.377279 -0.301159
C23   C     C_R   0.499728 0.220206 0.499237 0.545853
C24   C     C_3   0.195340 0.952442 0.329753 -0.451810
C25   C     C_3   0.947611 0.526434 0.062007 -0.117061
C26   C     C_3   0.142261 0.573238 0.869611 -0.131429
C27   C     C_R   0.500223 0.779789 0.500759 0.545144
C28   C     C_R   0.339271 0.490321 0.495631 0.534587
C29   C     C_R   0.660722 0.509823 0.504432 0.538004
C30   C     C_3   0.964939 0.391774 0.587992 0.008983
C31   C     C_3   0.035562 0.623362 0.424920 -0.010245
C32   C     C_3   0.005495 0.381695 0.413795 -0.013986
Cu1   Cu    Cu3+1 0.500010 0.500000 0.669080 1.017114
Cu2   Cu    Cu3+1 0.499990 0.500000 0.330920 1.021338
H1    H     H_    0.939113 0.958974 0.179917 0.150869
H2    H     H_    0.089234 0.072071 0.892013 0.164727
H3    H     H_    0.109521 0.834482 0.733514 0.159722
H4    H     H_    0.053128 0.964733 0.615143 0.149643
H5    H     H_    0.925693 0.828915 0.605139 0.126805
H6    H     H_    0.939877 0.750558 0.806011 0.140338
H7    H     H_    0.827200 0.995258 0.677975 0.146639
H8    H     H_    0.828182 0.077990 0.888748 0.151558
H9    H     H_    0.734117 0.076136 0.750247 0.161556
H10   H     H_    0.806778 0.321868 0.757122 0.171626
H11   H     H_    0.808205 0.236756 0.548015 0.171218
H12   H     H_    0.901134 0.995545 0.389329 0.149096
H13   H     H_    0.958542 0.158851 0.638112 0.154197
H14   H     H_    0.953974 0.271744 0.823337 0.158248
H15   H     H_    0.180504 0.970078 0.192306 0.153130
H16   H     H_    0.162072 0.031529 0.406922 0.145452
H17   H     H_    0.264728 0.973561 0.355814 0.155462
H18   H     H_    0.183876 0.781459 0.514887 0.157979
H19   H     H_    0.208781 0.721160 0.306090 0.166026
H20   H     H_    0.071867 0.729048 0.192666 0.121874
H21   H     H_    0.036613 0.850231 0.349765 0.147616
H22   H     H_    0.000542 0.452334 0.068741 0.161612
H23   H     H_    0.830290 0.997847 0.203503 0.154949
H24   H     H_    0.970958 0.637825 0.031048 0.124334
H25   H     H_    0.902106 0.487267 0.957219 0.145410
H26   H     H_    0.109548 0.661887 0.930592 0.108505
H27   H     H_    0.182071 0.617478 0.767648 0.123540
H28   H     H_    0.185561 0.528791 0.968700 0.150342
H29   H     H_    0.868480 0.248713 0.291495 0.202098
H30   H     H_    0.915456 0.213706 0.095680 0.152499
H31   H     H_    0.052873 0.253284 0.207280 0.134907
H32   H     H_    0.033231 0.153354 0.395112 0.131163
H33   H     H_    0.977230 0.019405 0.891233 0.155560
H34   H     H_    0.052581 0.908472 0.997997 0.135439
N1    N     N_1   0.499990 0.500000 0.076820 -0.080090
N2    N     N_1   0.500010 0.500000 0.923180 -0.079823
O1    O     O_R   0.500000 0.288400 0.642760 -0.494678
O2    O     O_3   0.083052 0.459941 0.812654 -0.604222
O3    O     O_R   0.500000 0.711600 0.357240 -0.495682
O4    O     O_R   0.500000 0.288400 0.357240 -0.494670
O5    O     O_R   0.500000 0.711600 0.642760 -0.495821
O6    O     O_R   0.379080 0.500000 0.642760 -0.495802
O7    O     O_R   0.620920 0.500000 0.357240 -0.484024
O8    O     O_R   0.379070 0.500000 0.357190 -0.503833
O9    O     O_R   0.620930 0.500000 0.642810 -0.502340
O10   O     O_3   0.904145 0.532288 0.212299 -0.577397

loop_
_geom_bond_atom_site_label_1
_geom_bond_atom_site_label_2
_ccdc_geom_bond_type
C6    C32   S    
C25   O10   S    
C26   O2    S    
C19   C20   S    
C25   H22   S    
C18   H13   S    
C20   H7    S    
C21   H21   S    
C14   H12   S    
C21   C31   S    
C3    C28   S    
C26   H27   S    
C5    O2    S    
Cu2   O7    S    
C21   H20   S    
C15   C16   S    
C18   C19   S    
Cu1   O5    S    
C16   C17   S    
C29   O9    A    
C18   C30   S    
C17   H2    S    
C28   O8    A    
C4    C29   S    
C11   H32   S    
C16   H3    S    
C24   H17   S    
C6    C31   S    
C21   C22   S    
C1    C12   T    
C27   O5    A    
C22   H19   S    
C24   H16   S    
C17   H33   S    
C7    C31   S    
C12   C27   S    
C23   O1    A    
C14   H1    S    
C5    C7    S    
Cu1   O9    S    
C6    C8    S    
C2    C31   S    
C3    C9    T    
Cu1   O6    S    
C6    O10   S    
C13   H29   S    
Cu1   Cu2   S    
C2    C15   S    
Cu2   N1    S    
C15   H5    S    
Cu1   N2    S    
Cu2   O4    S    
C11   C32   S    
C1    C23   S    
C22   C24   S    
C2    C5    S    
C25   H24   S    
C23   O4    A    
C4    C10   T    
C28   O6    A    
C20   H9    S    
C19   H10   S    
C22   H18   S    
C5    C30   S    
C24   H15   S    
C7    C9    S    
C14   H23   S    
C17   H34   S    
C7    C32   S    
C2    C8    S    
C18   H14   S    
C20   H8    S    
C19   H11   S    
C8    C30   S    
C26   H28   S    
C27   O3    A    
Cu2   O8    S    
C30   C32   S    
C11   C13   S    
C13   H30   S    
N1    N2    T    
C15   H6    S    
Cu1   O1    S    
Cu2   O3    S    
C29   O7    A    
C8    C10   S    
C25   H25   S    
C13   C14   S    
C26   H26   S    
C11   H31   S    
C16   H4    S    
