data_mof_unit_63897.cif
_audit_creation_date              2012-12-10T20:07:47-0500
_audit_creation_method            fapswitch 2.2
_symmetry_space_group_name_H-M    P1
_symmetry_Int_Tables_number       1
_space_group_crystal_system       triclinic
_cell_length_a                    22.519711
_cell_length_b                    36.16368
_cell_length_c                    22.523667
_cell_angle_alpha                 89.991856
_cell_angle_beta                  89.998269
_cell_angle_gamma                 89.998845
_cell_volume                      18343.1756055

loop_
_atom_site_label
_atom_site_type_symbol
_atom_type_description
_atom_site_fract_x
_atom_site_fract_y
_atom_site_fract_z
_atom_type_partial_charge
C1    C     C_R   0.499940 0.849615 0.749943 0.510054
C2    C     C_R   0.000125 0.849612 0.749881 0.518263
C3    C     C_R   0.339853 0.249999 0.749999 0.519620
C4    C     C_R   0.839855 0.750000 0.250001 0.520952
C5    C     C_R   0.839853 0.750000 0.750000 0.522567
C6    C     C_R   0.839855 0.250001 0.750000 0.520972
C7    C     C_R   0.839853 0.250001 0.250002 0.519668
C8    C     C_R   0.660145 0.750000 0.750000 0.515234
C9    C     C_R   0.660143 0.750000 0.250000 0.514471
C10   C     C_R   0.660145 0.250001 0.250001 0.513446
C11   C     C_R   0.660143 0.250001 0.749998 0.513579
C12   C     C_R   0.160145 0.750001 0.250001 0.514106
C13   C     C_R   0.000156 0.150385 0.749876 0.517170
C14   C     C_R   0.160143 0.750001 0.749998 0.514957
C15   C     C_R   0.160145 0.250000 0.750000 0.514890
C16   C     C_R   0.160143 0.250000 0.249999 0.514568
C17   C     C_1   0.723373 0.750000 0.750000 0.000456
C18   C     C_1   0.723373 0.749999 0.249999 0.000766
C19   C     C_1   0.723373 0.250003 0.250002 -0.003691
C20   C     C_1   0.723373 0.250001 0.749998 0.001485
C21   C     C_1   0.223373 0.750003 0.250003 -0.004199
C22   C     C_1   0.223373 0.750001 0.749997 -0.001342
C23   C     C_1   0.223373 0.249999 0.749999 -0.003475
C24   C     C_R   0.000056 0.150388 0.250065 0.514978
C25   C     C_1   0.223373 0.249999 0.249999 -0.000572
C26   C     C_1   0.776625 0.750000 0.750000 0.001114
C27   C     C_1   0.776625 0.750000 0.250001 0.002246
C28   C     C_1   0.776625 0.250003 0.250003 -0.002956
C29   C     C_1   0.776625 0.250002 0.749999 0.003297
C30   C     C_1   0.276624 0.750003 0.250003 -0.003539
C31   C     C_1   0.276625 0.750002 0.749999 0.000354
C32   C     C_1   0.276625 0.249998 0.749999 -0.002933
C33   C     C_1   0.276625 0.250000 0.250000 0.001044
C34   C     C_3   0.552319 0.521605 0.785081 0.100252
C35   C     C_R   0.000014 0.349613 0.749996 0.519711
C36   C     C_3   0.555133 0.521486 0.219136 0.136669
C37   C     C_3   0.560238 0.478800 0.228070 0.117561
C38   C     C_3   0.542326 0.479570 0.794460 0.130838
C39   C     C_3   0.558167 0.020902 0.230709 0.126880
C40   C     C_3   0.551100 0.021469 0.782784 0.134560
C41   C     C_3   0.545297 0.978829 0.791471 0.117045
C42   C     C_3   0.552786 0.978427 0.219921 0.124564
C43   C     C_3   0.061391 0.520918 0.246241 0.126876
C44   C     C_3   0.059287 0.521478 0.728843 0.132676
C45   C     C_3   0.062592 0.478801 0.738630 0.112909
C46   C     C_R   0.999985 0.349615 0.250007 0.513619
C47   C     C_3   0.058950 0.478437 0.234629 0.124745
C48   C     C_3   0.057459 0.020986 0.777396 0.131021
C49   C     C_3   0.055584 0.021530 0.220080 0.136983
C50   C     C_3   0.060600 0.978856 0.229154 0.117587
C51   C     C_3   0.061587 0.978460 0.766105 0.125858
C52   C     C_3   0.507777 0.522698 0.678544 0.503149
C53   C     C_3   0.499440 0.521896 0.320327 0.469930
C54   C     C_3   0.490442 0.477851 0.319536 0.485372
C55   C     C_3   0.516252 0.478489 0.679421 0.449256
C56   C     C_3   0.444913 0.022251 0.209279 0.498086
C57   C     C_R   0.000002 0.650382 0.250014 0.517862
C58   C     C_3   0.435698 0.021909 0.778005 0.469372
C59   C     C_3   0.432363 0.977863 0.769573 0.484106
C60   C     C_3   0.437594 0.978522 0.218387 0.449227
C61   C     C_3   0.957319 0.522234 0.196709 0.500279
C62   C     C_3   0.985334 0.521887 0.817563 0.470027
C63   C     C_3   0.976548 0.477865 0.815013 0.483802
C64   C     C_3   0.947951 0.478508 0.203724 0.451514
C65   C     C_3   0.994506 0.022242 0.680842 0.498679
C66   C     C_3   0.997673 0.021908 0.320018 0.469129
C67   C     C_3   0.988766 0.977862 0.319032 0.483469
C68   C     C_R   0.000017 0.650388 0.750012 0.518230
C69   C     C_3   0.982934 0.978505 0.681930 0.448334
C70   C     C_1   0.000514 0.889189 0.749116 0.059046
C71   C     C_1   0.000524 0.889200 0.250735 0.086306
C72   C     C_1   0.000297 0.110810 0.250741 0.072073
C73   C     C_1   0.000613 0.110800 0.749262 0.100738
C74   C     C_1   0.999037 0.389194 0.250528 0.061537
C75   C     C_1   0.999958 0.389196 0.750196 0.087410
C76   C     C_1   0.999904 0.610808 0.750254 0.073803
C77   C     C_1   0.999307 0.610793 0.250491 0.100596
C78   C     C_1   0.498911 0.889188 0.250733 0.060840
C79   C     C_3   0.499797 0.536723 0.744998 -0.029060
C80   C     C_1   0.498972 0.889195 0.749315 0.086697
C81   C     C_1   0.498840 0.110807 0.749205 0.074012
C82   C     C_1   0.499273 0.110790 0.250656 0.102714
C83   C     C_1   0.500555 0.389127 0.748820 0.061887
C84   C     C_1   0.500547 0.389195 0.250830 0.084829
C85   C     C_1   0.500476 0.610807 0.250902 0.072356
C86   C     C_1   0.500494 0.610861 0.748949 0.093829
C87   C     C_3   0.146545 0.944299 0.740856 -0.046890
C88   C     C_3   0.147399 0.944377 0.245352 -0.043678
C89   C     C_3   0.148186 0.045135 0.192208 -0.064062
C90   C     C_3   0.499261 0.536620 0.253363 -0.019980
C91   C     C_3   0.152344 0.042583 0.801468 -0.068865
C92   C     C_3   0.120441 0.445551 0.169238 -0.014518
C93   C     C_3   0.145018 0.444043 0.769436 -0.014029
C94   C     C_3   0.155602 0.544543 0.717067 -0.025521
C95   C     C_3   0.153934 0.544975 0.219173 -0.034976
C96   C     C_3   0.594157 0.944803 0.141012 -0.032875
C97   C     C_3   0.570932 0.944283 0.875854 -0.031495
C98   C     C_3   0.619044 0.044800 0.851762 -0.041451
C99   C     C_3   0.641187 0.043574 0.180088 -0.042890
C100  C     C_3   0.634458 0.446562 0.780070 0.000999
C101  C     C_3   0.499675 0.463401 0.253393 -0.027519
C102  C     C_3   0.647046 0.444022 0.242503 -0.037084
C103  C     C_3   0.647551 0.544466 0.189372 -0.057621
C104  C     C_3   0.647499 0.546176 0.798063 -0.055017
C105  C     C_3   0.460555 0.533570 0.584605 0.017961
C106  C     C_3   0.462581 0.566867 0.390955 -0.051525
C107  C     C_3   0.420565 0.467192 0.398140 0.020948
C108  C     C_3   0.494455 0.431780 0.605134 -0.036219
C109  C     C_3   0.344562 0.037292 0.184554 0.000647
C110  C     C_3   0.356153 0.066958 0.776408 -0.053932
C111  C     C_3   0.330884 0.967258 0.741779 0.019027
C112  C     C_R   0.499975 0.849614 0.250020 0.508576
C113  C     C_3   0.499730 0.463142 0.744734 -0.050642
C114  C     C_3   0.353349 0.940938 0.245628 -0.021559
C115  C     C_3   0.866572 0.537299 0.147245 -0.008024
C116  C     C_3   0.935823 0.566957 0.879797 -0.048752
C117  C     C_3   0.892742 0.467153 0.878552 0.023997
C118  C     C_3   0.859619 0.440869 0.208805 -0.026006
C119  C     C_3   0.943188 0.037282 0.591121 0.001018
C120  C     C_3   0.959185 0.066878 0.389781 -0.048902
C121  C     C_3   0.917132 0.967143 0.396022 0.028749
C122  C     C_3   0.905052 0.940880 0.639967 -0.007683
C123  C     C_3   0.496580 0.036558 0.251939 -0.024438
C124  C     C_3   0.495593 0.036625 0.748043 -0.026434
C125  C     C_3   0.495748 0.963399 0.748505 -0.034237
C126  C     C_3   0.495169 0.963333 0.251799 -0.037845
C127  C     C_3   0.996426 0.536567 0.251091 -0.022216
C128  C     C_3   0.997931 0.536623 0.751815 -0.024095
C129  C     C_3   0.998312 0.463406 0.751889 -0.033212
C130  C     C_3   0.995124 0.463342 0.250734 -0.035681
C131  C     C_3   0.999395 0.036568 0.747673 -0.019103
C132  C     C_R   0.500002 0.150381 0.250028 0.515577
C133  C     C_3   0.998949 0.036626 0.253063 -0.020352
C134  C     C_3   0.999516 0.963411 0.253121 -0.029330
C135  C     C_3   0.998661 0.963345 0.746629 -0.032802
C136  C     C_3   0.951023 0.977959 0.793156 0.390722
C137  C     C_3   0.948317 0.977963 0.210380 0.385502
C138  C     C_3   0.943044 0.021791 0.217006 0.382523
C139  C     C_3   0.945303 0.021781 0.786460 0.378053
C140  C     C_3   0.978711 0.477975 0.315258 0.387407
C141  C     C_3   0.955139 0.478002 0.701090 0.382706
C142  C     C_3   0.948877 0.521840 0.706821 0.380461
C143  C     C_R   0.499947 0.150385 0.749956 0.511288
C144  C     C_3   0.970455 0.521845 0.312452 0.375993
C145  C     C_3   0.495786 0.977944 0.318391 0.385098
C146  C     C_3   0.509854 0.977966 0.683338 0.378419
C147  C     C_3   0.501517 0.021814 0.681775 0.376143
C148  C     C_3   0.487085 0.021810 0.317856 0.373254
C149  C     C_3   0.434863 0.477899 0.762160 0.394045
C150  C     C_3   0.447565 0.477995 0.211816 0.388061
C151  C     C_3   0.442541 0.521825 0.218552 0.384964
C152  C     C_3   0.438204 0.521866 0.770921 0.377256
C153  C     C_1   0.000123 0.922490 0.747887 0.062148
C154  C     C_R   0.500091 0.349614 0.250079 0.518625
C155  C     C_1   0.000490 0.922499 0.251710 0.100873
C156  C     C_1   0.999941 0.077513 0.251929 0.106718
C157  C     C_1   0.000513 0.077502 0.748548 0.139679
C158  C     C_1   0.997381 0.422490 0.250645 0.064854
C159  C     C_1   0.999524 0.422497 0.750783 0.098633
C160  C     C_1   0.999211 0.577509 0.751018 0.105097
C161  C     C_1   0.998214 0.577499 0.250838 0.137294
C162  C     C_1   0.497262 0.922482 0.251194 0.063751
C163  C     C_1   0.497644 0.922490 0.748960 0.100530
C164  C     C_1   0.497239 0.077515 0.748690 0.105258
C165  C     C_R   0.500011 0.349592 0.749959 0.512316
C166  C     C_1   0.498251 0.077495 0.251273 0.138527
C167  C     C_1   0.500568 0.422397 0.746869 0.081899
C168  C     C_1   0.500545 0.422492 0.251908 0.101327
C169  C     C_1   0.500240 0.577510 0.252184 0.107038
C170  C     C_1   0.500389 0.577596 0.747329 0.111026
C171  C     C_1   0.499989 0.749989 0.526624 0.006573
C172  C     C_1   0.499985 0.749986 0.473376 0.005484
C173  C     C_1   0.499990 0.250013 0.473376 0.006601
C174  C     C_1   0.499987 0.250015 0.526624 0.005459
C175  C     C_1   0.499989 0.249990 0.026624 0.002208
C176  C     C_R   0.500040 0.650405 0.749941 0.522147
C177  C     C_1   0.499984 0.249987 0.973376 0.002029
C178  C     C_1   0.499990 0.750012 0.973376 -0.001156
C179  C     C_1   0.499987 0.750013 0.026624 -0.001150
C180  C     C_1   0.999989 0.749989 0.026624 0.000915
C181  C     C_1   0.999985 0.749986 0.973376 0.000256
C182  C     C_1   0.999989 0.250011 0.973376 0.002068
C183  C     C_1   0.999986 0.250013 0.026624 0.001538
C184  C     C_1   0.999989 0.249989 0.526624 0.005088
C185  C     C_1   0.999985 0.249986 0.473376 0.004362
C186  C     C_1   0.999989 0.750011 0.473376 0.007402
C187  C     C_R   0.500085 0.650386 0.250092 0.516109
C188  C     C_1   0.999986 0.750013 0.526624 0.006728
C189  C     C_R   0.499997 0.750007 0.910148 0.516269
C190  C     C_R   0.499994 0.750008 0.089852 0.517450
C191  C     C_R   0.499996 0.249994 0.089852 0.519515
C192  C     C_R   0.499993 0.249992 0.910147 0.520161
C193  C     C_R   0.499997 0.250007 0.410148 0.519916
C194  C     C_R   0.499995 0.250009 0.589852 0.517137
C195  C     C_R   0.499997 0.749994 0.589852 0.520197
C196  C     C_R   0.499994 0.749992 0.410147 0.518872
C197  C     C_R   0.999996 0.750006 0.410148 0.520962
C198  C     C_R   0.000095 0.849615 0.250073 0.518668
C199  C     C_R   0.999994 0.750008 0.589852 0.521303
C200  C     C_R   0.999997 0.249994 0.589852 0.520482
C201  C     C_R   0.999994 0.249991 0.410147 0.519343
C202  C     C_R   0.999996 0.250006 0.910148 0.519348
C203  C     C_R   0.999994 0.250007 0.089852 0.519432
C204  C     C_R   0.999996 0.749994 0.089852 0.520026
C205  C     C_R   0.999994 0.749992 0.910147 0.519877
C206  C     C_R   0.339855 0.750001 0.749999 0.519575
C207  C     C_R   0.339853 0.750001 0.250002 0.518902
C208  C     C_R   0.339855 0.250000 0.250000 0.520393
Cl1   Cl    Cl    0.570270 0.548129 0.645048 -0.456746
Cl2   Cl    Cl    0.048470 0.533410 0.865835 -0.411412
Cl3   Cl    Cl    0.017976 0.453040 0.873033 -0.470326
Cl4   Cl    Cl    0.957508 0.455395 0.131712 -0.529300
Cl5   Cl    Cl    0.062436 0.035377 0.641571 -0.412435
Cl6   Cl    Cl    0.067994 0.033549 0.356954 -0.422979
Cl7   Cl    Cl    0.039583 0.953104 0.369112 -0.475954
Cl8   Cl    Cl    0.028737 0.955418 0.625511 -0.516221
Cl9   Cl    Cl    0.432107 0.535490 0.848072 -0.468439
Cl10  Cl    Cl    0.435793 0.544691 0.147305 -0.440646
Cl11  Cl    Cl    0.462049 0.463905 0.136001 -0.478000
Cl12  Cl    Cl    0.570580 0.533489 0.355696 -0.419951
Cl13  Cl    Cl    0.407586 0.454749 0.828181 -0.419915
Cl14  Cl    Cl    0.537323 0.044795 0.368591 -0.397862
Cl15  Cl    Cl    0.562257 0.044706 0.643984 -0.402053
Cl16  Cl    Cl    0.584243 0.963914 0.662668 -0.458670
Cl17  Cl    Cl    0.564511 0.964117 0.353782 -0.445238
Cl18  Cl    Cl    0.006135 0.544859 0.374266 -0.414003
Cl19  Cl    Cl    0.955799 0.544759 0.635642 -0.395054
Cl20  Cl    Cl    0.983915 0.463970 0.629443 -0.434297
Cl21  Cl    Cl    0.036075 0.464158 0.367078 -0.458387
Cl22  Cl    Cl    0.943386 0.044762 0.857848 -0.441041
Cl23  Cl    Cl    0.542333 0.453054 0.368453 -0.498950
Cl24  Cl    Cl    0.937823 0.044659 0.145633 -0.440787
Cl25  Cl    Cl    0.964525 0.963892 0.134906 -0.470122
Cl26  Cl    Cl    0.973132 0.964171 0.867255 -0.468924
Cl27  Cl    Cl    0.374913 0.545532 0.739227 -0.382395
Cl28  Cl    Cl    0.374590 0.536047 0.254469 -0.390966
Cl29  Cl    Cl    0.377976 0.454638 0.226203 -0.373505
Cl30  Cl    Cl    0.378831 0.464204 0.709194 -0.390750
Cl31  Cl    Cl    0.415736 0.035837 0.346627 -0.304669
Cl32  Cl    Cl    0.439072 0.035979 0.636961 -0.308161
Cl33  Cl    Cl    0.466099 0.954538 0.627469 -0.297406
Cl34  Cl    Cl    0.592465 0.467712 0.658340 -0.548074
Cl35  Cl    Cl    0.441720 0.954572 0.364304 -0.341950
Cl36  Cl    Cl    0.894134 0.535888 0.322103 -0.312650
Cl37  Cl    Cl    0.875323 0.536008 0.729205 -0.366224
Cl38  Cl    Cl    0.884117 0.454610 0.701812 -0.342580
Cl39  Cl    Cl    0.914701 0.454617 0.345843 -0.351185
Cl40  Cl    Cl    0.875127 0.035757 0.754835 -0.347354
Cl41  Cl    Cl    0.874296 0.035954 0.251424 -0.376735
Cl42  Cl    Cl    0.878476 0.954546 0.223195 -0.365614
Cl43  Cl    Cl    0.880439 0.954576 0.786007 -0.392300
Cl44  Cl    Cl    0.463495 0.035385 0.133059 -0.406376
Cl45  Cl    Cl    0.435725 0.033495 0.857447 -0.430170
Cl46  Cl    Cl    0.411498 0.953076 0.837765 -0.488069
Cl47  Cl    Cl    0.428501 0.955442 0.146288 -0.518054
Cl48  Cl    Cl    0.994667 0.535323 0.127685 -0.422075
H1    H     H_    0.548748 0.535301 0.829554 0.141161
H2    H     H_    0.060434 0.526435 0.679909 0.135950
H3    H     H_    0.821020 0.436522 0.238589 0.161303
H4    H     H_    0.958320 0.009894 0.574977 0.168531
H5    H     H_    0.969455 0.059497 0.569480 0.151667
H6    H     H_    0.896361 0.040685 0.576887 0.154552
H7    H     H_    0.987331 0.088794 0.369902 0.149347
H8    H     H_    0.979320 0.055969 0.431272 0.152767
H9    H     H_    0.916385 0.079941 0.402152 0.155376
H10   H     H_    0.944516 0.986544 0.422783 0.157366
H11   H     H_    0.923918 0.938445 0.412189 0.156187
H12   H     H_    0.869865 0.974386 0.403527 0.169315
H13   H     H_    0.078788 0.466825 0.695870 0.121380
H14   H     H_    0.927622 0.915943 0.657442 0.149424
H15   H     H_    0.913640 0.944161 0.591698 0.141190
H16   H     H_    0.856633 0.936401 0.645349 0.184545
H17   H     H_    0.092132 0.465733 0.265398 0.122150
H18   H     H_    0.052655 0.025211 0.826283 0.136370
H19   H     H_    0.048451 0.026454 0.171646 0.135866
H20   H     H_    0.069312 0.966881 0.184266 0.120756
H21   H     H_    0.074109 0.965762 0.809578 0.122322
H22   H     H_    0.177819 0.938654 0.703912 0.172880
H23   H     H_    0.124217 0.917856 0.752387 0.115253
H24   H     H_    0.172965 0.954536 0.779142 0.089069
H25   H     H_    0.546977 0.526470 0.170880 0.133765
H26   H     H_    0.181943 0.938236 0.279044 0.175232
H27   H     H_    0.170175 0.955253 0.205208 0.093818
H28   H     H_    0.124122 0.918079 0.234886 0.109086
H29   H     H_    0.190413 0.056099 0.210401 0.157627
H30   H     H_    0.130613 0.065781 0.160115 0.124684
H31   H     H_    0.158186 0.018660 0.169190 0.106397
H32   H     H_    0.194231 0.052796 0.781377 0.152121
H33   H     H_    0.161825 0.015387 0.822471 0.109305
H34   H     H_    0.138109 0.062893 0.835682 0.125996
H35   H     H_    0.128342 0.439878 0.121499 0.196076
H36   H     H_    0.567936 0.466838 0.182991 0.117938
H37   H     H_    0.109512 0.418855 0.191130 0.101393
H38   H     H_    0.162009 0.457272 0.188043 0.131974
H39   H     H_    0.173190 0.437791 0.808558 0.201781
H40   H     H_    0.174449 0.454737 0.733740 0.130902
H41   H     H_    0.123567 0.417833 0.755203 0.101982
H42   H     H_    0.194515 0.554895 0.742270 0.204246
H43   H     H_    0.144384 0.565445 0.682641 0.125621
H44   H     H_    0.168530 0.517990 0.695793 0.129609
H45   H     H_    0.179549 0.555613 0.180739 0.194185
H46   H     H_    0.175091 0.518741 0.233930 0.136847
H47   H     H_    0.514432 0.479750 0.834887 0.207723
H48   H     H_    0.156178 0.566023 0.255088 0.128667
H49   H     H_    0.589609 0.939410 0.092755 0.174949
H50   H     H_    0.587510 0.918149 0.164642 0.104954
H51   H     H_    0.639757 0.955459 0.148975 0.121623
H52   H     H_    0.556966 0.938136 0.922032 0.184700
H53   H     H_    0.617118 0.955062 0.877468 0.113851
H54   H     H_    0.569325 0.918002 0.850352 0.099724
H55   H     H_    0.622756 0.055295 0.897875 0.177132
H56   H     H_    0.639281 0.065681 0.821695 0.131769
H57   H     H_    0.643975 0.018304 0.849174 0.131601
H58   H     H_    0.590040 0.025014 0.268130 0.136567
H59   H     H_    0.656019 0.054096 0.136272 0.177454
H60   H     H_    0.663955 0.016748 0.188174 0.136856
H61   H     H_    0.654432 0.064125 0.214337 0.136132
H62   H     H_    0.656803 0.469628 0.756941 0.237651
H63   H     H_    0.617679 0.424829 0.749843 0.158240
H64   H     H_    0.669582 0.433046 0.806901 0.140359
H65   H     H_    0.682206 0.437774 0.275498 0.186047
H66   H     H_    0.669104 0.454704 0.201832 0.090707
H67   H     H_    0.623250 0.417814 0.232659 0.105370
H68   H     H_    0.690549 0.554771 0.206787 0.174739
H69   H     H_    0.590649 0.026353 0.753899 0.137345
H70   H     H_    0.630123 0.565368 0.157638 0.118074
H71   H     H_    0.656160 0.517891 0.166086 0.102281
H72   H     H_    0.691150 0.549553 0.775904 0.197689
H73   H     H_    0.654490 0.529285 0.838763 0.133099
H74   H     H_    0.630761 0.574183 0.809765 0.121995
H75   H     H_    0.494572 0.514281 0.566662 0.176919
H76   H     H_    0.471242 0.562270 0.570722 0.145748
H77   H     H_    0.417353 0.526057 0.564270 0.148851
H78   H     H_    0.490310 0.588777 0.370473 0.151026
H79   H     H_    0.483618 0.555922 0.431973 0.147220
H80   H     H_    0.589105 0.966818 0.778412 0.123353
H81   H     H_    0.420089 0.579949 0.404294 0.151745
H82   H     H_    0.448593 0.486576 0.424263 0.150444
H83   H     H_    0.427665 0.438493 0.414168 0.149299
H84   H     H_    0.373498 0.474475 0.406715 0.165314
H85   H     H_    0.517906 0.411228 0.633079 0.136714
H86   H     H_    0.522883 0.440316 0.567235 0.180582
H87   H     H_    0.454795 0.417857 0.586374 0.151344
H88   H     H_    0.343528 0.009984 0.162209 0.170785
H89   H     H_    0.346745 0.059639 0.150825 0.159225
H90   H     H_    0.302005 0.040419 0.208794 0.138379
H91   H     H_    0.592771 0.965685 0.241038 0.125542
H92   H     H_    0.386897 0.088854 0.792038 0.153532
H93   H     H_    0.328817 0.056065 0.813557 0.148697
H94   H     H_    0.325267 0.080029 0.744311 0.154084
H95   H     H_    0.319919 0.986636 0.778489 0.154647
H96   H     H_    0.319609 0.938560 0.755208 0.141693
H97   H     H_    0.302334 0.974578 0.703413 0.173822
H98   H     H_    0.381588 0.915990 0.241594 0.146888
H99   H     H_    0.324492 0.944172 0.205982 0.136044
H100  H     H_    0.323627 0.936538 0.284251 0.171110
H101  H     H_    0.871012 0.509910 0.125581 0.166292
H102  H     H_    0.082665 0.525034 0.290555 0.132196
H103  H     H_    0.877563 0.559514 0.115040 0.151733
H104  H     H_    0.819239 0.540683 0.159748 0.132008
H105  H     H_    0.967042 0.588799 0.864947 0.151346
H106  H     H_    0.948618 0.556061 0.924107 0.174238
H107  H     H_    0.891613 0.580113 0.884714 0.144935
H108  H     H_    0.915139 0.486516 0.909661 0.173144
H109  H     H_    0.896661 0.438428 0.895523 0.159961
H110  H     H_    0.844885 0.474394 0.877865 0.147608
H111  H     H_    0.887991 0.415949 0.212276 0.151074
H112  H     H_    0.841859 0.443968 0.163081 0.136205
O1    O     O_3   0.499990 0.750000 0.750000 -0.460760
O2    O     O_R   0.534620 0.832000 0.284640 -0.514877
O3    O     O_R   0.965400 0.168000 0.284590 -0.534700
O4    O     O_R   0.965400 0.332000 0.784590 -0.520359
O5    O     O_R   0.965400 0.332000 0.215410 -0.535662
O6    O     O_R   0.965400 0.668000 0.215410 -0.526312
O7    O     O_R   0.965400 0.668000 0.784590 -0.539356
O8    O     O_3   0.105227 0.971184 0.721920 -0.434132
O9    O     O_3   0.107929 0.970883 0.269016 -0.432185
O10   O     O_3   0.107902 0.040014 0.239499 -0.458869
O11   O     O_3   0.108988 0.039665 0.756438 -0.465472
O12   O     O_3   0.073154 0.470970 0.174248 -0.434658
O13   O     O_R   0.534620 0.168000 0.284640 -0.521126
O14   O     O_3   0.102441 0.470785 0.785943 -0.438445
O15   O     O_3   0.107663 0.539908 0.756754 -0.467262
O16   O     O_3   0.094523 0.539414 0.201338 -0.471745
O17   O     O_3   0.551075 0.971134 0.157860 -0.436433
O18   O     O_3   0.531850 0.970895 0.851875 -0.432319
O19   O     O_3   0.558379 0.039933 0.838116 -0.466842
O20   O     O_3   0.578856 0.039513 0.179008 -0.475382
O21   O     O_3   0.590163 0.458709 0.819288 -0.561625
O22   O     O_3   0.608430 0.470774 0.266855 -0.429066
O23   O     O_3   0.607923 0.539915 0.237379 -0.456242
O24   O     O_R   0.534620 0.168000 0.715360 -0.511003
O25   O     O_3   0.608337 0.528361 0.758413 -0.489113
O26   O     O_3   0.454571 0.532073 0.647214 -0.492897
O27   O     O_3   0.449792 0.537783 0.351092 -0.532975
O28   O     O_3   0.430830 0.468857 0.336133 -0.492679
O29   O     O_3   0.475364 0.463277 0.637096 -0.523045
O30   O     O_3   0.391677 0.041274 0.225670 -0.503925
O31   O     O_3   0.386063 0.037821 0.747255 -0.532896
O32   O     O_3   0.391039 0.968892 0.723505 -0.494322
O33   O     O_3   0.386522 0.973537 0.255574 -0.510162
O34   O     O_3   0.901650 0.541253 0.199017 -0.503614
O35   O     O_R   0.534620 0.332000 0.215360 -0.540435
O36   O     O_3   0.930779 0.537808 0.838356 -0.540254
O37   O     O_3   0.914825 0.468935 0.819735 -0.501548
O38   O     O_3   0.889085 0.473537 0.226670 -0.511962
O39   O     O_3   0.945830 0.041207 0.653625 -0.500815
O40   O     O_3   0.947335 0.037764 0.349684 -0.532233
O41   O     O_3   0.928805 0.968832 0.334269 -0.493587
O42   O     O_3   0.920755 0.973478 0.670821 -0.510588
O43   O     O_R   0.534620 0.332000 0.784640 -0.527637
O44   O     O_R   0.534620 0.668000 0.784640 -0.537744
O45   O     O_R   0.534620 0.668000 0.215360 -0.526559
O46   O     O_R   0.034620 0.832000 0.215360 -0.540033
O47   O     O_R   0.034620 0.832000 0.784640 -0.531772
O48   O     O_R   0.034620 0.168000 0.784640 -0.533693
O49   O     O_3   0.499990 0.750000 0.250000 -0.457750
O50   O     O_R   0.034620 0.168000 0.215360 -0.526907
O51   O     O_R   0.034620 0.332000 0.715360 -0.533168
O52   O     O_R   0.034620 0.332000 0.284640 -0.519567
O53   O     O_R   0.034620 0.668000 0.284640 -0.525527
O54   O     O_R   0.034620 0.668000 0.715360 -0.521359
O55   O     O_R   0.465390 0.771500 0.882020 -0.527207
O56   O     O_R   0.465390 0.771500 0.117980 -0.526616
O57   O     O_R   0.465390 0.228500 0.117980 -0.527568
O58   O     O_R   0.465390 0.228500 0.882020 -0.527422
O59   O     O_R   0.465390 0.271500 0.382020 -0.532636
O60   O     O_3   0.499990 0.250000 0.250000 -0.460049
O61   O     O_R   0.465390 0.271500 0.617980 -0.536676
O62   O     O_R   0.465390 0.728500 0.617980 -0.533123
O63   O     O_R   0.465390 0.728500 0.382020 -0.536802
O64   O     O_R   0.965390 0.771500 0.382020 -0.529106
O65   O     O_R   0.965390 0.771500 0.617980 -0.530667
O66   O     O_R   0.965390 0.228500 0.617980 -0.530740
O67   O     O_R   0.965390 0.228500 0.382020 -0.534791
O68   O     O_R   0.965390 0.271500 0.882020 -0.528726
O69   O     O_R   0.965390 0.271500 0.117980 -0.528204
O70   O     O_R   0.965390 0.728500 0.117980 -0.531785
O71   O     O_3   0.499990 0.250000 0.750000 -0.458421
O72   O     O_R   0.965390 0.728500 0.882020 -0.535286
O73   O     O_R   0.367970 0.771500 0.784600 -0.527691
O74   O     O_R   0.367970 0.771500 0.215400 -0.530996
O75   O     O_R   0.367970 0.228500 0.215400 -0.529335
O76   O     O_R   0.367970 0.228500 0.784600 -0.533459
O77   O     O_R   0.367970 0.271500 0.284600 -0.525067
O78   O     O_R   0.367970 0.271500 0.715400 -0.523052
O79   O     O_R   0.367970 0.728500 0.715400 -0.525512
O80   O     O_R   0.367970 0.728500 0.284600 -0.525228
O81   O     O_R   0.867970 0.771500 0.284600 -0.523478
O82   O     O_3   0.999990 0.750000 0.250000 -0.459468
O83   O     O_R   0.867970 0.771500 0.715400 -0.525515
O84   O     O_R   0.867970 0.228500 0.715400 -0.523443
O85   O     O_R   0.867970 0.228500 0.284600 -0.523053
O86   O     O_R   0.867970 0.271500 0.784600 -0.529154
O87   O     O_R   0.867970 0.271500 0.215400 -0.533805
O88   O     O_R   0.867970 0.728500 0.215400 -0.530751
O89   O     O_R   0.867970 0.728500 0.784600 -0.529644
O90   O     O_R   0.632030 0.771500 0.715390 -0.525931
O91   O     O_R   0.632030 0.771500 0.284610 -0.525947
O92   O     O_R   0.632030 0.228500 0.284610 -0.525904
O93   O     O_3   0.999990 0.750000 0.750000 -0.456298
O94   O     O_R   0.632030 0.228500 0.715390 -0.525322
O95   O     O_R   0.632030 0.271500 0.215390 -0.536695
O96   O     O_R   0.632030 0.271500 0.784610 -0.534293
O97   O     O_R   0.632030 0.728500 0.784610 -0.534061
O98   O     O_R   0.632030 0.728500 0.215390 -0.534069
O99   O     O_R   0.132030 0.771500 0.215390 -0.534400
O100  O     O_R   0.132030 0.771500 0.784610 -0.533495
O101  O     O_R   0.132030 0.228500 0.784610 -0.532929
O102  O     O_R   0.132030 0.228500 0.215390 -0.532493
O103  O     O_R   0.132030 0.271500 0.715390 -0.529950
O104  O     O_3   0.999990 0.250000 0.750000 -0.459765
O105  O     O_R   0.132030 0.271500 0.284610 -0.528785
O106  O     O_R   0.132030 0.728500 0.284610 -0.528738
O107  O     O_R   0.132030 0.728500 0.715390 -0.528840
O108  O     O_R   0.534610 0.728510 0.882040 -0.531042
O109  O     O_R   0.534610 0.728510 0.117960 -0.530055
O110  O     O_R   0.534610 0.271490 0.117960 -0.527932
O111  O     O_R   0.534610 0.271490 0.882040 -0.526167
O112  O     O_R   0.534610 0.228510 0.382040 -0.519070
O113  O     O_R   0.534610 0.228510 0.617960 -0.518361
O114  O     O_R   0.534610 0.771490 0.617960 -0.518032
O115  O     O_3   0.999990 0.250000 0.250000 -0.456984
O116  O     O_R   0.534610 0.771490 0.382040 -0.517513
O117  O     O_R   0.034610 0.728510 0.382040 -0.523365
O118  O     O_R   0.034610 0.728510 0.617960 -0.523996
O119  O     O_R   0.034610 0.271490 0.617960 -0.522268
O120  O     O_R   0.034610 0.271490 0.382040 -0.520313
O121  O     O_R   0.034610 0.228510 0.882040 -0.528395
O122  O     O_R   0.034610 0.228510 0.117960 -0.528158
O123  O     O_R   0.034610 0.771490 0.117960 -0.525071
O124  O     O_R   0.034610 0.771490 0.882040 -0.523587
O125  O     O_R   0.465400 0.832000 0.784590 -0.527535
O126  O     O_R   0.534620 0.832000 0.715360 -0.517489
O127  O     O_R   0.465400 0.832000 0.215410 -0.535440
O128  O     O_R   0.465400 0.168000 0.215410 -0.526191
O129  O     O_R   0.465400 0.168000 0.784590 -0.541630
O130  O     O_R   0.465400 0.332000 0.284590 -0.518590
O131  O     O_R   0.465400 0.332000 0.715410 -0.530397
O132  O     O_R   0.465400 0.668000 0.715410 -0.518063
O133  O     O_R   0.465400 0.668000 0.284590 -0.534447
O134  O     O_R   0.965400 0.832000 0.284590 -0.517368
O135  O     O_R   0.965400 0.832000 0.715410 -0.532974
O136  O     O_R   0.965400 0.168000 0.715410 -0.521255
Zn1   Zn    Zn3+2 0.549450 0.719300 0.799470 0.969479
Zn2   Zn    Zn3+2 0.049450 0.719300 0.700530 0.986583
Zn3   Zn    Zn3+2 0.049450 0.280700 0.700530 0.981991
Zn4   Zn    Zn3+2 0.049450 0.280700 0.299470 0.987222
Zn5   Zn    Zn3+2 0.049450 0.219300 0.799470 0.974146
Zn6   Zn    Zn3+2 0.049450 0.219300 0.200530 0.975838
Zn7   Zn    Zn3+2 0.049450 0.780700 0.200530 0.971825
Zn8   Zn    Zn3+2 0.049450 0.780700 0.799470 0.975976
Zn9   Zn    Zn3+2 0.450550 0.780720 0.799450 0.980903
Zn10  Zn    Zn3+2 0.450550 0.780720 0.200550 0.973714
Zn11  Zn    Zn3+2 0.450550 0.219280 0.200550 0.984137
Zn12  Zn    Zn3+2 0.549450 0.719300 0.200530 0.973494
Zn13  Zn    Zn3+2 0.450550 0.219280 0.799450 0.972115
Zn14  Zn    Zn3+2 0.450550 0.280720 0.299450 0.986522
Zn15  Zn    Zn3+2 0.450550 0.280720 0.700550 0.976147
Zn16  Zn    Zn3+2 0.450550 0.719280 0.700550 0.988052
Zn17  Zn    Zn3+2 0.450550 0.719280 0.299450 0.974617
Zn18  Zn    Zn3+2 0.950550 0.780720 0.299450 0.991003
Zn19  Zn    Zn3+2 0.950550 0.780720 0.700550 0.980007
Zn20  Zn    Zn3+2 0.950550 0.219280 0.700550 0.989637
Zn21  Zn    Zn3+2 0.950550 0.219280 0.299450 0.977157
Zn22  Zn    Zn3+2 0.950550 0.280720 0.799450 0.985813
Zn23  Zn    Zn3+2 0.549450 0.280700 0.200530 0.967936
Zn24  Zn    Zn3+2 0.950550 0.280720 0.200550 0.972617
Zn25  Zn    Zn3+2 0.950550 0.719280 0.200550 0.980904
Zn26  Zn    Zn3+2 0.950550 0.719280 0.799450 0.972445
Zn27  Zn    Zn3+2 0.549450 0.280700 0.799470 0.975619
Zn28  Zn    Zn3+2 0.549450 0.219300 0.299470 0.992615
Zn29  Zn    Zn3+2 0.549450 0.219300 0.700530 0.994722
Zn30  Zn    Zn3+2 0.549450 0.780700 0.700530 0.993355
Zn31  Zn    Zn3+2 0.549450 0.780700 0.299470 0.991932
Zn32  Zn    Zn3+2 0.049450 0.719300 0.299470 0.986409

loop_
_geom_bond_atom_site_label_1
_geom_bond_atom_site_label_2
_ccdc_geom_bond_type
O49   Zn10  S    
C65   O39   S    
C33   C208  S    
C66   O40   S    
O102  Zn6   S    
C140  Cl39  S    
C2    O135  A    
C138  Cl41  S    
C130  C140  S    
C106  O27   S    
C202  O68   A    
C35   O4    A    
C175  C177  T    
C147  Cl32  S    
C180  C181  T    
C89   H29   S    
O131  Zn15  S    
O81   Zn18  S    
C99   H60   S    
C40   O19   S    
C42   H91   S    
C125  C146  S    
C62   O36   S    
C109  H89   S    
C60   O33   S    
O88   Zn25  S    
C133  C156  S    
C145  Cl35  S    
O114  Zn30  S    
O56   Zn10  S    
C182  C183  T    
O104  Zn20  S    
C103  O23   S    
C143  O24   A    
C65   C131  S    
C84   C154  S    
O96   Zn27  S    
O95   Zn23  S    
O93   Zn19  S    
C114  O33   S    
C198  O46   A    
C43   O16   S    
C42   O17   S    
O83   Zn19  S    
O64   Zn18  S    
C67   O41   S    
C109  H88   S    
C53   Cl12  S    
C119  H4    S    
C140  Cl21  S    
C69   C135  S    
C206  O73   A    
C103  H71   S    
C93   H41   S    
C198  O134  A    
O4    Zn22  S    
O125  Zn9   S    
O67   Zn21  S    
O116  Zn31  S    
O72   Zn26  S    
C124  C147  S    
C11   C20   S    
C56   C123  S    
C41   C125  S    
C4    O88   A    
C171  C195  S    
O49   Zn31  S    
C43   C127  S    
C178  C189  S    
C37   O22   S    
C145  Cl17  S    
C92   H37   S    
C85   C169  T    
C7    C28   S    
C34   H1    S    
O100  Zn8   S    
C80   C163  T    
C65   Cl5   S    
C84   C168  T    
O71   Zn27  S    
C134  C155  S    
C106  H78   S    
C3    O76   A    
C199  O65   A    
C41   H80   S    
C61   C127  S    
C187  O45   A    
C121  O41   S    
C122  H15   S    
C165  O131  A    
O49   Zn12  S    
C199  O118  A    
C13   C73   S    
C97   O18   S    
C89   H31   S    
C192  O58   A    
C41   O18   S    
C172  C196  S    
C57   O53   A    
C145  C148  S    
C75   C159  T    
C104  O25   S    
C146  C147  S    
C21   C30   T    
C16   C25   S    
C49   C133  S    
C91   H33   S    
C97   H52   S    
C9    O91   A    
C196  O63   A    
C88   H26   S    
C143  O129  A    
C200  O119  A    
C44   H2    S    
C8    C17   S    
C189  O108  A    
C176  O132  A    
C56   O30   S    
O79   Zn16  S    
C138  Cl24  S    
C102  H67   S    
O7    Zn26  S    
C10   O92   A    
C37   H36   S    
O71   Zn15  S    
C30   C207  S    
C144  Cl36  S    
O51   Zn3   S    
C108  O29   S    
C117  H110  S    
C87   H24   S    
O60   Zn14  S    
C4    O81   A    
O86   Zn22  S    
C42   C126  S    
C5    O89   A    
O62   Zn16  S    
C110  H94   S    
C205  O72   A    
C49   H19   S    
C190  O109  A    
C116  O36   S    
O113  Zn29  S    
C64   Cl4   S    
O55   Zn9   S    
C94   H44   S    
C43   C47   S    
O1    Zn30  S    
O6    Zn25  S    
O68   Zn22  S    
C105  H77   S    
O97   Zn1   S    
C48   H18   S    
C10   O95   A    
C102  O22   S    
O82   Zn32  S    
C72   C156  T    
C197  O64   A    
C54   C101  S    
C115  H103  S    
O82   Zn18  S    
C104  H73   S    
C121  H11   S    
C51   O8    S    
C187  O133  A    
O1    Zn1   S    
C16   O105  A    
C53   C54   S    
C191  O110  A    
O75   Zn11  S    
C111  O32   S    
C204  O70   A    
C102  H66   S    
C79   C170  S    
C36   C37   S    
C59   O32   S    
C34   C79   S    
O66   Zn20  S    
C14   O107  A    
C11   O96   A    
C114  H100  S    
C8    O97   A    
C111  H97   S    
C73   C157  T    
C110  H92   S    
C184  C185  T    
C51   H21   S    
C99   H61   S    
O46   Zn7   S    
C24   O50   A    
C88   O9    S    
C184  C200  S    
C136  Cl26  S    
C150  Cl11  S    
C48   C131  S    
C1    O126  A    
C52   C79   S    
C113  C167  S    
C34   O25   S    
O121  Zn5   S    
O69   Zn24  S    
C120  H7    S    
C8    O90   A    
C66   C67   S    
C133  C138  S    
C97   H54   S    
C202  O121  A    
C119  O39   S    
C47   O12   S    
C69   Cl8   S    
O47   Zn8   S    
O60   Zn23  S    
C88   H28   S    
C126  C145  S    
C205  O124  A    
C95   H45   S    
C40   C124  S    
C105  H75   S    
C120  O40   S    
C103  H68   S    
C203  O69   A    
C67   C134  S    
C12   O99   A    
C24   O3    A    
O43   Zn27  S    
O90   Zn30  S    
C189  O55   A    
O71   Zn13  S    
C83   C167  T    
O94   Zn29  S    
C87   H22   S    
O48   Zn5   S    
C101  C168  S    
C154  O130  A    
C96   H49   S    
O87   Zn24  S    
C146  Cl16  S    
C150  Cl29  S    
C152  Cl9   S    
C62   Cl2   S    
C94   H42   S    
C19   C28   T    
O132  Zn16  S    
C64   C130  S    
C204  O123  A    
C111  H96   S    
C68   O7    A    
C81   C164  T    
O84   Zn20  S    
C39   O20   S    
O85   Zn21  S    
C4    C27   S    
C24   C72   S    
C71   C198  S    
C38   O21   S    
C36   C90   S    
C106  H79   S    
C63   O37   S    
C86   C170  T    
C106  H81   S    
C58   O31   S    
C54   O28   S    
C63   Cl3   S    
C2    O47   A    
C190  O56   A    
O3    Zn21  S    
C109  O30   S    
C11   O94   A    
C114  H98   S    
O117  Zn32  S    
C200  O66   A    
C5    O83   A    
C14   C22   S    
C99   H59   S    
O24   Zn29  S    
C46   O52   A    
C37   C101  S    
C122  O42   S    
C50   O9    S    
O74   Zn10  S    
C90   C169  S    
O80   Zn17  S    
O128  Zn11  S    
C100  H63   S    
C131  C139  S    
C40   H69   S    
C9    C18   S    
C89   H30   S    
C123  C148  S    
O106  Zn32  S    
C49   C50   S    
C98   H55   S    
C6    O86   A    
C150  C151  S    
O134  Zn18  S    
C35   O51   A    
C25   C33   T    
C79   C152  S    
C116  H105  S    
C85   C187  S    
C61   O34   S    
C96   O17   S    
C194  O61   A    
C45   C129  S    
O104  Zn5   S    
C70   C153  T    
O127  Zn10  S    
O101  Zn5   S    
C108  H85   S    
C46   C74   S    
O50   Zn6   S    
C112  O127  A    
C134  C137  S    
C135  C136  S    
C83   C165  S    
C38   H47   S    
O58   Zn13  S    
C55   Cl34  S    
C96   H51   S    
C119  H6    S    
C129  C141  S    
C49   O10   S    
O98   Zn12  S    
C36   O23   S    
C92   H38   S    
C101  C150  S    
C39   C123  S    
C93   H39   S    
C185  C201  S    
C131  C157  S    
C107  H84   S    
C195  O114  A    
C53   O27   S    
C123  C166  S    
C207  O80   A    
O115  Zn21  S    
C76   C160  T    
O91   Zn31  S    
O107  Zn2   S    
C118  H111  S    
O120  Zn4   S    
O105  Zn4   S    
O109  Zn12  S    
C45   O14   S    
C69   O42   S    
C52   C55   S    
C122  H16   S    
O135  Zn19  S    
C141  Cl20  S    
C87   O8    S    
C177  C192  S    
O103  Zn3   S    
O63   Zn17  S    
C91   H32   S    
O1    Zn9   S    
C136  C139  S    
C139  Cl40  S    
O104  Zn22  S    
O71   Zn29  S    
C39   C42   S    
C7    O87   A    
C110  O31   S    
C74   C158  T    
C57   C77   S    
C38   C113  S    
O44   Zn1   S    
C117  O37   S    
C118  H3    S    
C58   C59   S    
O76   Zn13  S    
C176  O44   A    
C206  O79   A    
C56   C60   S    
O1    Zn16  S    
C68   O54   A    
O78   Zn15  S    
C66   Cl6   S    
C61   C64   S    
C16   O102  A    
C196  O116  A    
C62   C63   S    
C64   O38   S    
C10   C19   S    
C142  Cl37  S    
C71   C155  T    
C6    O84   A    
C149  Cl30  S    
O130  Zn14  S    
C117  H109  S    
C87   H23   S    
C94   O15   S    
O60   Zn11  S    
O93   Zn8   S    
C12   C21   S    
O110  Zn23  S    
C116  H107  S    
O73   Zn9   S    
C50   C134  S    
C52   Cl1   S    
C108  H87   S    
C59   C125  S    
O53   Zn32  S    
C82   C132  S    
C201  O67   A    
O5    Zn24  S    
C147  Cl15  S    
C44   C45   S    
C82   C166  T    
C107  O28   S    
C93   O14   S    
O82   Zn25  S    
C117  H108  S    
C105  O26   S    
C182  C202  S    
C95   O16   S    
C201  O120  A    
O133  Zn17  S    
C140  C144  S    
C90   C151  S    
C180  C204  S    
C104  H74   S    
C121  H10   S    
C36   H25   S    
O136  Zn20  S    
C207  O74   A    
C208  O77   A    
C13   O48   A    
C130  C158  S    
C23   C32   T    
O123  Zn7   S    
C115  H101  S    
C107  H82   S    
C98   O19   S    
C65   C69   S    
C56   Cl44  S    
C12   O106  A    
C98   H57   S    
C127  C144  S    
C63   C129  S    
C3    C32   S    
O61   Zn15  S    
C122  H14   S    
C195  O62   A    
C5    C26   S    
C6    C29   S    
O111  Zn27  S    
C93   H40   S    
C15   O103  A    
C53   C90   S    
C1    C80   S    
C78   C112  S    
C1    O125  A    
C2    C70   S    
C100  H62   S    
C46   O5    A    
C124  C164  S    
C7    O85   A    
C62   C128  S    
C171  C172  T    
C91   H34   S    
C97   H53   S    
C148  Cl31  S    
C67   Cl7   S    
C9    O98   A    
O119  Zn3   S    
C50   H20   S    
C152  Cl27  S    
C173  C174  T    
C100  O21   S    
C45   H13   S    
C35   C75   S    
O54   Zn2   S    
C55   O29   S    
C17   C26   T    
O52   Zn4   S    
C193  O59   A    
O65   Zn19  S    
C175  C191  S    
O45   Zn12  S    
C146  Cl33  S    
C58   Cl45  S    
C148  Cl14  S    
O35   Zn23  S    
O93   Zn2   S    
C96   H50   S    
C110  H93   S    
C51   C135  S    
C95   H46   S    
C48   C51   S    
C192  O111  A    
O49   Zn17  S    
C120  H8    S    
C103  H70   S    
C142  Cl19  S    
O77   Zn14  S    
C95   H48   S    
C136  Cl43  S    
C197  O117  A    
C94   H43   S    
O122  Zn6   S    
C137  Cl42  S    
O89   Zn26  S    
C15   C23   S    
C132  O128  A    
C43   H102  S    
C127  C161  S    
O129  Zn13  S    
O108  Zn1   S    
C59   Cl46  S    
C144  Cl18  S    
C115  H104  S    
C125  C163  S    
C149  Cl13  S    
C132  O13   A    
C48   O11   S    
C121  H12   S    
O60   Zn28  S    
O115  Zn6   S    
C20   C29   T    
O112  Zn28  S    
C22   C31   T    
C47   C130  S    
C102  H65   S    
C113  C149  S    
C13   O136  A    
C31   C206  S    
C149  C152  S    
C55   C113  S    
C188  C199  S    
C114  H99   S    
O93   Zn26  S    
C60   Cl47  S    
C57   O6    A    
O82   Zn7   S    
O59   Zn14  S    
C181  C205  S    
C44   O15   S    
C66   C133  S    
C104  H72   S    
C15   O101  A    
C112  O2    A    
C141  Cl38  S    
C151  Cl10  S    
C186  C197  S    
C68   C76   S    
O124  Zn8   S    
C115  O34   S    
C100  H64   S    
O2    Zn31  S    
O70   Zn25  S    
C99   O20   S    
C194  O113  A    
C40   C41   S    
C78   C162  T    
C61   Cl48  S    
C92   O12   S    
C98   H56   S    
C89   O10   S    
C137  Cl25  S    
C88   H27   S    
C54   Cl23  S    
C129  C159  S    
C128  C160  S    
C116  H106  S    
C118  O38   S    
C44   C128  S    
C105  H76   S    
C120  H9    S    
C34   C38   S    
C208  O75   A    
C193  O112  A    
C108  H86   S    
C18   C27   T    
O99   Zn7   S    
O126  Zn30  S    
C52   O26   S    
C47   H17   S    
C174  C194  S    
C14   O100  A    
C137  C138  S    
C165  O43   A    
C58   C124  S    
C135  C153  S    
C183  C203  S    
C60   C126  S    
O118  Zn2   S    
C91   O11   S    
C141  C142  S    
C173  C193  S    
C119  H5    S    
C179  C190  S    
C128  C142  S    
O104  Zn3   S    
C151  Cl28  S    
C92   H35   S    
C77   C161  T    
C154  O35   A    
C139  Cl22  S    
C86   C176  S    
C191  O57   A    
C107  H83   S    
C109  H90   S    
O115  Zn24  S    
C81   C143  S    
O92   Zn28  S    
C203  O122  A    
C3    O78   A    
C118  H112  S    
O57   Zn11  S    
O115  Zn4   S    
C111  H95   S    
C126  C162  S    
C39   H58   S    
C186  C188  T    
C178  C179  T    
O13   Zn28  S    
