data_mof_unit_45361.cif
_audit_creation_date              2012-10-26T18:27:32-0400
_audit_creation_method            fapswitch 2.2
_symmetry_space_group_name_H-M    P1
_symmetry_Int_Tables_number       1
_space_group_crystal_system       triclinic
_cell_length_a                    10.779879
_cell_length_b                    11.057614
_cell_length_c                    9.926753
_cell_angle_alpha                 112.095738
_cell_angle_beta                  97.440775
_cell_angle_gamma                 92.820954
_cell_volume                      1080.9380767

loop_
_atom_site_label
_atom_site_type_symbol
_atom_type_description
_atom_site_fract_x
_atom_site_fract_y
_atom_site_fract_z
_atom_type_partial_charge
C1    C     C_R   0.490265 0.253230 0.438938 0.578201
C2    C     C_2   0.483180 0.927720 0.484497 -0.162430
C3    C     C_2   0.522820 0.496616 0.077098 0.191047
C4    C     C_R   0.263047 0.499429 0.501470 0.533076
C5    C     C_2   0.492393 0.486452 0.920057 0.065462
C6    C     C_R   0.504250 0.745963 0.560535 0.557541
C7    C     C_R   0.737647 0.507687 0.500351 0.636009
C8    C     C_R   0.169907 0.740995 0.670886 -0.076277
C9    C     C_R   0.127847 0.861043 0.745231 0.102354
C10   C     C_R   0.998090 0.873230 0.734154 0.036767
C11   C     C_R   0.911378 0.760500 0.649760 0.090512
C12   C     C_R   0.085752 0.627904 0.587622 -0.045291
C13   C     C_R   0.954516 0.634974 0.580347 0.006606
C14   C     C_3   0.468615 0.017992 0.240903 -0.399496
C15   C     C_3   0.649065 0.663547 0.950760 -0.185673
C16   C     C_3   0.955255 0.007414 0.810675 -0.407618
C17   C     C_R   0.130670 0.508408 0.506817 -0.011877
C18   C     C_R   0.048815 0.397147 0.420568 -0.143735
C19   C     C_R   0.920316 0.399579 0.417475 0.053434
C20   C     C_R   0.872444 0.516414 0.498555 0.053030
C21   C     C_2   0.482747 0.111019 0.401235 -0.015100
C22   C     C_2   0.489217 0.067174 0.511416 -0.139202
C23   C     C_2   0.504647 0.886452 0.594927 -0.141195
Cu1   Cu    Cu3+1 0.521920 0.521810 0.644910 0.931099
Cu2   Cu    Cu3+1 0.478080 0.478190 0.355090 0.936573
H1    H     H_    0.085252 0.306826 0.357239 0.111651
H2    H     H_    0.378688 0.953331 0.209074 0.127505
H3    H     H_    0.703339 0.483037 0.157436 0.261903
H4    H     H_    0.641959 0.629612 0.256609 0.277874
H5    H     H_    0.670690 0.721513 0.885719 0.145277
H6    H     H_    0.613788 0.731048 0.049414 0.105429
H7    H     H_    0.738632 0.626996 0.979721 0.138320
H8    H     H_    0.209722 0.043459 0.786441 0.229375
H9    H     H_    0.205237 0.007931 0.938414 0.230580
H10   H     H_    0.994765 0.077750 0.767736 0.130481
H11   H     H_    0.852089 0.009669 0.795416 0.120946
H12   H     H_    0.416611 0.413479 0.848363 0.097436
H13   H     H_    0.988491 0.043182 0.931040 0.122904
H14   H     H_    0.767927 0.840896 0.574273 0.222341
H15   H     H_    0.751055 0.812844 0.729246 0.229826
H16   H     H_    0.851671 0.250445 0.223748 0.224666
H17   H     H_    0.863224 0.209427 0.372408 0.224379
H18   H     H_    0.358842 0.402831 0.074461 0.181420
H19   H     H_    0.270504 0.738626 0.678672 0.166858
H20   H     H_    0.462945 0.856769 0.371694 0.166834
H21   H     H_    0.500604 0.135853 0.625536 0.144117
H22   H     H_    0.524743 0.955591 0.708923 0.106922
H23   H     H_    0.467814 0.070355 0.165007 0.163768
H24   H     H_    0.548661 0.957273 0.223977 0.120330
N1    N     N_2   0.445130 0.445430 0.137370 -0.340814
N2    N     N_2   0.554930 0.554500 0.862630 -0.236908
N3    N     N_3   0.645588 0.555436 0.154779 -0.632493
N4    N     N_3   0.220198 0.970585 0.828912 -0.653294
N5    N     N_3   0.780620 0.775176 0.626692 -0.626741
N6    N     N_3   0.837675 0.281867 0.333507 -0.622396
O1    O     O_R   0.511700 0.332330 0.577400 -0.508994
O2    O     O_R   0.474680 0.295500 0.332650 -0.484780
O3    O     O_R   0.338160 0.518420 0.622400 -0.511432
O4    O     O_R   0.301140 0.481590 0.377650 -0.495961
O5    O     O_R   0.525320 0.704500 0.667350 -0.508799
O6    O     O_R   0.488300 0.667670 0.422600 -0.500817
O7    O     O_R   0.698860 0.518410 0.622350 -0.485201
O8    O     O_R   0.661840 0.481580 0.377600 -0.486330

loop_
_geom_bond_atom_site_label_1
_geom_bond_atom_site_label_2
_ccdc_geom_bond_type
C12   C17   A    
C2    C22   S    
C14   H23   S    
C3    N3    S    
C7    O7    A    
C15   H6    S    
C5    H12   S    
H17   N6    S    
Cu1   O1    S    
C11   C13   A    
C9    C10   A    
H15   N5    S    
C19   C20   A    
C18   H1    S    
C8    C12   A    
Cu1   O5    S    
Cu1   N2    S    
C17   C18   A    
Cu1   Cu2   S    
C15   H7    S    
C2    H20   S    
C10   C16   S    
C21   C22   D    
C16   H11   S    
C1    C21   S    
H3    N3    S    
C7    O8    A    
C11   N5    S    
Cu2   O2    S    
C15   H5    S    
C6    C23   S    
Cu2   O6    S    
C6    O6    A    
C22   H21   S    
C3    N1    D    
C18   C19   A    
C1    O2    A    
C16   H10   S    
H8    N4    S    
C14   H2    S    
C15   N2    S    
H14   N5    S    
C9    N4    S    
C10   C11   A    
C4    C17   S    
C14   C21   S    
C14   H24   S    
H18   N1    S    
C6    O5    A    
C23   H22   S    
C12   C13   A    
C4    O4    A    
H9    N4    S    
Cu1   O3    S    
C7    C20   S    
Cu2   O8    S    
C19   N6    S    
C2    C23   D    
Cu2   N1    S    
H16   N6    S    
Cu1   O7    S    
Cu2   O4    S    
C13   C20   A    
C4    O3    A    
C1    O1    A    
C5    N2    D    
C8    H19   S    
C16   H13   S    
C8    C9    A    
C3    C5    S    
H4    N3    S    
