data_mof_unit_62464.cif
_audit_creation_date              2012-12-10T18:50:15-0500
_audit_creation_method            fapswitch 2.2
_symmetry_space_group_name_H-M    P1
_symmetry_Int_Tables_number       1
_space_group_crystal_system       triclinic
_cell_length_a                    15.84155
_cell_length_b                    19.368094
_cell_length_c                    18.282337
_cell_angle_alpha                 89.91806
_cell_angle_beta                  89.98143
_cell_angle_gamma                 92.90599
_cell_volume                      5602.17864093

loop_
_atom_site_label
_atom_site_type_symbol
_atom_type_description
_atom_site_fract_x
_atom_site_fract_y
_atom_site_fract_z
_atom_type_partial_charge
C1    C     C_R   0.502368 0.367686 0.500142 0.859959
C2    C     C_R   0.498985 0.632190 0.499733 0.904010
C3    C     C_R   0.432519 0.813642 0.462740 0.052273
C4    C     C_R   0.545214 0.185643 0.561321 0.057676
C5    C     C_R   0.496124 0.852046 0.501187 -0.126075
C6    C     C_R   0.512142 0.147687 0.501300 -0.127572
C7    C     C_R   0.559105 0.818255 0.539384 0.459154
C8    C     C_R   0.482937 0.181749 0.439146 0.453429
C9    C     C_R   0.559585 0.746176 0.537165 -0.331249
C10   C     C_R   0.479422 0.253818 0.440452 -0.339350
C11   C     C_R   0.497364 0.707604 0.498852 -0.197572
C12   C     C_R   0.510156 0.292281 0.500366 -0.233142
C13   C     C_R   0.561222 0.964261 0.459541 -0.100366
C14   C     C_R   0.446251 0.035631 0.543321 -0.110402
C15   C     C_R   0.565770 0.036243 0.460075 -0.148354
C16   C     C_R   0.441589 0.963615 0.542659 -0.176959
C17   C     C_R   0.508577 0.072016 0.502252 0.199058
C18   C     C_R   0.498995 0.927794 0.500644 0.182781
C19   C     C_R   0.445026 0.455969 0.722417 0.351572
C20   C     C_R   0.556082 0.542950 0.277472 0.320712
C21   C     C_R   0.444310 0.455520 0.799422 -0.283301
C22   C     C_R   0.557288 0.542676 0.200494 -0.304025
C23   C     C_R   0.339752 0.499828 0.499993 0.868565
C24   C     C_R   0.660206 0.499915 0.500023 0.827666
C25   C     C_R   0.499536 0.499617 0.839440 0.041364
C26   C     C_R   0.501069 0.499255 0.160691 0.043914
C27   C     C_R   0.555250 0.543606 0.799711 -0.284932
C28   C     C_R   0.444279 0.456327 0.200507 -0.288971
C29   C     C_R   0.555236 0.543339 0.722772 0.327275
C30   C     C_R   0.444013 0.457119 0.277414 0.322089
C31   C     C_R   0.514293 0.561235 0.961638 -0.167838
C32   C     C_R   0.485929 0.437577 0.038639 -0.170643
C33   C     C_R   0.514900 0.561139 0.038524 -0.170358
C34   C     C_R   0.485367 0.437665 0.961739 -0.164570
C35   C     C_R   0.500799 0.499308 0.078354 0.138927
C36   C     C_R   0.499594 0.499495 0.921860 0.137497
C37   C     C_3   0.968226 0.442617 0.462986 -0.160630
C38   C     C_3   0.031237 0.552822 0.537836 -0.148427
C39   C     C_3   0.028040 0.500864 0.431150 -0.145584
C40   C     C_3   0.971442 0.494578 0.569670 -0.154001
C41   C     C_1   0.249909 0.499046 0.500041 -0.120703
C42   C     C_1   0.749889 0.499078 0.500116 -0.136844
C43   C     C_3   0.024182 0.439439 0.532248 -0.145925
C44   C     C_3   0.975370 0.555992 0.468582 -0.139368
C45   C     C_3   0.082426 0.497712 0.500398 0.171395
C46   C     C_3   0.917109 0.497772 0.500407 0.173525
C47   C     C_1   0.174222 0.498303 0.500200 -0.040945
C48   C     C_1   0.825447 0.498359 0.500269 -0.051313
C49   C     C_R   0.435270 0.741194 0.458961 0.386352
C50   C     C_R   0.548509 0.258162 0.559377 0.443236
Cu1   Cu    Cu3+1 0.499980 0.500000 0.573360 1.008039
Cu2   Cu    Cu3+1 0.500020 0.500000 0.426640 0.987999
H1    H     H_    0.052682 0.503442 0.374310 0.147122
H2    H     H_    0.946711 0.491929 0.626478 0.145565
H3    H     H_    0.399511 0.420971 0.827833 0.160712
H4    H     H_    0.602741 0.576505 0.171906 0.165937
H5    H     H_    0.600346 0.577614 0.828356 0.162705
H6    H     H_    0.398579 0.422807 0.171927 0.163091
H7    H     H_    0.524011 0.610119 0.933333 0.136766
H8    H     H_    0.476082 0.388734 0.067030 0.137561
H9    H     H_    0.524977 0.609921 0.066823 0.135931
H10   H     H_    0.475252 0.388860 0.933510 0.143739
H11   H     H_    0.940880 0.397378 0.432345 0.139904
H12   H     H_    0.058477 0.598053 0.568554 0.148848
H13   H     H_    0.953928 0.603818 0.442455 0.152731
H14   H     H_    0.045504 0.391582 0.558393 0.150295
H15   H     H_    0.610257 0.720395 0.563598 0.196501
H16   H     H_    0.451299 0.279631 0.394899 0.207881
H17   H     H_    0.605969 0.936882 0.427132 0.146134
H18   H     H_    0.401450 0.063068 0.575606 0.156976
H19   H     H_    0.613710 0.064138 0.427820 0.127965
H20   H     H_    0.393600 0.935752 0.574869 0.151652
N1    N     N_R   0.499990 0.500020 0.683620 -0.207630
N2    N     N_R   0.500010 0.499980 0.316380 -0.204695
O1    O     O_R   0.499960 0.400180 0.561980 -0.535551
O2    O     O_R   0.500040 0.599820 0.438020 -0.567726
O3    O     O_R   0.500000 0.400190 0.438070 -0.573947
O4    O     O_R   0.500000 0.599810 0.561930 -0.565438
O5    O     O_R   0.379060 0.499990 0.561940 -0.564819
O6    O     O_R   0.620940 0.500010 0.438060 -0.556062
O7    O     O_R   0.379100 0.500000 0.438040 -0.569613
O8    O     O_R   0.620900 0.500000 0.561960 -0.575205
I1    I     I_    0.356703 0.383468 0.674229 -0.306808
I2    I     I_    0.644804 0.615234 0.325442 -0.383395
I3    I     I_    0.647181 0.613107 0.675589 -0.413719
I4    I     I_    0.350199 0.389029 0.324800 -0.415921
O9    O     O_3   0.373608 0.702520 0.421313 -0.595199
C51   C     C_3   0.396334 0.699819 0.346520 0.090209
H21   H     H_    0.463709 0.687350 0.338993 0.160334
H22   H     H_    0.386579 0.750228 0.319585 0.173041
C52   C     C_3   0.340656 0.643905 0.308658 -0.307571
H23   H     H_    0.353695 0.592663 0.332203 0.248549
H24   H     H_    0.272991 0.653605 0.318288 0.234930
C53   C     C_3   0.357144 0.642640 0.226437 -0.909153
H25   H     H_    0.338540 0.691682 0.200935 0.262363
H26   H     H_    0.319479 0.598973 0.201275 0.267283
H27   H     H_    0.425057 0.635826 0.215318 0.261553
O10   O     O_3   0.584782 0.294503 0.617717 -0.562267
C54   C     C_3   0.661671 0.329496 0.595973 0.102728
H28   H     H_    0.668345 0.378169 0.627996 0.189393
H29   H     H_    0.663653 0.344794 0.537140 0.082308
C55   C     C_3   0.737212 0.285999 0.613075 -0.344083
H30   H     H_    0.736525 0.271984 0.672053 0.254007
H31   H     H_    0.732647 0.237734 0.580238 0.228364
C56   C     C_3   0.820550 0.325462 0.595026 -0.912504
H32   H     H_    0.823353 0.338576 0.535873 0.254042
H33   H     H_    0.874191 0.292899 0.608271 0.266039
H34   H     H_    0.827211 0.373828 0.627569 0.259559
I5    I     I_    0.331374 0.864007 0.411250 -0.346191
I6    I     I_    0.591862 0.134548 0.655357 -0.371962
O11   O     O_3   0.624393 0.856679 0.572962 -0.598252
C57   C     C_3   0.621420 0.847474 0.649807 0.071535
H35   H     H_    0.685787 0.860737 0.671296 0.184072
H36   H     H_    0.605675 0.793071 0.666811 0.148028
C58   C     C_3   0.559587 0.896129 0.684704 -0.361394
H37   H     H_    0.574746 0.949967 0.665962 0.259889
H38   H     H_    0.494111 0.880702 0.667475 0.208748
C59   C     C_3   0.564107 0.893650 0.768002 -0.863925
H39   H     H_    0.548219 0.840362 0.787957 0.254219
H40   H     H_    0.518144 0.928945 0.791487 0.266234
H41   H     H_    0.628494 0.910449 0.787007 0.261449
O12   O     O_3   0.449299 0.142938 0.381251 -0.585592
C60   C     C_3   0.485835 0.164136 0.313514 0.045939
H42   H     H_    0.513736 0.118410 0.288202 0.163238
H43   H     H_    0.538512 0.204489 0.318062 0.127337
C61   C     C_3   0.416870 0.189005 0.262667 -0.304945
H44   H     H_    0.371769 0.144912 0.249613 0.233196
H45   H     H_    0.381200 0.229252 0.290491 0.242008
C62   C     C_3   0.454103 0.218957 0.191731 -0.906111
H46   H     H_    0.496941 0.264798 0.203501 0.260663
H47   H     H_    0.402311 0.235363 0.155751 0.263217
H48   H     H_    0.489813 0.179492 0.162543 0.258143

loop_
_geom_bond_atom_site_label_1
_geom_bond_atom_site_label_2
_ccdc_geom_bond_type
O9    C51   S    
C61   H44   S    
C27   C29   A    
C1    O3    A    
C49   O9    S    
O11   C57   S    
C16   H20   S    
C33   H9    S    
C28   H6    S    
C59   H40   S    
C57   H36   S    
C3    C49   A    
C60   H42   S    
C40   C46   S    
C56   H33   S    
C13   C18   A    
C11   C49   A    
C19   C21   A    
Cu1   O1    S    
Cu2   N2    S    
C30   N2    A    
C60   H43   S    
C29   N1    A    
C58   H37   S    
C34   H10   S    
C24   C42   S    
C55   C56   S    
C15   C17   A    
C31   H7    S    
C24   O8    A    
C59   H39   S    
C38   C45   S    
C4    I6    S    
C24   O6    A    
C40   C43   S    
C58   H38   S    
C31   C33   A    
C30   I4    S    
C29   I3    S    
C39   C45   S    
C62   H48   S    
C14   H18   S    
C14   C17   A    
C44   H13   S    
C55   H30   S    
C1    C12   S    
C19   I1    S    
C2    C11   S    
C57   H35   S    
C37   H11   S    
C44   C46   S    
C38   H12   S    
C45   C47   S    
C56   H34   S    
C46   C48   S    
C50   O10   S    
Cu1   Cu2   S    
C1    O1    A    
C32   C35   A    
C19   N1    A    
C4    C6    A    
C27   H5    S    
C52   H23   S    
C5    C7    A    
C60   C61   S    
C6    C8    A    
C5    C18   S    
C53   H27   S    
C3    C5    A    
C4    C50   A    
C59   H41   S    
C32   C34   A    
C37   C43   S    
C55   H31   S    
C9    H15   S    
C38   C44   S    
C2    O4    A    
C52   H24   S    
C43   C45   S    
C54   H28   S    
C51   C52   S    
C58   C59   S    
C41   C47   T    
C20   N2    A    
C53   H25   S    
C42   C48   T    
C53   H26   S    
C9    C11   A    
Cu1   O8    S    
C10   C12   A    
C8    C10   A    
C54   H29   S    
C20   C22   A    
C40   H2    S    
C20   I2    S    
C14   C16   A    
C32   H8    S    
Cu2   O3    S    
C2    O2    A    
C21   H3    S    
C62   H46   S    
C7    C9    A    
C6    C17   S    
C21   C25   A    
C61   H45   S    
C23   O7    A    
C61   C62   S    
Cu1   N1    S    
C51   H22   S    
Cu2   O2    S    
C12   C50   A    
C39   C44   S    
C10   H16   S    
C25   C27   A    
C15   H19   S    
C56   H32   S    
C26   C28   A    
C23   C41   S    
C22   H4    S    
C13   C15   A    
O12   C60   S    
Cu1   O4    S    
C37   C39   S    
C52   C53   S    
C38   C40   S    
C8    O12   S    
C39   H1    S    
C13   H17   S    
C3    I5    S    
C43   H14   S    
C28   C30   A    
C33   C35   A    
C7    O11   S    
C34   C36   A    
Cu2   O7    S    
Cu1   O5    S    
C25   C36   S    
C26   C35   S    
C54   C55   S    
C51   H21   S    
C16   C18   A    
O10   C54   S    
C22   C26   A    
C31   C36   A    
C23   O5    A    
C37   C46   S    
Cu2   O6    S    
C57   C58   S    
C62   H47   S    
