data_mof_unit_45983.cif
_audit_creation_date              2012-12-11T15:43:55-0500
_audit_creation_method            fapswitch 2.2
_symmetry_space_group_name_H-M    P1
_symmetry_Int_Tables_number       1
_space_group_crystal_system       triclinic
_cell_length_a                    14.474508
_cell_length_b                    16.42823
_cell_length_c                    6.903869
_cell_angle_alpha                 89.749888
_cell_angle_beta                  98.338779
_cell_angle_gamma                 90.095366
_cell_volume                      1624.30240707

loop_
_atom_site_label
_atom_site_type_symbol
_atom_type_description
_atom_site_fract_x
_atom_site_fract_y
_atom_site_fract_z
_atom_type_partial_charge
O1    O     O_R   0.831700 0.662810 0.581550 -0.533509
O2    O     O_R   0.168300 0.337190 0.418450 -0.538474
O3    O     O_R   0.168300 0.162810 0.418450 -0.539072
O4    O     O_R   0.831700 0.837190 0.581550 -0.544158
O5    O     O_R   0.842890 0.834390 0.255500 -0.516342
O6    O     O_R   0.157110 0.165610 0.744500 -0.518971
O7    O     O_R   0.157110 0.334390 0.744500 -0.519622
O8    O     O_R   0.842890 0.665610 0.255500 -0.534181
O9    O     O_R   0.661690 0.835580 0.024130 -0.510551
O10   O     O_R   0.338310 0.164420 0.975870 -0.516359
O11   O     O_R   0.338310 0.335580 0.975870 -0.517752
O12   O     O_R   0.661690 0.664420 0.024130 -0.527658
C1    C     C_R   0.865697 0.864645 0.429167 0.743324
C2    C     C_R   0.134878 0.135153 0.570390 0.688127
C3    C     C_R   0.134252 0.364461 0.569906 0.682803
C4    C     C_R   0.864712 0.634836 0.430661 0.704819
C5    C     C_R   0.067736 0.064306 0.540896 -0.191301
C6    C     C_R   0.932897 0.935807 0.455799 -0.175708
C7    C     C_R   0.933376 0.565093 0.464166 -0.148509
C8    C     C_R   0.066812 0.435197 0.541396 -0.166770
C9    C     C_R   0.011581 0.941408 0.353679 -0.056633
C10   C     C_R   0.987807 0.060255 0.637644 -0.043251
C11   C     C_R   0.988179 0.439624 0.642951 -0.042194
C12   C     C_R   0.013961 0.562812 0.369716 -0.122364
O13   O     O_3   0.687240 0.750000 0.366320 -0.367388
O14   O     O_3   0.312760 0.250000 0.633680 -0.363170
V1    V     V_3+5 0.757720 0.750000 0.115230 1.613178
V2    V     V_3+5 0.242280 0.250000 0.884770 1.600768
O15   O     O_R   0.650500 0.664000 0.690740 -0.545496
O16   O     O_R   0.349500 0.336000 0.309260 -0.548452
O17   O     O_R   0.349500 0.164000 0.309260 -0.549734
O18   O     O_R   0.650500 0.836000 0.690740 -0.554906
C13   C     C_R   0.630502 0.634736 0.855124 0.794702
C14   C     C_R   0.372783 0.362868 0.145157 0.806366
C15   C     C_R   0.371730 0.136621 0.145795 0.813402
C16   C     C_R   0.627735 0.862991 0.854200 0.791101
C17   C     C_R   0.079863 0.003367 0.401534 -0.128567
C18   C     C_R   0.920297 0.997584 0.592979 -0.050775
C19   C     C_R   0.921202 0.502684 0.600806 -0.146668
C20   C     C_R   0.080226 0.498722 0.407694 -0.124081
V3    V     V_3+5 0.735670 0.750000 0.607790 1.553163
V4    V     V_3+5 0.264330 0.250000 0.392210 1.534022
O19   O     O_3   0.806150 0.750000 0.906560 -0.362087
O20   O     O_3   0.193850 0.250000 0.093440 -0.363978
C21   C     C_2   0.560884 0.931114 0.847158 -0.299415
C22   C     C_2   0.437268 0.067590 0.152983 -0.259228
C23   C     C_2   0.442515 0.429298 0.149754 -0.268980
C24   C     C_2   0.563796 0.566047 0.850267 -0.274949
C25   C     C_2   0.530236 0.962697 0.008387 0.195106
C26   C     C_2   0.469735 0.037142 0.992583 0.165607
C27   C     C_2   0.484880 0.450893 0.993096 0.162718
C28   C     C_2   0.555735 0.518090 0.008603 0.194782
H1    H     H_    0.456498 0.039822 0.295852 0.098714
H2    H     H_    0.538920 0.957255 0.703464 0.081960
H3    H     H_    0.519987 0.555091 0.711603 0.108586
H4    H     H_    0.457845 0.462492 0.286296 0.119814
C29   C     C_2   0.025189 0.883075 0.196333 0.868070
O21   O     O_2   0.096865 0.842958 0.209630 -0.509495
O22   O     O_R   0.960875 0.880054 0.024896 -0.625652
H5    H     H_    0.979945 0.840440 0.925697 0.307205
C30   C     C_2   0.969066 0.125374 0.774122 0.830402
O23   O     O_2   0.904143 0.172085 0.726575 -0.524608
O24   O     O_R   0.021361 0.129862 0.960491 -0.621009
H6    H     H_    0.000020 0.175492 0.041833 0.294760
C31   C     C_2   0.973165 0.378445 0.793633 0.787761
O25   O     O_2   0.904942 0.333922 0.766413 -0.523223
O26   O     O_R   0.032267 0.376621 0.972571 -0.630887
H7    H     H_    0.012561 0.334501 0.066268 0.289886
C32   C     C_2   0.036409 0.634332 0.254283 0.860932
O27   O     O_2   0.058672 0.697642 0.339821 -0.517196
O28   O     O_R   0.032053 0.631114 0.050972 -0.613582
H8    H     H_    0.011149 0.576004 0.995763 0.306433
C33   C     C_2   0.166677 0.002983 0.308075 0.873646
O29   O     O_2   0.161459 0.008434 0.130371 -0.514111
O30   O     O_R   0.254588 0.996678 0.421412 -0.657547
H9    H     H_    0.250811 0.989565 0.565920 0.253302
C34   C     C_2   0.831450 0.001370 0.677436 0.823052
O31   O     O_2   0.832630 0.006979 0.854365 -0.531960
O32   O     O_R   0.746478 0.000383 0.552311 -0.667146
H10   H     H_    0.691107 0.007622 0.624906 0.274224
C35   C     C_2   0.836175 0.501593 0.698826 0.822426
O33   O     O_2   0.840400 0.525768 0.866804 -0.552491
O34   O     O_R   0.751728 0.471581 0.602246 -0.647366
H11   H     H_    0.758367 0.448690 0.468983 0.259665
C36   C     C_2   0.169307 0.503102 0.323039 0.834552
O35   O     O_2   0.167617 0.504186 0.145822 -0.518811
O36   O     O_R   0.255606 0.505398 0.443858 -0.653622
H12   H     H_    0.249443 0.507315 0.588109 0.258493
N1    N     N_3   0.447721 0.077690 0.806362 -0.626625
H13   H     H_    0.509923 0.094750 0.756962 0.225051
H14   H     H_    0.411062 0.037470 0.706396 0.237293
N2    N     N_3   0.555577 0.924233 0.196275 -0.617779
H15   H     H_    0.494794 0.905792 0.249504 0.230476
H16   H     H_    0.591455 0.966300 0.292473 0.242590
N3    N     N_3   0.619472 0.528364 0.188097 -0.623518
H17   H     H_    0.608273 0.483997 0.290598 0.226771
H18   H     H_    0.686777 0.516841 0.156627 0.237846
N4    N     N_3   0.465464 0.406635 0.812301 -0.626860
H19   H     H_    0.528846 0.390100 0.767800 0.240045
H20   H     H_    0.429160 0.444448 0.705460 0.236800

loop_
_geom_bond_atom_site_label_1
_geom_bond_atom_site_label_2
_ccdc_geom_bond_type
C24   H3    S    
O36   H12   S    
O3    V4    S    
O17   V4    S    
C6    C9    A    
C33   O30   S    
C33   O29   D    
N3    H17   S    
C35   O33   D    
C34   O31   D    
O9    V1    S    
C1    C6    S    
O18   C16   A    
C8    C20   A    
C29   O22   S    
O4    V3    S    
C10   C18   A    
O15   C13   A    
C28   N3    S    
C30   O24   S    
O4    C1    A    
C32   O28   S    
O5    V1    S    
O6    V2    S    
C31   O26   S    
O9    C16   A    
O18   V3    S    
O10   C15   A    
N1    H14   S    
O5    C1    A    
C27   N4    S    
O7    C3    A    
O22   H5    S    
O8    C4    A    
V3    O19   S    
C2    C5    S    
C30   O23   D    
V4    O20   S    
C35   O34   S    
C12   C32   S    
C34   O32   S    
C3    C8    S    
O16   C14   A    
C36   O36   S    
O26   H7    S    
C19   C35   S    
O13   V3    S    
C23   C27   D    
O12   V1    S    
C36   O35   D    
V2    O20   S    
O7    V2    S    
C27   C28   S    
C20   C36   S    
O30   H9    S    
C9    C29   S    
O6    C2    A    
C26   N1    S    
O34   H11   S    
C8    C11   A    
C21   C25   D    
N2    H16   S    
C16   C21   S    
O1    C4    A    
C5    C17   A    
O2    C3    A    
O3    C2    A    
C7    C19   A    
O1    V3    S    
C21   H2    S    
N4    H19   S    
N4    H20   S    
O17   C15   A    
C25   N2    S    
N1    H13   S    
O14   V4    S    
O10   V2    S    
C13   C24   S    
C17   C33   S    
O15   V3    S    
O11   C14   A    
O24   H6    S    
N3    H18   S    
C18   C34   S    
O13   V1    S    
C22   C26   D    
O14   V2    S    
C5    C10   A    
C11   C31   S    
C7    C12   A    
C6    C18   A    
O28   H8    S    
C10   C30   S    
C29   O21   D    
O11   V2    S    
O2    V4    S    
C4    C7    S    
C11   C19   A    
C22   H1    S    
N2    H15   S    
C12   C20   A    
C31   O25   D    
C32   O27   D    
O32   H10   S    
V1    O19   S    
C24   C28   D    
C9    C17   A    
C25   C26   S    
O8    V1    S    
O16   V4    S    
C14   C23   S    
O12   C13   A    
C15   C22   S    
C23   H4    S    
