data_mof_unit_43357.cif
_audit_creation_date              2012-10-26T20:22:06-0400
_audit_creation_method            fapswitch 2.2
_symmetry_space_group_name_H-M    P1
_symmetry_Int_Tables_number       1
_space_group_crystal_system       triclinic
_cell_length_a                    10.792945
_cell_length_b                    9.603495
_cell_length_c                    10.697352
_cell_angle_alpha                 90.456592
_cell_angle_beta                  92.177772
_cell_angle_gamma                 90.138437
_cell_volume                      1107.94034607

loop_
_atom_site_label
_atom_site_type_symbol
_atom_type_description
_atom_site_fract_x
_atom_site_fract_y
_atom_site_fract_z
_atom_type_partial_charge
C1    C     C_R   0.871432 0.499788 0.500411 0.035273
C2    C     C_3   0.500992 0.368323 0.038247 0.100120
C3    C     C_3   0.398931 0.433708 0.953787 0.082016
C4    C     C_3   0.600136 0.566602 0.045959 0.070938
C5    C     C_3   0.498863 0.502167 0.875140 0.052454
C6    C     C_3   0.500272 0.498052 0.124715 0.046608
C7    C     C_R   0.423126 0.075018 0.419935 0.225833
C8    C     C_R   0.576763 0.926162 0.581118 0.191863
C9    C     C_R   0.577232 0.075757 0.580693 0.175118
C10   C     C_R   0.425344 0.927212 0.416581 0.173376
C11   C     C_R   0.060197 0.434177 0.400166 0.087569
C12   C     C_R   0.128824 0.499646 0.498152 0.054288
C13   C     C_R   0.940208 0.565423 0.598561 0.066053
C14   C     C_R   0.930960 0.433576 0.401273 0.054547
C15   C     C_R   0.070120 0.565324 0.597267 0.057592
C16   C     C_R   0.262675 0.499799 0.497706 0.611307
C17   C     C_R   0.737408 0.500065 0.501335 0.582099
C18   C     C_R   0.500099 0.499369 0.260173 0.565466
C19   C     C_R   0.499524 0.500664 0.739774 0.595360
C20   C     C_3   0.398234 0.563345 0.039050 0.080194
C21   C     C_3   0.600842 0.436903 0.960785 0.079307
C22   C     C_3   0.498048 0.631908 0.961532 0.102044
Cu1   Cu    Cu3+1 0.500000 0.640660 0.500000 1.001643
Cu2   Cu    Cu3+1 0.500000 0.359340 0.500000 1.019848
H1    H     H_    0.356938 0.121889 0.246135 0.254547
H2    H     H_    0.317970 0.275955 0.852823 0.245796
H3    H     H_    0.757489 0.676789 0.019678 0.244041
H4    H     H_    0.680773 0.724869 0.146513 0.243075
H5    H     H_    0.231385 0.654451 0.002738 0.239326
H6    H     H_    0.241101 0.564841 0.136800 0.238680
H7    H     H_    0.768144 0.346832 0.996962 0.243935
H8    H     H_    0.757226 0.434480 0.861876 0.245013
H9    H     H_    0.493500 0.838699 0.001839 0.229522
H10   H     H_    0.412137 0.792208 0.871369 0.250696
H11   H     H_    0.505886 0.161620 0.997649 0.232606
H12   H     H_    0.249690 0.115605 0.356689 0.220690
H13   H     H_    0.586950 0.208022 0.128342 0.242455
H14   H     H_    0.093989 0.267112 0.291235 0.250111
H15   H     H_    0.091080 0.419842 0.215613 0.238152
H16   H     H_    0.906793 0.578366 0.783087 0.215669
H17   H     H_    0.905140 0.732108 0.708318 0.224858
H18   H     H_    0.798875 0.439738 0.260867 0.256439
H19   H     H_    0.813002 0.283470 0.333482 0.248851
H20   H     H_    0.123149 0.580481 0.781266 0.240092
H21   H     H_    0.121225 0.734033 0.703100 0.225842
H22   H     H_    0.750223 0.881301 0.642295 0.201026
H23   H     H_    0.644659 0.882428 0.755124 0.231032
H24   H     H_    0.750031 0.124889 0.648034 0.205183
H25   H     H_    0.638917 0.125800 0.756529 0.224823
H26   H     H_    0.294961 0.784755 0.350229 0.282301
H27   H     H_    0.410783 0.825764 0.248725 0.271350
H28   H     H_    0.240908 0.324477 0.979275 0.240193
N1    N     N_R   0.500000 0.852070 0.500000 -0.211373
N2    N     N_3   0.710412 0.365381 0.918240 -0.624177
N3    N     N_3   0.495887 0.776409 0.921430 -0.624796
N4    N     N_3   0.503265 0.223764 0.078145 -0.625950
N5    N     N_3   0.122160 0.371142 0.297942 -0.610491
N6    N     N_3   0.877605 0.628005 0.700661 -0.613815
N7    N     N_3   0.861988 0.368109 0.299301 -0.647683
N8    N     N_3   0.143726 0.628492 0.697219 -0.615367
N9    N     N_R   0.500000 0.147930 0.500000 -0.202800
N10   N     N_3   0.339258 0.149301 0.338399 -0.522873
N11   N     N_3   0.660162 0.852040 0.663147 -0.532102
N12   N     N_3   0.658526 0.152435 0.664829 -0.545432
N13   N     N_3   0.352935 0.861598 0.317777 -0.645727
N14   N     N_3   0.288509 0.362513 0.903382 -0.630775
N15   N     N_3   0.710413 0.638495 0.095812 -0.645052
N16   N     N_3   0.288513 0.634579 0.081582 -0.635977
O1    O     O_R   0.319640 0.618740 0.499990 -0.510677
O2    O     O_R   0.680360 0.381260 0.500010 -0.497399
O3    O     O_R   0.680360 0.618740 0.500010 -0.459092
O4    O     O_R   0.319640 0.381260 0.499990 -0.464207
O5    O     O_R   0.499970 0.618770 0.316850 -0.524961
O6    O     O_R   0.500030 0.381230 0.683150 -0.475503
O7    O     O_R   0.500030 0.618770 0.683150 -0.457062
O8    O     O_R   0.499970 0.381230 0.316850 -0.473932

loop_
_geom_bond_atom_site_label_1
_geom_bond_atom_site_label_2
_ccdc_geom_bond_type
H9    N3    S    
C7    C10   A    
H21   N8    S    
Cu2   N9    S    
C9    N12   S    
C15   N8    S    
Cu1   O1    S    
C16   O4    A    
Cu2   O2    S    
C14   N7    S    
C9    N9    A    
H17   N6    S    
H23   N11   S    
C21   N2    S    
C11   C14   A    
H24   N12   S    
H5    N16   S    
H27   N13   S    
C10   N1    A    
C7    N9    A    
H13   N4    S    
C5    C22   S    
C12   C16   S    
C8    C9    A    
Cu1   Cu2   S    
H19   N7    S    
C17   O2    A    
H25   N12   S    
C2    C6    S    
Cu1   O5    S    
H12   N10   S    
H8    N2    S    
Cu1   N1    S    
C6    C18   S    
H16   N6    S    
H2    N14   S    
Cu1   O3    S    
H4    N15   S    
C4    C6    S    
Cu2   O8    S    
C13   N6    S    
H18   N7    S    
C7    N10   S    
H14   N5    S    
C4    C22   S    
C12   C15   A    
C2    C21   S    
C3    C20   S    
C20   C22   S    
C17   O3    A    
C18   O5    A    
C13   C15   A    
C3    N14   S    
C1    C13   A    
H28   N14   S    
Cu2   O4    S    
C10   N13   S    
C18   O8    A    
H11   N4    S    
C20   N16   S    
C19   O6    A    
C16   O1    A    
Cu1   O7    S    
C3    C5    S    
C8    N1    A    
C4    N15   S    
C11   C12   A    
C22   N3    S    
C5    C19   S    
C6    C20   S    
C1    C17   S    
H22   N11   S    
C19   O7    A    
C2    C3    S    
C2    N4    S    
C4    C21   S    
Cu2   O6    S    
H20   N8    S    
H1    N10   S    
H7    N2    S    
H26   N13   S    
H3    N15   S    
C8    N11   S    
H10   N3    S    
C5    C21   S    
C1    C14   A    
C11   N5    S    
H6    N16   S    
H15   N5    S    
