data_mof_unit_65108.cif
_audit_creation_date              2012-12-10T20:24:58-0500
_audit_creation_method            fapswitch 2.2
_symmetry_space_group_name_H-M    P1
_symmetry_Int_Tables_number       1
_space_group_crystal_system       triclinic
_cell_length_a                    25.663647
_cell_length_b                    25.663751
_cell_length_c                    43.009261
_cell_angle_alpha                 90.000024
_cell_angle_beta                  89.99988
_cell_angle_gamma                 90.0
_cell_volume                      28326.9937237

loop_
_atom_site_label
_atom_site_type_symbol
_atom_type_description
_atom_site_fract_x
_atom_site_fract_y
_atom_site_fract_z
_atom_type_partial_charge
C1    C     C_1   0.171761 0.328238 0.250000 -0.076527
C2    C     C_1   0.828239 0.671761 0.750000 -0.076519
C3    C     C_1   0.671762 0.171761 0.250000 -0.076437
C4    C     C_1   0.328238 0.828239 0.750000 -0.076469
C5    C     C_1   0.828239 0.671761 0.250000 -0.076543
C6    C     C_1   0.171761 0.328239 0.750000 -0.076534
C7    C     C_1   0.328239 0.828238 0.250000 -0.076436
C8    C     C_1   0.671761 0.171762 0.750000 -0.076467
C9    C     C_1   0.171762 0.671761 0.750000 -0.076467
C10   C     C_1   0.828238 0.328239 0.250000 -0.076435
C11   C     C_1   0.671761 0.828238 0.750000 -0.076517
C12   C     C_1   0.328238 0.171761 0.250000 -0.076524
C13   C     C_1   0.828239 0.328238 0.750000 -0.076465
C14   C     C_1   0.171761 0.671762 0.250000 -0.076434
C15   C     C_1   0.328239 0.171761 0.750000 -0.076532
C16   C     C_1   0.671761 0.828239 0.250000 -0.076541
C17   C     C_R   0.211396 0.288604 0.250000 0.163333
C18   C     C_R   0.788604 0.711396 0.750000 0.163277
C19   C     C_R   0.711396 0.211396 0.250000 0.163216
C20   C     C_R   0.288604 0.788604 0.750000 0.163258
C21   C     C_R   0.788604 0.711396 0.250000 0.163238
C22   C     C_R   0.211396 0.288604 0.750000 0.163225
C23   C     C_R   0.288604 0.788604 0.250000 0.163233
C24   C     C_R   0.711396 0.211396 0.750000 0.163255
C25   C     C_R   0.211396 0.711396 0.750000 0.163257
C26   C     C_R   0.788604 0.288604 0.250000 0.163216
C27   C     C_R   0.711396 0.788604 0.750000 0.163277
C28   C     C_R   0.288604 0.211396 0.250000 0.163332
C29   C     C_R   0.788604 0.288604 0.750000 0.163254
C30   C     C_R   0.211396 0.711396 0.250000 0.163232
C31   C     C_R   0.288604 0.211396 0.750000 0.163225
C32   C     C_R   0.711396 0.788604 0.250000 0.163237
C33   C     C_R   0.500050 0.047132 0.114763 -0.183177
C34   C     C_R   0.499943 0.952868 0.885237 -0.183168
C35   C     C_R   0.952868 0.499993 0.114763 -0.183080
C36   C     C_R   0.047132 0.500013 0.885237 -0.183102
C37   C     C_R   0.499947 0.952868 0.114763 -0.183103
C38   C     C_R   0.500058 0.047132 0.885237 -0.183102
C39   C     C_R   0.047132 0.500005 0.114763 -0.183200
C40   C     C_R   0.952868 0.499988 0.885237 -0.183166
C41   C     C_R   0.000017 0.547132 0.614763 -0.183169
C42   C     C_R   0.999988 0.452868 0.385237 -0.183178
C43   C     C_R   0.452868 0.999926 0.614763 -0.183102
C44   C     C_R   0.547132 0.000068 0.385237 -0.183080
C45   C     C_R   0.999981 0.452868 0.614763 -0.183101
C46   C     C_R   0.000014 0.547132 0.385237 -0.183104
C47   C     C_R   0.547132 0.000073 0.614762 -0.183167
C48   C     C_R   0.452868 0.999933 0.385237 -0.183199
C49   C     C_1   0.361443 0.138557 0.250000 -0.141474
C50   C     C_1   0.638557 0.861443 0.750000 -0.141459
C51   C     C_1   0.861443 0.361443 0.250000 -0.141402
C52   C     C_1   0.138557 0.638557 0.750000 -0.141440
C53   C     C_1   0.638557 0.861443 0.250000 -0.141478
C54   C     C_1   0.361443 0.138557 0.750000 -0.141463
C55   C     C_1   0.138557 0.638557 0.250000 -0.141403
C56   C     C_1   0.861443 0.361443 0.750000 -0.141439
C57   C     C_1   0.361443 0.861443 0.750000 -0.141442
C58   C     C_1   0.638557 0.138557 0.250000 -0.141406
C59   C     C_1   0.861443 0.638557 0.750000 -0.141462
C60   C     C_1   0.138557 0.361443 0.250000 -0.141477
C61   C     C_1   0.638557 0.138557 0.750000 -0.141442
C62   C     C_1   0.361443 0.861443 0.250000 -0.141406
C63   C     C_1   0.138557 0.361443 0.750000 -0.141466
C64   C     C_1   0.861443 0.638557 0.250000 -0.141482
C65   C     C_R   0.499998 0.000000 0.065719 -0.040772
C66   C     C_R   0.500000 1.000000 0.934281 -0.040770
C67   C     C_R   0.000000 0.499999 0.065720 -0.040778
C68   C     C_R   0.000000 0.500001 0.934281 -0.040777
C69   C     C_R   1.000000 0.500000 0.565720 -0.040775
C70   C     C_R   0.000002 0.500000 0.434280 -0.040777
C71   C     C_R   0.500000 0.999999 0.565719 -0.040768
C72   C     C_R   0.500000 0.000001 0.434281 -0.040770
C73   C     C_R   0.499901 0.048032 0.082044 0.158700
C74   C     C_R   0.500092 0.951968 0.917956 0.158701
C75   C     C_R   0.951968 0.500144 0.082044 0.158693
C76   C     C_R   0.048032 0.499862 0.917956 0.158697
C77   C     C_R   0.500095 0.951968 0.082044 0.158701
C78   C     C_R   0.499909 0.048032 0.917956 0.158701
C79   C     C_R   0.048032 0.499853 0.082044 0.158699
C80   C     C_R   0.951968 0.500140 0.917956 0.158694
C81   C     C_R   0.999866 0.548032 0.582044 0.158699
C82   C     C_R   0.000140 0.451968 0.417956 0.158699
C83   C     C_R   0.451968 0.000073 0.582044 0.158703
C84   C     C_R   0.548032 0.999921 0.417956 0.158699
C85   C     C_R   0.000132 0.451968 0.582044 0.158698
C86   C     C_R   0.999864 0.548032 0.417956 0.158698
C87   C     C_R   0.548032 0.999925 0.582044 0.158701
C88   C     C_R   0.451968 0.000081 0.417956 0.158704
C89   C     C_R   0.499999 1.000000 0.131169 -0.117402
C90   C     C_R   0.500000 0.000000 0.868831 -0.117402
C91   C     C_R   1.000000 0.499999 0.131169 -0.117403
C92   C     C_R   1.000000 0.500000 0.868831 -0.117403
C93   C     C_R   1.000000 0.500000 0.631170 -0.117402
C94   C     C_R   0.000001 0.500000 0.368830 -0.117402
C95   C     C_R   0.500000 1.000000 0.631169 -0.117404
C96   C     C_R   0.500000 0.000000 0.368831 -0.117404
C97   C     C_R   0.000001 0.500000 0.468552 0.248471
C98   C     C_R   0.000000 0.500000 0.531448 0.248476
C99   C     C_R   0.500000 0.000001 0.468552 0.248450
C100  C     C_R   0.500000 1.000000 0.531448 0.248454
C101  C     C_R   0.500000 1.000000 0.968552 0.248461
C102  C     C_R   0.499999 0.000000 0.031448 0.248457
C103  C     C_R   1.000000 0.500000 0.968552 0.248477
C104  C     C_R   0.000000 0.499999 0.031448 0.248473
C105  C     C_R   0.500000 0.000000 0.334427 0.813673
C106  C     C_R   0.500000 1.000000 0.665573 0.813680
C107  C     C_R   0.000000 0.500000 0.334427 0.813671
C108  C     C_R   1.000000 0.500000 0.665573 0.813679
C109  C     C_R   1.000000 0.500000 0.834427 0.813681
C110  C     C_R   0.000000 0.500000 0.165573 0.813674
C111  C     C_R   0.500000 0.000000 0.834427 0.813679
C112  C     C_R   0.500000 1.000000 0.165573 0.813671
C113  C     C_R   0.599055 0.099055 0.250000 0.827666
C114  C     C_R   0.400945 0.900945 0.750000 0.827637
C115  C     C_R   0.900945 0.599055 0.250000 0.827652
C116  C     C_R   0.099055 0.400945 0.750000 0.827655
C117  C     C_R   0.400945 0.900945 0.250000 0.827652
C118  C     C_R   0.599055 0.099055 0.750000 0.827640
C119  C     C_R   0.099055 0.400945 0.250000 0.827583
C120  C     C_R   0.900945 0.599055 0.750000 0.827627
C121  C     C_R   0.599055 0.900945 0.750000 0.827630
C122  C     C_R   0.400945 0.099055 0.250000 0.827586
C123  C     C_R   0.900945 0.400945 0.750000 0.827642
C124  C     C_R   0.099055 0.599055 0.250000 0.827655
C125  C     C_R   0.400945 0.099055 0.750000 0.827657
C126  C     C_R   0.599055 0.900945 0.250000 0.827655
C127  C     C_R   0.099055 0.599055 0.750000 0.827639
C128  C     C_R   0.900945 0.400945 0.250000 0.827669
C129  C     C_R   0.212237 0.250770 0.273480 -0.179791
C130  C     C_R   0.789719 0.751186 0.727706 -0.179796
C131  C     C_R   0.751790 0.209677 0.271890 -0.179750
C132  C     C_R   0.249487 0.789045 0.727277 -0.179754
C133  C     C_R   0.792399 0.753867 0.270344 -0.179823
C134  C     C_R   0.207182 0.245715 0.730002 -0.179828
C135  C     C_R   0.249115 0.789417 0.272489 -0.179667
C136  C     C_R   0.750578 0.210890 0.727317 -0.179700
C137  C     C_R   0.210955 0.750512 0.727277 -0.179699
C138  C     C_R   0.790322 0.248210 0.271890 -0.179672
C139  C     C_R   0.751187 0.789719 0.727706 -0.179796
C140  C     C_R   0.250770 0.212238 0.273480 -0.179775
C141  C     C_R   0.789110 0.249422 0.727317 -0.179750
C142  C     C_R   0.210582 0.750885 0.272489 -0.179742
C143  C     C_R   0.245715 0.207182 0.730002 -0.179825
C144  C     C_R   0.753867 0.792399 0.270343 -0.179836
C145  C     C_R   0.710281 0.748813 0.772294 -0.179795
C146  C     C_R   0.287762 0.249230 0.226520 -0.179790
C147  C     C_R   0.250513 0.710955 0.772723 -0.179751
C148  C     C_R   0.748210 0.290323 0.228109 -0.179750
C149  C     C_R   0.292818 0.254285 0.769998 -0.179827
C150  C     C_R   0.707601 0.746133 0.229656 -0.179821
C151  C     C_R   0.749422 0.289110 0.772683 -0.179698
C152  C     C_R   0.250885 0.710583 0.227511 -0.179665
C153  C     C_R   0.709677 0.251790 0.228109 -0.179671
C154  C     C_R   0.289045 0.749487 0.772723 -0.179702
C155  C     C_R   0.249230 0.287762 0.226520 -0.179778
C156  C     C_R   0.748813 0.710281 0.772294 -0.179798
C157  C     C_R   0.289418 0.749115 0.227511 -0.179743
C158  C     C_R   0.710890 0.250578 0.772683 -0.179752
C159  C     C_R   0.746133 0.707601 0.229656 -0.179839
C160  C     C_R   0.254285 0.292818 0.769998 -0.179828
H1    H     H_    0.500155 0.083038 0.127857 0.181207
H2    H     H_    0.499835 0.916962 0.872143 0.181205
H3    H     H_    0.916962 0.499925 0.127857 0.181218
H4    H     H_    0.083038 0.500087 0.872142 0.181217
H5    H     H_    0.499843 0.916962 0.127857 0.181213
H6    H     H_    0.500166 0.083038 0.872143 0.181215
H7    H     H_    0.083038 0.500073 0.127857 0.181206
H8    H     H_    0.916962 0.499914 0.872143 0.181208
H9    H     H_    0.000095 0.583038 0.627857 0.181206
H10   H     H_    0.999915 0.416962 0.372142 0.181208
H11   H     H_    0.416962 0.999805 0.627857 0.181214
H12   H     H_    0.583038 0.000184 0.372143 0.181215
H13   H     H_    0.999903 0.416962 0.627857 0.181216
H14   H     H_    0.000088 0.583038 0.372142 0.181215
H15   H     H_    0.583038 0.000193 0.627857 0.181205
H16   H     H_    0.416962 0.999817 0.372143 0.181204
H17   H     H_    0.251071 0.183161 0.291743 0.141873
H18   H     H_    0.752407 0.820317 0.710364 0.141959
H19   H     H_    0.821390 0.246520 0.288918 0.142032
H20   H     H_    0.180881 0.751209 0.709602 0.141964
H21   H     H_    0.757172 0.825082 0.286167 0.142029
H22   H     H_    0.242084 0.174173 0.714446 0.142051
H23   H     H_    0.180219 0.751871 0.289982 0.141965
H24   H     H_    0.819235 0.248675 0.709673 0.141944
H25   H     H_    0.248791 0.819119 0.709602 0.141940
H26   H     H_    0.753480 0.178610 0.288918 0.141992
H27   H     H_    0.820317 0.752407 0.710364 0.141958
H28   H     H_    0.183161 0.251072 0.291744 0.141866
H29   H     H_    0.751324 0.180765 0.709674 0.141967
H30   H     H_    0.248129 0.819781 0.289982 0.142001
H31   H     H_    0.174173 0.242084 0.714446 0.142050
H32   H     H_    0.825082 0.757172 0.286167 0.142037
H33   H     H_    0.747593 0.679683 0.789636 0.141958
H34   H     H_    0.248928 0.316839 0.208257 0.141873
H35   H     H_    0.319119 0.748791 0.790398 0.141964
H36   H     H_    0.678610 0.253480 0.211082 0.142031
H37   H     H_    0.257916 0.325826 0.785554 0.142050
H38   H     H_    0.742828 0.674918 0.213833 0.142029
H39   H     H_    0.680765 0.251325 0.790326 0.141944
H40   H     H_    0.319781 0.748129 0.210018 0.141965
H41   H     H_    0.746520 0.321390 0.211082 0.141994
H42   H     H_    0.251209 0.680881 0.790398 0.141941
H43   H     H_    0.316839 0.248928 0.208256 0.141867
H44   H     H_    0.679682 0.747593 0.789636 0.141959
H45   H     H_    0.251871 0.680219 0.210018 0.142002
H46   H     H_    0.748675 0.319235 0.790326 0.141968
H47   H     H_    0.674918 0.742828 0.213832 0.142037
H48   H     H_    0.325827 0.257916 0.785554 0.142050
N1    N     N_R   0.456742 0.985627 0.015477 -0.177612
N2    N     N_R   0.543257 0.014373 0.984523 -0.177590
N3    N     N_R   0.014441 0.543234 0.015477 -0.177584
N4    N     N_R   0.985559 0.456765 0.984523 -0.177590
N5    N     N_R   0.543256 0.014373 0.015477 -0.177563
N6    N     N_R   0.456742 0.985627 0.984523 -0.177589
N7    N     N_R   0.985559 0.456765 0.015477 -0.177606
N8    N     N_R   0.014441 0.543234 0.984523 -0.177605
N9    N     N_R   0.956763 0.485567 0.515477 -0.177597
N10   N     N_R   0.043238 0.514433 0.484523 -0.177620
N11   N     N_R   0.514346 0.043266 0.515477 -0.177578
N12   N     N_R   0.485653 0.956734 0.484523 -0.177573
N13   N     N_R   0.043238 0.514433 0.515477 -0.177597
N14   N     N_R   0.956764 0.485566 0.484523 -0.177571
N15   N     N_R   0.485654 0.956734 0.515477 -0.177594
N16   N     N_R   0.514346 0.043266 0.484523 -0.177594
O1    O     O_3   0.500000 0.000000 0.250000 -0.474047
O2    O     O_3   0.500000 0.000000 0.750000 -0.474043
O3    O     O_3   1.000000 0.500000 0.250000 -0.474047
O4    O     O_3   0.000000 0.500000 0.750000 -0.474043
O5    O     O_R   0.457240 0.000000 0.319330 -0.645614
O6    O     O_R   0.542760 0.000000 0.680670 -0.645602
O7    O     O_R   0.000000 0.457240 0.319330 -0.645605
O8    O     O_R   0.000000 0.542760 0.680670 -0.645603
O9    O     O_R   0.542760 0.000000 0.319330 -0.645556
O10   O     O_R   0.457240 0.000000 0.680670 -0.645565
O11   O     O_R   0.000000 0.542760 0.319330 -0.645567
O12   O     O_R   0.000000 0.457240 0.680670 -0.645566
O13   O     O_R   0.957240 0.500000 0.819330 -0.645602
O14   O     O_R   0.042760 0.500000 0.180670 -0.645616
O15   O     O_R   0.500000 0.957240 0.819330 -0.645602
O16   O     O_R   0.500000 0.042760 0.180670 -0.645605
O17   O     O_R   0.042760 0.500000 0.819330 -0.645567
O18   O     O_R   0.957240 0.500000 0.180670 -0.645558
O19   O     O_R   0.500000 0.042760 0.819330 -0.645565
O20   O     O_R   0.500000 0.957240 0.180670 -0.645567
O21   O     O_R   0.602780 0.060140 0.268190 -0.637215
O22   O     O_R   0.397220 0.939860 0.731810 -0.637204
O23   O     O_R   0.939860 0.602780 0.268190 -0.637155
O24   O     O_R   0.060140 0.397220 0.731810 -0.637159
O25   O     O_R   0.397220 0.939860 0.268190 -0.637107
O26   O     O_R   0.602780 0.060140 0.731810 -0.637136
O27   O     O_R   0.060140 0.397220 0.268190 -0.637145
O28   O     O_R   0.939860 0.602780 0.731810 -0.637144
O29   O     O_R   0.602780 0.939860 0.731810 -0.637143
O30   O     O_R   0.397220 0.060140 0.268190 -0.637123
O31   O     O_R   0.939860 0.397220 0.731810 -0.637200
O32   O     O_R   0.060140 0.602780 0.268190 -0.637205
O33   O     O_R   0.397220 0.060140 0.731810 -0.637155
O34   O     O_R   0.602780 0.939860 0.268190 -0.637172
O35   O     O_R   0.060140 0.602780 0.731810 -0.637131
O36   O     O_R   0.939860 0.397220 0.268190 -0.637108
O37   O     O_R   0.102780 0.560140 0.768190 -0.637200
O38   O     O_R   0.897220 0.439860 0.231810 -0.637211
O39   O     O_R   0.439860 0.102780 0.768190 -0.637157
O40   O     O_R   0.560140 0.897220 0.231810 -0.637153
O41   O     O_R   0.897220 0.439860 0.768190 -0.637132
O42   O     O_R   0.102780 0.560140 0.231810 -0.637103
O43   O     O_R   0.560140 0.897220 0.768190 -0.637142
O44   O     O_R   0.439860 0.102780 0.231810 -0.637143
O45   O     O_R   0.102780 0.439860 0.231810 -0.637127
O46   O     O_R   0.897220 0.560140 0.768190 -0.637147
O47   O     O_R   0.439860 0.897220 0.231810 -0.637207
O48   O     O_R   0.560140 0.102780 0.768190 -0.637202
O49   O     O_R   0.897220 0.560140 0.231810 -0.637176
O50   O     O_R   0.102780 0.439860 0.768190 -0.637159
O51   O     O_R   0.560140 0.102780 0.231810 -0.637110
O52   O     O_R   0.439860 0.897220 0.768190 -0.637133
Zn1   Zn    Zn3+2 0.500000 0.061050 0.224040 0.974132
Zn2   Zn    Zn3+2 0.500000 0.938950 0.775960 0.974123
Zn3   Zn    Zn3+2 0.938950 0.500000 0.224040 0.974095
Zn4   Zn    Zn3+2 0.061050 0.500000 0.775960 0.974101
Zn5   Zn    Zn3+2 0.500000 0.938950 0.224040 0.974102
Zn6   Zn    Zn3+2 0.500000 0.061050 0.775960 0.974101
Zn7   Zn    Zn3+2 0.061050 0.500000 0.224040 0.974139
Zn8   Zn    Zn3+2 0.938950 0.500000 0.775960 0.974123
Zn9   Zn    Zn3+2 0.000000 0.561050 0.724040 0.974122
Zn10  Zn    Zn3+2 0.000000 0.438950 0.275960 0.974132
Zn11  Zn    Zn3+2 0.438950 0.000000 0.724040 0.974101
Zn12  Zn    Zn3+2 0.561050 0.000000 0.275960 0.974095
Zn13  Zn    Zn3+2 1.000000 0.438950 0.724040 0.974101
Zn14  Zn    Zn3+2 0.000000 0.561050 0.275960 0.974101
Zn15  Zn    Zn3+2 0.561050 0.000000 0.724040 0.974123
Zn16  Zn    Zn3+2 0.438950 0.000000 0.275960 0.974139
C161  C     C_3   0.499027 0.099153 0.063870 -0.387849
C162  C     C_3   0.494677 0.149035 0.083173 -0.893145
H49   H     H_    0.458536 0.148566 0.097384 0.263145
H50   H     H_    0.529353 0.153678 0.098377 0.261145
H51   H     H_    0.492904 0.183182 0.067349 0.256593
H52   H     H_    0.535187 0.101905 0.049769 0.221646
H53   H     H_    0.465352 0.098410 0.047615 0.214095
C163  C     C_3   0.500959 0.900847 0.936130 -0.387853
C164  C     C_3   0.505305 0.850964 0.916826 -0.893124
H54   H     H_    0.470629 0.846325 0.901622 0.261084
H55   H     H_    0.541446 0.851429 0.902616 0.263218
H56   H     H_    0.507073 0.816817 0.932651 0.256594
H57   H     H_    0.534634 0.901585 0.952386 0.214121
H58   H     H_    0.464799 0.898098 0.950230 0.221624
C165  C     C_3   0.900847 0.501071 0.063870 -0.387879
C166  C     C_3   0.850969 0.505485 0.083174 -0.892954
H59   H     H_    0.846283 0.470817 0.098379 0.261079
H60   H     H_    0.851481 0.541627 0.097383 0.263288
H61   H     H_    0.816824 0.507297 0.067350 0.256591
H62   H     H_    0.901626 0.534742 0.047612 0.214137
H63   H     H_    0.898052 0.464912 0.049774 0.221630
C167  C     C_3   0.099154 0.498942 0.936129 -0.387882
C168  C     C_3   0.149032 0.494535 0.916825 -0.892983
H64   H     H_    0.148525 0.458392 0.902617 0.263316
H65   H     H_    0.153714 0.529203 0.901620 0.261042
H66   H     H_    0.183178 0.492727 0.932650 0.256586
H67   H     H_    0.101945 0.535103 0.950226 0.221618
H68   H     H_    0.098379 0.465273 0.952388 0.214136
C169  C     C_3   0.500967 0.900847 0.063869 -0.387894
C170  C     C_3   0.505314 0.850965 0.083173 -0.892979
H69   H     H_    0.541456 0.851432 0.097384 0.263301
H70   H     H_    0.470639 0.846324 0.098377 0.261055
H71   H     H_    0.507085 0.816817 0.067349 0.256593
H72   H     H_    0.464808 0.898096 0.049769 0.221612
H73   H     H_    0.534643 0.901588 0.047615 0.214147
C171  C     C_3   0.499042 0.099153 0.936130 -0.387900
C172  C     C_3   0.494699 0.149036 0.916826 -0.892973
H74   H     H_    0.529375 0.153674 0.901623 0.261048
H75   H     H_    0.458558 0.148572 0.902616 0.263314
H76   H     H_    0.492931 0.183183 0.932651 0.256591
H77   H     H_    0.465367 0.098415 0.952386 0.214139
H78   H     H_    0.535202 0.101901 0.950230 0.221620
C173  C     C_3   0.099154 0.498925 0.063870 -0.387835
C174  C     C_3   0.149031 0.494510 0.083174 -0.893177
H79   H     H_    0.153718 0.529178 0.098380 0.261119
H80   H     H_    0.148517 0.458368 0.097383 0.263156
H81   H     H_    0.183176 0.492697 0.067350 0.256590
H82   H     H_    0.098373 0.465255 0.047612 0.214097
H83   H     H_    0.101949 0.535085 0.049774 0.221638
C175  C     C_3   0.900846 0.501060 0.936129 -0.387835
C176  C     C_3   0.850968 0.505469 0.916825 -0.893118
H84   H     H_    0.851477 0.541612 0.902617 0.263214
H85   H     H_    0.846285 0.470801 0.901620 0.261084
H86   H     H_    0.816822 0.507278 0.932650 0.256593
H87   H     H_    0.898055 0.464899 0.950225 0.221633
H88   H     H_    0.901622 0.534729 0.952389 0.214114
C177  C     C_3   0.998953 0.599153 0.563871 -0.387846
C178  C     C_3   0.994551 0.649031 0.583175 -0.893127
H89   H     H_    0.958408 0.648527 0.597383 0.263218
H90   H     H_    0.029220 0.653708 0.598380 0.261082
H91   H     H_    0.992747 0.683177 0.567350 0.256593
H92   H     H_    0.035114 0.601939 0.549774 0.221630
H93   H     H_    0.965283 0.598381 0.547612 0.214119
C179  C     C_3   0.001060 0.400848 0.436130 -0.387842
C180  C     C_3   0.005467 0.350970 0.416826 -0.893150
H94   H     H_    0.970798 0.346290 0.401620 0.261144
H95   H     H_    0.041609 0.351479 0.402616 0.263146
H96   H     H_    0.007275 0.316825 0.432650 0.256594
H97   H     H_    0.034731 0.401623 0.452388 0.214092
H98   H     H_    0.964900 0.398058 0.450226 0.221652
C181  C     C_3   0.400846 0.000921 0.563869 -0.387901
C182  C     C_3   0.350961 0.005240 0.583173 -0.892978
H99   H     H_    0.346339 0.970561 0.598376 0.261045
H100  H     H_    0.351408 0.041381 0.597384 0.263316
H101  H     H_    0.316813 0.006993 0.567349 0.256588
H102  H     H_    0.401570 0.034599 0.547616 0.214141
H103  H     H_    0.398114 0.964762 0.549768 0.221611
C183  C     C_3   0.599153 0.999067 0.436131 -0.387893
C184  C     C_3   0.649038 0.994742 0.416827 -0.892948
H104  H     H_    0.648588 0.958602 0.402616 0.263288
H105  H     H_    0.653664 0.029421 0.401624 0.261081
H106  H     H_    0.683186 0.992986 0.432652 0.256593
H107  H     H_    0.601889 0.035225 0.450233 0.221621
H108  H     H_    0.598425 0.965389 0.452384 0.214141
C185  C     C_3   0.001045 0.400847 0.563870 -0.387891
C186  C     C_3   0.005445 0.350969 0.583174 -0.892977
H109  H     H_    0.041588 0.351472 0.597383 0.263315
H110  H     H_    0.970776 0.346293 0.598380 0.261047
H111  H     H_    0.007248 0.316823 0.567350 0.256591
H112  H     H_    0.964885 0.398062 0.549774 0.221626
H113  H     H_    0.034716 0.401618 0.547612 0.214136
C187  C     C_3   0.998945 0.599152 0.436130 -0.387887
C188  C     C_3   0.994541 0.649030 0.416826 -0.892986
H114  H     H_    0.029210 0.653709 0.401620 0.261055
H115  H     H_    0.958399 0.648524 0.402617 0.263303
H116  H     H_    0.992735 0.683176 0.432650 0.256593
H117  H     H_    0.965274 0.598378 0.452388 0.214144
H118  H     H_    0.035105 0.601940 0.450227 0.221618
C189  C     C_3   0.599154 0.999077 0.563869 -0.387854
C190  C     C_3   0.649039 0.994756 0.583173 -0.893112
H119  H     H_    0.653662 0.029435 0.598376 0.261087
H120  H     H_    0.648591 0.958615 0.597384 0.263214
H121  H     H_    0.683187 0.993002 0.567349 0.256594
H122  H     H_    0.598429 0.965399 0.547615 0.214119
H123  H     H_    0.601887 0.035236 0.549768 0.221625
C191  C     C_3   0.400846 0.000936 0.436131 -0.387850
C192  C     C_3   0.350962 0.005262 0.416827 -0.893169
H124  H     H_    0.351413 0.041402 0.402616 0.263157
H125  H     H_    0.346335 0.970583 0.401624 0.261120
H126  H     H_    0.316814 0.007019 0.432651 0.256591
H127  H     H_    0.398110 0.964778 0.450233 0.221629
H128  H     H_    0.401575 0.034614 0.452384 0.214101

loop_
_geom_bond_atom_site_label_1
_geom_bond_atom_site_label_2
_ccdc_geom_bond_type
C170  H70   S    
C180  H94   S    
C107  O7    A    
O3    Zn14  S    
O11   Zn14  S    
O8    Zn9   S    
C12   C49   T    
C164  H54   S    
C79   C173  S    
C128  O36   A    
C175  H87   S    
C92   C109  S    
C170  H71   S    
C98   N13   A    
C120  O46   A    
O2    Zn2   S    
C42   H10   S    
C134  C143  A    
C135  C142  A    
C100  N11   A    
C148  H41   S    
C58   C113  S    
C46   H14   S    
C3    C19   S    
C177  H93   S    
C71   C83   A    
C166  H61   S    
C69   C98   S    
C64   C115  S    
C19   C131  A    
O40   Zn5   S    
C21   C159  A    
O29   Zn15  S    
C9    C52   T    
C85   C185  S    
C20   C132  A    
O30   Zn16  S    
C10   C51   T    
C21   C133  A    
C52   C127  S    
O48   Zn6   S    
C54   C125  S    
C65   C77   A    
C150  C159  A    
C126  O34   A    
C114  O52   A    
C151  C158  A    
C191  H128  S    
C67   C79   A    
C190  H120  S    
C118  O26   A    
C1    C60   T    
C2    C59   T    
O6    Zn15  S    
C38   C78   A    
C44   C84   A    
C132  C137  A    
C169  H73   S    
C41   H9    S    
O44   Zn1   S    
C35   H3    S    
C106  O6    A    
C5    C64   T    
C6    C63   T    
C33   H1    S    
C44   H12   S    
C7    C62   T    
C136  C141  A    
C45   H13   S    
C110  O18   A    
C102  N5    A    
C11   C27   S    
C27   C145  A    
O1    Zn16  S    
C25   C147  A    
C26   C148  A    
C72   C84   A    
C33   C73   A    
C180  H96   S    
C19   C153  A    
C18   C130  A    
C148  C153  A    
C17   C155  A    
C18   C156  A    
C163  C164  S    
C164  H56   S    
C192  H125  S    
C152  C157  A    
C111  O19   A    
C48   C96   A    
C61   C118  S    
C120  O28   A    
C174  H79   S    
C121  O29   A    
C160  H37   S    
C23   C135  A    
C38   C90   A    
C185  H112  S    
O19   Zn6   S    
C131  C138  A    
C173  H82   S    
C153  H36   S    
C113  O21   A    
O38   Zn3   S    
O23   Zn14  S    
C31   C143  A    
C178  H89   S    
C70   C82   A    
C32   C144  A    
C173  C174  S    
C4    C20   S    
C87   C189  S    
C112  O20   A    
C5    C21   S    
C99   N12   A    
C169  C170  S    
C77   C169  S    
C97   N10   A    
O45   Zn7   S    
O46   Zn8   S    
C186  H109  S    
C103  N8    A    
O36   Zn10  S    
C184  H104  S    
C188  H115  S    
C163  H57   S    
C59   C120  S    
C43   C83   A    
C181  H102  S    
C74   C163  S    
C68   C103  S    
C45   C93   A    
C121  O43   A    
C183  C184  S    
C122  O44   A    
O37   Zn4   S    
C179  H97   S    
C78   C171  S    
C51   C128  S    
C119  O27   A    
O9    Zn12  S    
C192  H124  S    
C66   C74   A    
O15   Zn2   S    
C182  H99   S    
C60   C119  S    
C165  H62   S    
C161  H52   S    
C181  H103  S    
C62   C117  S    
N11   N16   A    
C159  H38   S    
C112  O16   A    
C171  H78   S    
O7    Zn10  S    
O4    Zn13  S    
O12   Zn13  S    
C13   C56   T    
C24   C136  A    
N3    N8    A    
C172  H75   S    
C66   C101  S    
C90   C111  S    
C174  H81   S    
C138  H19   S    
C149  H48   S    
C117  O47   A    
C166  H60   S    
C118  O48   A    
C119  O45   A    
C94   C107  S    
C143  H22   S    
C43   H11   S    
C130  H27   S    
C37   H5    S    
C100  N15   A    
C27   C139  A    
C47   C87   A    
C134  H31   S    
C25   C137  A    
C135  H30   S    
C161  C162  S    
C44   C96   A    
C95   C106  S    
C33   C89   A    
C29   C151  A    
C30   C152  A    
C46   C94   A    
N4    N7    A    
C184  H106  S    
C29   C141  A    
O2    Zn15  S    
C32   C150  A    
C154  H35   S    
C128  O38   A    
C176  H85   S    
C127  O35   A    
C129  H28   S    
C67   C75   A    
C173  H83   S    
C69   C85   A    
N10   N13   A    
C108  O8    A    
C167  H67   S    
C144  H21   S    
C168  H66   S    
C106  O10   A    
C171  C172  S    
C34   H2    S    
O3    Zn7   S    
C132  H25   S    
C110  O14   A    
C102  N1    A    
C15   C31   S    
C16   C32   S    
N2    N5    A    
O43   Zn2   S    
C1    C17   S    
C182  H101  S    
C136  H29   S    
C157  H40   S    
O31   Zn13  S    
C155  H34   S    
C175  H88   S    
C187  H117  S    
C22   C160  A    
C7    C23   S    
C23   C157  A    
C88   C191  S    
C8    C24   S    
C170  H69   S    
C149  C160  A    
C86   C187  S    
C76   C167  S    
O41   Zn8   S    
O1    Zn1   S    
C177  H92   S    
N12   N15   A    
C47   H15   S    
C48   H16   S    
C72   C99   S    
C96   C105  S    
C108  O12   A    
C81   C177  S    
O28   Zn9   S    
C113  O51   A    
C9    C25   S    
O4    Zn4   S    
C50   C121  S    
C89   C112  S    
O20   Zn5   S    
C177  C178  S    
O39   Zn6   S    
O24   Zn13  S    
C12   C28   S    
C91   C110  S    
C13   C29   S    
C93   C108  S    
C162  H49   S    
C31   C149  A    
O47   Zn5   S    
C169  H72   S    
C6    C22   S    
C97   N14   A    
C39   C91   A    
O13   Zn8   S    
C84   C183  S    
O14   Zn7   S    
C145  C156  A    
C82   C179  S    
O4    Zn9   S    
C41   C93   A    
C146  C155  A    
C116  O24   A    
C133  C144  A    
C28   C140  A    
C43   C95   A    
C181  C182  S    
C48   C88   A    
C165  H63   S    
O1    Zn5   S    
C123  O31   A    
C183  H107  S    
C70   C97   S    
C36   C92   A    
C142  H23   S    
C168  H64   S    
C180  H95   S    
O17   Zn4   S    
O18   Zn3   S    
C130  C139  A    
C83   C181  S    
C115  O23   A    
C164  H55   S    
C66   C78   A    
C165  C166  S    
O1    Zn12  S    
C162  H51   S    
C174  H80   S    
C117  O25   A    
C178  H91   S    
C37   C77   A    
C175  C176  S    
C39   C79   A    
C15   C54   T    
C75   C165  S    
O5    Zn16  S    
C109  O17   A    
C101  N6    A    
C41   C81   A    
C125  O39   A    
C56   C123  S    
C126  O40   A    
C178  H90   S    
C34   C74   A    
C71   C87   A    
C63   C116  S    
C68   C76   A    
C186  H110  S    
C188  H114  S    
C163  H58   S    
N9    N14   A    
C38   H6    S    
C55   C124  S    
C80   C175  S    
C42   C94   A    
C28   C146  A    
C191  H127  S    
C104  N7    A    
C190  H119  S    
C26   C138  A    
C122  O30   A    
C145  H44   S    
C71   C100  S    
C179  H98   S    
N1    N6    A    
C30   C142  A    
C37   C89   A    
C186  H111  S    
C167  C168  S    
C11   C50   T    
C114  O22   A    
C137  H20   S    
C182  H100  S    
C69   C81   A    
C3    C58   T    
C189  H123  S    
C98   N9    A    
C36   H4    S    
O3    Zn3   S    
O10   Zn11  S    
C133  H32   S    
C105  O5    A    
O42   Zn7   S    
C68   C80   A    
C192  H126  S    
C176  H84   S    
C2    C18   S    
C172  H74   S    
C42   C82   A    
C124  O32   A    
C187  C188  S    
O32   Zn14  S    
C189  C190  S    
C35   C75   A    
O49   Zn3   S    
C20   C154  A    
C22   C134  A    
O50   Zn4   S    
O34   Zn12  S    
O51   Zn1   S    
C171  H77   S    
C150  H47   S    
C185  H113  S    
C24   C158  A    
C125  O33   A    
O33   Zn11  S    
C65   C73   A    
C73   C161  S    
O35   Zn9   S    
C147  C154  A    
C115  O49   A    
C16   C53   T    
C36   C76   A    
C184  H105  S    
C4    C57   T    
C40   C80   A    
O27   Zn10  S    
C8    C61   T    
C188  H116  S    
O4    Zn8   S    
C140  H17   S    
O21   Zn12  S    
O22   Zn11  S    
C65   C102  S    
C14   C30   S    
C190  H121  S    
C72   C88   A    
C67   C104  S    
C158  H39   S    
C167  H68   S    
C189  H122  S    
C168  H65   S    
C17   C129  A    
C152  H45   S    
O2    Zn11  S    
O3    Zn10  S    
O25   Zn16  S    
C111  O15   A    
O26   Zn15  S    
C127  O37   A    
C161  H53   S    
C45   C85   A    
C34   C90   A    
C146  H43   S    
C187  H118  S    
C123  O41   A    
C40   C92   A    
C116  O50   A    
C185  C186  S    
O52   Zn2   S    
C172  H76   S    
C70   C86   A    
O2    Zn6   S    
C166  H59   S    
C107  O11   A    
C99   N16   A    
C191  C192  S    
C105  O9    A    
C147  H42   S    
C103  N4    A    
C57   C114  S    
C109  O13   A    
C101  N2    A    
C141  H24   S    
C156  H33   S    
C139  H18   S    
C162  H50   S    
C10   C26   S    
C129  C140  A    
C49   C122  S    
C124  O42   A    
C179  C180  S    
C14   C55   T    
C151  H46   S    
C39   H7    S    
C40   H8    S    
C53   C126  S    
C131  H26   S    
C176  H86   S    
C47   C95   A    
O16   Zn1   S    
C104  N3    A    
C183  H108  S    
C46   C86   A    
C35   C91   A    
