data_mof_unit_11092.cif
_audit_creation_date              2013-03-05T15:50:44-0500
_audit_creation_method            fapswitch 2.2
_symmetry_space_group_name_H-M    P1
_symmetry_Int_Tables_number       1
_space_group_crystal_system       triclinic
_cell_length_a                    22.849466
_cell_length_b                    7.227231
_cell_length_c                    20.786732
_cell_angle_alpha                 89.997314
_cell_angle_beta                  93.345765
_cell_angle_gamma                 90.000375
_cell_volume                      3426.83606551

loop_
_atom_site_label
_atom_site_type_symbol
_atom_site_description
_atom_site_fract_x
_atom_site_fract_y
_atom_site_fract_z
_atom_type_partial_charge
O1    O     O_R   0.438030 0.494310 0.439340 -0.594195
O2    O     O_R   0.561970 0.994310 0.560660 -0.594190
O3    O     O_R   0.556900 0.822900 0.435960 -0.570087
O4    O     O_R   0.443100 0.322900 0.564040 -0.570165
C1    C     C_R   0.575755 0.655499 0.421061 0.948445
C2    C     C_R   0.424247 0.155491 0.578942 0.948530
O5    O     O_R   0.438170 0.823950 0.431660 -0.595058
O6    O     O_R   0.561830 0.323950 0.568340 -0.595043
O7    O     O_R   0.442390 0.995390 0.556340 -0.579443
O8    O     O_R   0.557610 0.495390 0.443660 -0.579324
C3    C     C_R   0.418444 0.655308 0.415580 0.947064
C4    C     C_R   0.581557 0.155304 0.584418 0.947183
O9    O     O_3   0.501520 0.661170 0.540910 -0.282217
O10   O     O_3   0.498480 0.161170 0.459090 -0.282141
V1    V     V_3+5 0.499720 0.935580 0.492410 1.208122
V2    V     V_3+5 0.500280 0.435580 0.507590 1.208096
C5    C     C_R   0.829653 0.935160 0.856590 -0.194267
C6    C     C_R   0.170347 0.435158 0.143415 -0.194293
C7    C     C_R   0.869093 0.083906 0.865791 -0.139721
C8    C     C_R   0.130906 0.583901 0.134211 -0.139716
C9    C     C_R   0.860497 0.244581 0.827991 -0.210032
C10   C     C_R   0.139501 0.744575 0.172007 -0.209977
C11   C     C_R   0.813538 0.257020 0.781468 0.146477
C12   C     C_R   0.186462 0.757016 0.218529 0.146461
C13   C     C_R   0.773829 0.108258 0.773194 0.041433
C14   C     C_R   0.226170 0.608256 0.226806 0.041441
C15   C     C_R   0.781808 0.947096 0.811079 0.135554
C16   C     C_R   0.218192 0.447096 0.188926 0.135580
C17   C     C_R   0.805536 0.415776 0.743042 -0.193396
C18   C     C_R   0.194463 0.915770 0.256952 -0.193390
C19   C     C_R   0.758285 0.427989 0.697237 -0.183218
C20   C     C_R   0.241714 0.927983 0.302756 -0.183143
C21   C     C_R   0.718035 0.281957 0.689128 0.141858
C22   C     C_R   0.281964 0.781957 0.310869 0.141850
C23   C     C_R   0.726010 0.120796 0.727012 0.042698
C24   C     C_R   0.273989 0.620797 0.272988 0.042705
C25   C     C_R   0.686311 0.972013 0.718720 0.142346
C26   C     C_R   0.313689 0.472016 0.281284 0.142358
C27   C     C_R   0.694296 0.813297 0.757173 -0.190766
C28   C     C_R   0.305704 0.313303 0.242835 -0.190815
C29   C     C_R   0.741541 0.801102 0.802990 -0.167252
C30   C     C_R   0.258460 0.301106 0.197017 -0.167243
C31   C     C_R   0.670224 0.293841 0.643576 -0.205677
C32   C     C_R   0.329776 0.793844 0.356419 -0.205673
C33   C     C_R   0.630822 0.145025 0.634313 -0.137768
C34   C     C_R   0.369179 0.645030 0.365685 -0.137758
C35   C     C_R   0.639390 0.984381 0.672139 -0.215778
C36   C     C_R   0.360610 0.484387 0.327864 -0.215783
H1    H     H_    0.835504 0.811370 0.885723 0.147015
H2    H     H_    0.164496 0.311369 0.114285 0.147017
H3    H     H_    0.890718 0.359670 0.834338 0.146361
H4    H     H_    0.109281 0.859664 0.165657 0.146357
H5    H     H_    0.835711 0.531114 0.748604 0.149331
H6    H     H_    0.164288 0.031106 0.251387 0.149344
H7    H     H_    0.753107 0.552221 0.668283 0.152074
H8    H     H_    0.246892 0.052214 0.331707 0.152105
H9    H     H_    0.664378 0.417638 0.614446 0.142029
H10   H     H_    0.335622 0.917638 0.385546 0.142041
H11   H     H_    0.609186 0.869262 0.665759 0.147552
H12   H     H_    0.390815 0.369268 0.334247 0.147551
H13   H     H_    0.664122 0.697959 0.751610 0.152995
H14   H     H_    0.335879 0.197966 0.248400 0.152979
H15   H     H_    0.746713 0.676886 0.831955 0.158726
H16   H     H_    0.253287 0.176892 0.168056 0.158726
C37   C     C_3   0.269249 0.147306 0.830846 0.488037
C38   C     C_3   0.730802 0.648126 0.169191 0.488167
C39   C     C_3   0.213641 0.921799 0.754513 -0.442022
C40   C     C_3   0.786184 0.421504 0.245303 -0.442177
C41   C     C_3   0.264338 0.933038 0.707445 0.167397
C42   C     C_3   0.735474 0.432783 0.292357 0.167385
H17   H     H_    0.348754 0.028959 0.791146 0.144986
H18   H     H_    0.651146 0.530366 0.208749 0.144922
H19   H     H_    0.171325 0.888760 0.727955 0.257330
H20   H     H_    0.828463 0.387874 0.271839 0.257261
H21   H     H_    0.221641 0.803695 0.788053 0.226813
H22   H     H_    0.778097 0.303770 0.211641 0.227618
H23   H     H_    0.298021 0.829640 0.724436 0.134881
H24   H     H_    0.701693 0.329866 0.275236 0.135678
C43   C     C_1   0.379038 0.146565 0.625051 -0.202028
C44   C     C_1   0.620962 0.646600 0.374953 -0.201763
C45   C     C_3   0.208468 0.106185 0.792869 -0.130368
C46   C     C_3   0.791537 0.606163 0.207139 -0.130469
C47   C     C_3   0.320190 0.152126 0.781893 -0.002987
C48   C     C_3   0.679860 0.653117 0.218143 -0.002893
C49   C     C_3   0.294108 0.128947 0.710590 -0.119233
C50   C     C_3   0.705903 0.628995 0.289423 -0.119561
C51   C     C_3   0.246527 0.280589 0.696311 -0.349779
C52   C     C_3   0.753646 0.779991 0.303905 -0.349846
C53   C     C_3   0.195304 0.262829 0.742196 0.303526
C54   C     C_3   0.804841 0.762252 0.257981 0.303573
C55   C     C_1   0.340990 0.138752 0.663467 0.184523
C56   C     C_1   0.659013 0.638809 0.336541 0.184945
C57   C     C_1   0.160177 0.092979 0.838170 0.203267
C58   C     C_1   0.839827 0.592934 0.161834 0.203367
C59   C     C_1   0.121378 0.083649 0.875628 -0.196541
C60   C     C_1   0.878623 0.583617 0.124372 -0.196501
H25   H     H_    0.189420 0.396685 0.766972 0.129985
H26   H     H_    0.810829 0.896287 0.233352 0.130101
H27   H     H_    0.265908 0.420707 0.702098 0.214052
H28   H     H_    0.734418 0.920377 0.298334 0.214437
H29   H     H_    0.230002 0.273888 0.645098 0.253992
H30   H     H_    0.770178 0.772455 0.355104 0.253843
O11   O     O_R   0.942420 0.735670 0.056390 -0.577686
O12   O     O_R   0.057580 0.235670 0.943610 -0.577699
O13   O     O_R   0.061840 0.404850 0.068350 -0.596192
O14   O     O_R   0.938160 0.904850 0.931650 -0.596195
C61   C     C_R   0.081584 0.573595 0.084387 0.948912
C62   C     C_R   0.918415 0.073599 0.915615 0.948926
O15   O     O_R   0.943100 0.406010 0.064050 -0.577408
O16   O     O_R   0.056900 0.906010 0.935950 -0.577414
O17   O     O_R   0.938020 0.234710 0.939330 -0.590961
O18   O     O_R   0.061980 0.734710 0.060670 -0.590963
C63   C     C_R   0.924321 0.574481 0.078858 0.951061
C64   C     C_R   0.075678 0.074488 0.921142 0.951058
O19   O     O_3   0.998500 0.567790 0.959120 -0.284279
O20   O     O_3   0.001500 0.067790 0.040880 -0.284273
V3    V     V_3+5 0.000280 0.293330 0.007580 1.204632
V4    V     V_3+5 0.999720 0.793330 0.992420 1.204618
Cl1   Cl    Cl    0.285959 0.961171 0.887487 -0.496030
Cl2   Cl    Cl    0.713908 0.462523 0.112394 -0.496144
N1    N     N_R   0.244226 0.879662 0.641599 0.258364
O21   O     O_R   0.269779 0.743510 0.613379 -0.386587
O22   O     O_R   0.199326 0.959504 0.611925 -0.307703
N2    N     N_R   0.755497 0.378659 0.358155 0.258191
O23   O     O_R   0.729563 0.243214 0.386356 -0.386656
O24   O     O_R   0.800606 0.457278 0.387851 -0.307877
Cl3   Cl    Cl    0.126657 0.230367 0.696894 -0.539771
Cl4   Cl    Cl    0.873470 0.728841 0.303232 -0.539787
N3    N     N_R   0.265788 0.321543 0.868115 0.258260
O25   O     O_R   0.257804 0.317003 0.929609 -0.293173
O26   O     O_R   0.267699 0.482501 0.840213 -0.380430
N4    N     N_R   0.734440 0.822570 0.132065 0.258304
O27   O     O_R   0.742389 0.818354 0.070560 -0.293122
O28   O     O_R   0.732710 0.983356 0.160099 -0.381459
N5    N     N_R   0.359760 0.311801 0.792533 0.283174
O29   O     O_R   0.365572 0.438848 0.748989 -0.372166
O30   O     O_R   0.392569 0.320811 0.845758 -0.259516
N6    N     N_R   0.640490 0.813356 0.207679 0.283120
O31   O     O_R   0.634822 0.940059 0.251371 -0.372322
O32   O     O_R   0.607695 0.823233 0.154462 -0.259601

loop_
_geom_bond_atom_site_label_1
_geom_bond_atom_site_label_2
_geom_bond_distance
_ccdc_geom_bond_type
C26   C28   1.403877 A    
C44   C56   1.215603 T    
C46   C58   1.494919 S    
C42   H24   1.115193 S    
C61   O18   1.331817 A    
C41   H23   1.115240 S    
O1    C3    1.331260 A    
O2    C4    1.331268 A    
C3    C34   1.487312 S    
O16   V4    1.981663 S    
C2    O7    1.324477 A    
C49   C55   1.494834 S    
O15   V3    1.981718 S    
N5    O29   1.301514 A    
C27   C29   1.400059 A    
O5    C3    1.335230 A    
C18   H6    1.083642 S    
O14   C62   1.335838 A    
C11   C17   1.403836 A    
N2    O24   1.300772 A    
C23   C25   1.410867 A    
C48   C50   1.573833 S    
C45   C57   1.494876 S    
O12   V3    1.964507 S    
C50   C52   1.559906 S    
C37   C47   1.590519 S    
C59   C64   1.450904 S    
C40   H20   1.111040 S    
C28   H14   1.083642 S    
O20   V3    1.770467 S    
C33   C35   1.409418 A    
C5    C7    1.408642 A    
C51   H29   1.109637 S    
C51   C53   1.557672 S    
H17   C47   1.113865 S    
C32   H10   1.084204 S    
N4    O27   1.302133 A    
C19   C21   1.403574 A    
C39   H19   1.111039 S    
C25   C35   1.404915 A    
O16   C64   1.332986 A    
C51   H27   1.108994 S    
C26   C36   1.404913 A    
O15   C63   1.332975 A    
C8    C61   1.487286 S    
C45   C53   1.563493 S    
C7    C62   1.487280 S    
C28   C30   1.400060 A    
C48   N6    1.474753 S    
O6    V2    2.004015 S    
C38   Cl2   1.813610 S    
O14   V4    2.004092 S    
O13   V3    2.004133 S    
C32   C34   1.408604 A    
C36   H12   1.084178 S    
C38   N4    1.483018 S    
C49   C51   1.559989 S    
C27   H13   1.083652 S    
C34   C36   1.409424 A    
C5    C15   1.405992 A    
C6    C16   1.405997 A    
O4    C2    1.326998 A    
C5    H1    1.084217 S    
O5    V1    2.004056 S    
O11   C63   1.329938 A    
C35   H11   1.084175 S    
C53   H25   1.107839 S    
C39   C41   1.561426 S    
C20   C22   1.403561 A    
O4    V2    1.981400 S    
C18   C20   1.399998 A    
C37   N3    1.483022 S    
C38   C46   1.585041 S    
O13   C61   1.335838 A    
C15   C29   1.403596 A    
C37   C45   1.585047 S    
C41   N1    1.469693 S    
O6    C4    1.335229 A    
O19   V4    1.770527 S    
C37   Cl1   1.813573 S    
C22   C32   1.405936 A    
O1    V2    1.995102 S    
C52   H28   1.109014 S    
C1    C44   1.450963 S    
C58   C60   1.215476 T    
O2    V1    1.995127 S    
C31   C33   1.408601 A    
N1    O21   1.301267 A    
H18   C48   1.113867 S    
N6    O32   1.301357 A    
C13   C23   1.414627 A    
O12   C64   1.329935 A    
C14   C24   1.414631 A    
C47   C49   1.573814 S    
C52   C54   1.557710 S    
C39   C45   1.560957 S    
C9    C11   1.404817 A    
C10   C12   1.404818 A    
C60   C63   1.450871 S    
O11   V4    1.964479 S    
C13   C15   1.411805 A    
C29   H15   1.083536 S    
C42   C50   1.570474 S    
C30   H16   1.083534 S    
C9    H3    1.084177 S    
C41   C49   1.570512 S    
C6    H2    1.084213 S    
C10   H4    1.084178 S    
N3    O25   1.302139 A    
C53   Cl3   1.797167 S    
N5    O30   1.301349 A    
C7    C9    1.409379 A    
C43   C55   1.215587 T    
C47   N5    1.474729 S    
C12   C14   1.410855 A    
C8    C10   1.409383 A    
C4    C33   1.487310 S    
O3    C1    1.326982 A    
C52   H30   1.109659 S    
C40   H22   1.110288 S    
C14   C16   1.411809 A    
C46   C54   1.563495 S    
C62   O17   1.331825 A    
O17   V3    1.995112 S    
C40   C46   1.560960 S    
C24   C26   1.410864 A    
O7    V1    1.967755 S    
C1    O8    1.324475 A    
C17   C19   1.399996 A    
O8    V2    1.967723 S    
O18   V4    1.995085 S    
C2    C43   1.451025 S    
C57   C59   1.215461 T    
C17   H5    1.083655 S    
C16   C30   1.403585 A    
C21   C23   1.411796 A    
C22   C24   1.411801 A    
C54   H26   1.107853 S    
C6    C8    1.408644 A    
C11   C13   1.410861 A    
C12   C18   1.403840 A    
N1    O22   1.300823 A    
N6    O31   1.301531 A    
C31   H9    1.084209 S    
C38   C48   1.590550 S    
C42   N2    1.469666 S    
C25   C27   1.403871 A    
C39   H21   1.110464 S    
N4    O28   1.301630 A    
O9    V2    1.771020 S    
C40   C42   1.561474 S    
C54   Cl4   1.797190 S    
O10   V1    1.770960 S    
O3    V1    1.981454 S    
C50   C56   1.494880 S    
C19   H7    1.083528 S    
C21   C31   1.405933 A    
C20   H8    1.083529 S    
N2    O23   1.301340 A    
N3    O26   1.301690 A    
