data_mof_unit_58474.cif
_audit_creation_date              2012-12-11T15:29:26-0500
_audit_creation_method            fapswitch 2.2
_symmetry_space_group_name_H-M    P1
_symmetry_Int_Tables_number       1
_space_group_crystal_system       triclinic
_cell_length_a                    13.492522
_cell_length_b                    13.515371
_cell_length_c                    27.548818
_cell_angle_alpha                 90.683036
_cell_angle_beta                  90.123879
_cell_angle_gamma                 60.014538
_cell_volume                      4350.9418561

loop_
_atom_site_label
_atom_site_type_symbol
_atom_type_description
_atom_site_fract_x
_atom_site_fract_y
_atom_site_fract_z
_atom_type_partial_charge
C1    C     C_R   0.621086 0.101881 0.569435 0.543549
C2    C     C_1   0.632348 0.730159 0.615579 -0.020203
C3    C     C_3   0.647988 0.582637 0.767789 -0.099312
C4    C     C_3   0.682548 0.647999 0.803671 0.054914
C5    C     C_3   0.566881 0.696826 0.742613 -0.101141
C6    C     C_3   0.666217 0.678123 0.709320 0.052212
C7    C     C_3   0.601642 0.761645 0.779261 -0.109306
C8    C     C_3   0.700852 0.743378 0.745252 -0.105928
C9    C     C_1   0.690467 0.628689 0.855956 -0.058849
C10   C     C_1   0.651559 0.701276 0.657292 -0.064120
C11   C     C_3   0.055910 0.193666 0.734736 -0.107336
C12   C     C_R   0.599900 0.779128 0.568389 0.544546
C13   C     C_3   0.117248 0.093214 0.770583 -0.100718
C14   C     C_1   0.093791 0.201719 0.899626 -0.013388
C15   C     C_1   0.226826 0.139108 0.616529 -0.014882
C16   C     C_3   0.076813 0.271744 0.769863 -0.110551
C17   C     C_3   0.138730 0.171119 0.804801 0.044929
C18   C     C_3   0.192685 0.235133 0.744704 -0.076255
C19   C     C_3   0.171534 0.157216 0.710336 0.048326
C20   C     C_3   0.254033 0.134808 0.780358 -0.086473
C21   C     C_3   0.233309 0.056571 0.745296 -0.108860
C22   C     C_1   0.118518 0.183597 0.857235 -0.058141
C23   C     C_R   0.277479 0.121847 0.569270 0.545580
C24   C     C_1   0.196402 0.148889 0.658248 -0.058518
C25   C     C_3   0.652139 0.275035 0.737485 -0.140965
C26   C     C_3   0.566128 0.272202 0.774092 -0.066986
C27   C     C_1   0.692904 0.207760 0.900742 -0.011885
C28   C     C_1   0.639374 0.136590 0.616332 -0.013117
C29   C     C_3   0.753261 0.191506 0.769923 -0.121303
C30   C     C_3   0.667165 0.188266 0.805700 0.016529
C31   C     C_3   0.759798 0.087868 0.742137 -0.148731
C32   C     C_3   0.659092 0.171804 0.710278 0.052325
C33   C     C_3   0.674260 0.084362 0.778887 -0.104164
C34   C     C_R   0.621992 0.100081 0.431537 0.541981
C35   C     C_3   0.575202 0.168250 0.746453 0.322564
C36   C     C_1   0.677130 0.197858 0.858320 -0.053661
C37   C     C_1   0.650609 0.157002 0.657982 -0.040036
C38   C     C_R   0.639148 0.725007 0.382311 0.023176
C39   C     C_R   0.719365 0.742750 0.357194 -0.125859
C40   C     C_R   0.730783 0.727226 0.307432 -0.124653
C41   C     C_R   0.665499 0.689477 0.282177 0.034977
C42   C     C_R   0.594104 0.660251 0.307938 -0.114224
C43   C     C_R   0.579973 0.679173 0.357791 -0.122557
C44   C     C_R   0.572783 0.707324 0.202117 -0.124321
C45   C     C_R   0.601809 0.777225 0.430297 0.542644
C46   C     C_R   0.582034 0.683023 0.152702 -0.131529
C47   C     C_R   0.783595 0.624995 0.155496 -0.138980
C48   C     C_R   0.775243 0.645694 0.205051 -0.131016
C49   C     C_R   0.670908 0.682037 0.229074 0.035020
C50   C     C_R   0.689145 0.635200 0.129831 0.021694
C51   C     C_R   0.217013 0.142548 0.384987 -0.024219
C52   C     C_R   0.209313 0.054790 0.360582 -0.102211
C53   C     C_R   0.171747 0.068734 0.312527 0.276084
C54   C     C_R   0.145319 0.170276 0.288267 0.034197
C55   C     C_R   0.146313 0.260088 0.313856 -0.170381
C56   C     C_R   0.278568 0.120340 0.431039 0.546376
C57   C     C_R   0.180704 0.246821 0.361849 -0.145024
C58   C     C_R   0.028619 0.287339 0.219930 -0.141569
C59   C     C_R   0.009723 0.306803 0.170747 -0.116554
C60   C     C_R   0.169169 0.117697 0.152630 -0.141769
C61   C     C_R   0.190349 0.099012 0.202288 -0.078364
C62   C     C_R   0.119869 0.184085 0.236157 0.043853
C63   C     C_R   0.080200 0.222864 0.136954 0.038957
C64   C     C_R   0.641272 0.138444 0.384873 0.024602
C65   C     C_R   0.550205 0.233152 0.362430 -0.125234
C66   C     C_R   0.556494 0.252941 0.313529 -0.120726
C67   C     C_3   0.747196 0.564188 0.733708 -0.102586
C68   C     C_R   0.654557 0.179380 0.286543 0.037502
C69   C     C_R   0.749143 0.090428 0.309936 -0.127086
C70   C     C_R   0.742622 0.069980 0.358801 -0.132578
C71   C     C_R   0.710840 0.097015 0.203103 -0.118329
C72   C     C_R   0.723949 0.109898 0.153969 -0.123456
C73   C     C_R   0.620154 0.315906 0.164982 -0.126529
C74   C     C_R   0.609039 0.303004 0.214219 -0.123464
C75   C     C_R   0.657298 0.193399 0.233895 0.033513
C76   C     C_R   0.681706 0.219337 0.134992 0.025485
C77   C     C_R   0.049280 0.235085 0.947845 0.545015
C78   C     C_3   0.782073 0.629047 0.770499 -0.097497
C79   C     C_R   0.712106 0.561415 0.946346 0.545683
C80   C     C_R   0.722772 0.224253 0.948946 0.544328
C81   C     C_R   0.047029 0.244435 0.086426 0.535199
C82   C     C_R   0.708654 0.573423 0.083912 0.536420
C83   C     C_R   0.719679 0.233471 0.087399 0.540261
C84   C     C_1   0.698411 0.604628 0.898214 -0.015158
Cr1   Cr    Cr6+3 0.417550 0.169090 0.500530 1.024695
Cr2   Cr    Cr6+3 0.669180 0.913420 0.499920 1.018352
Cr3   Cr    Cr6+3 0.413260 0.917540 0.499520 1.022214
Cr4   Cr    Cr6+3 0.909770 0.175810 0.018240 1.028526
Cr5   Cr    Cr6+3 0.913300 0.427650 0.016090 1.021370
Cr6   Cr    Cr6+3 0.657770 0.431010 0.016900 1.022283
H1    H     H_    0.870539 0.601332 0.782697 0.103155
H2    H     H_    0.334842 0.110733 0.799911 0.128713
H3    H     H_    0.223529 0.293768 0.733502 0.148156
H4    H     H_    0.012239 0.360477 0.780603 0.105508
H5    H     H_    0.485589 0.346681 0.787609 0.112354
H6    H     H_    0.644107 0.352455 0.720184 0.106532
H7    H     H_    0.682673 0.006831 0.796251 0.095319
H8    H     H_    0.839836 0.012971 0.728490 0.110568
H9    H     H_    0.827722 0.200909 0.780329 0.116804
H10   H     H_    0.766340 0.778285 0.375128 0.134363
H11   H     H_    0.806779 0.483146 0.714539 0.101361
H12   H     H_    0.490129 0.740623 0.219565 0.116492
H13   H     H_    0.507375 0.694092 0.133241 0.127329
H14   H     H_    0.786072 0.750932 0.288630 0.099858
H15   H     H_    0.852360 0.625793 0.224775 0.098792
H16   H     H_    0.866893 0.590123 0.138451 0.129154
H17   H     H_    0.546281 0.626521 0.289382 0.105184
H18   H     H_    0.518506 0.663943 0.376587 0.127420
H19   H     H_    0.236722 0.973638 0.377901 0.142799
H20   H     H_    0.972053 0.353215 0.245363 0.110551
H21   H     H_    0.937475 0.386340 0.158965 0.125254
H22   H     H_    0.723298 0.809183 0.735351 0.094399
H23   H     H_    0.262470 0.019364 0.214148 0.152802
H24   H     H_    0.222211 0.051387 0.126660 0.104521
H25   H     H_    0.125738 0.339064 0.296010 0.114866
H26   H     H_    0.185332 0.316109 0.379825 0.141026
H27   H     H_    0.470904 0.287571 0.381670 0.129211
H28   H     H_    0.745513 0.011618 0.217243 0.106335
H29   H     H_    0.771340 0.034491 0.131271 0.125187
H30   H     H_    0.482280 0.322067 0.296368 0.103649
H31   H     H_    0.567959 0.378665 0.237182 0.102743
H32   H     H_    0.541794 0.841721 0.798941 0.095291
H33   H     H_    0.588192 0.401321 0.151234 0.134981
H34   H     H_    0.826761 0.034339 0.290067 0.085742
H35   H     H_    0.814367 0.996867 0.375319 0.121333
H36   H     H_    0.478304 0.724641 0.730529 0.103321
H37   H     H_    0.626059 0.516564 0.777882 0.105435
H38   H     H_    0.086227 0.034807 0.781913 0.106821
H39   H     H_    0.974626 0.218028 0.715504 0.102292
H40   H     H_    0.298007 0.967858 0.734590 0.097039
O1    O     O_R   0.301780 0.195490 0.553940 -0.502438
O2    O     O_R   0.658840 0.818280 0.449970 -0.506731
O3    O     O_R   0.503160 0.801780 0.445740 -0.516812
O4    O     O_R   0.319320 0.022190 0.450230 -0.503722
O5    O     O_3   0.499990 0.000010 0.499990 -0.244842
O6    O     O_R   0.819250 0.149410 0.965240 -0.507400
O7    O     O_R   0.006940 0.180310 0.968270 -0.495767
O8    O     O_R   0.028420 0.332670 0.963010 -0.505347
O9    O     O_R   0.810130 0.520390 0.966030 -0.494238
O10   O     O_R   0.636050 0.541380 0.962520 -0.506722
O11   O     O_R   0.666480 0.323610 0.968170 -0.493621
O12   O     O_R   0.522450 0.158840 0.550250 -0.489652
O13   O     O_R   0.817280 0.156800 0.072180 -0.512627
O14   O     O_R   0.005110 0.187160 0.067410 -0.493709
O15   O     O_R   0.026450 0.340060 0.069950 -0.518415
O16   O     O_R   0.808300 0.527240 0.065170 -0.508714
O17   O     O_R   0.634070 0.548770 0.069460 -0.521712
O18   O     O_R   0.664650 0.330470 0.067300 -0.504621
O19   O     O_3   0.826940 0.344820 0.017080 -0.248361
O20   O     O_R   0.694460 0.003360 0.553820 -0.510559
O21   O     O_R   0.657750 0.819520 0.549120 -0.494771
O22   O     O_R   0.501990 0.803120 0.552700 -0.507593
O23   O     O_R   0.318230 0.023430 0.549370 -0.496862
O24   O     O_R   0.302950 0.194150 0.446980 -0.519219
O25   O     O_R   0.523540 0.157600 0.451100 -0.505000
O26   O     O_R   0.695630 0.002030 0.446860 -0.523219
O27   O     O_3   0.476852 0.163388 0.732712 -0.578178
C85   C     C_3   0.508072 0.050613 0.719133 -0.128806
H41   H     H_    0.582656 0.010861 0.693927 0.118531
H42   H     H_    0.435290 0.051825 0.699896 0.149803
H43   H     H_    0.526018 0.997610 0.751905 0.103397
O28   O     O_3   0.169273 0.979518 0.288695 -0.583002
C86   C     C_3   0.057483 0.996943 0.292244 -0.129491
H44   H     H_    0.994326 0.077168 0.274077 0.131236
H45   H     H_    0.032331 0.997778 0.330791 0.111081
H46   H     H_    0.055164 0.925079 0.273464 0.136261

loop_
_geom_bond_atom_site_label_1
_geom_bond_atom_site_label_2
_ccdc_geom_bond_type
C44   C49   A    
C58   C62   A    
C66   C68   A    
O27   C85   S    
C41   C42   A    
C12   O22   A    
C60   H24   S    
C86   H44   S    
Cr3   O4    S    
C72   C76   A    
C2    C12   S    
C82   O17   A    
C7    C8    S    
C34   O25   A    
C68   C75   S    
Cr5   O15   S    
C20   H2    S    
C11   C19   S    
Cr6   O17   S    
C63   C81   S    
C60   C63   A    
C28   C37   T    
C86   H45   S    
C77   O7    A    
C18   C19   S    
Cr2   O20   S    
Cr1   O25   S    
C79   C84   S    
C3    H37   S    
C53   O28   S    
C31   H8    S    
C17   C20   S    
C51   C56   S    
C73   C74   A    
C14   C77   S    
Cr2   O26   S    
C38   C45   S    
Cr6   O18   S    
C1    O12   A    
C85   H43   S    
C13   H38   S    
Cr3   O3    S    
C85   H42   S    
C81   O14   A    
C48   H15   S    
C16   C17   S    
Cr5   O9    S    
C5    H36   S    
C1    C28   S    
C59   H21   S    
Cr3   O23   S    
C51   C57   A    
C64   C70   A    
C47   C50   A    
C42   H17   S    
Cr4   O13   S    
C18   C20   S    
C30   C33   S    
Cr1   O24   S    
C25   C32   S    
Cr5   O19   S    
C79   O10   A    
C66   H30   S    
C8    C78   S    
C12   O21   A    
C61   C62   A    
C67   C78   S    
Cr6   O19   S    
C11   H39   S    
C76   C83   S    
C41   C49   S    
C82   O16   A    
C44   C46   A    
C57   H26   S    
C25   C29   S    
Cr5   O16   S    
C21   H40   S    
C71   C75   A    
C74   C75   A    
C29   H9    S    
C13   C21   S    
C51   C52   A    
C32   C35   S    
Cr3   O5    S    
C86   H46   S    
C38   C39   A    
C77   O8    A    
Cr4   O6    S    
C56   O24   A    
C79   O9    A    
C39   C40   A    
C5    C7    S    
C44   H12   S    
C68   C69   A    
C6    C8    S    
C54   C62   S    
C69   H34   S    
C4    C7    S    
C58   C59   A    
C53   C54   A    
Cr4   O19   S    
C83   O18   A    
C60   C61   A    
C35   O27   S    
C4    C78   S    
C29   C30   S    
C40   H14   S    
C11   C16   S    
C26   C35   S    
Cr6   O10   S    
C47   C48   A    
C47   H16   S    
C34   C64   S    
C23   O1    A    
C1    O20   A    
C32   C37   S    
Cr1   O5    S    
C70   H35   S    
C40   C41   A    
C27   C80   S    
C81   O15   A    
Cr3   O22   S    
C55   C57   A    
C61   H23   S    
C85   H41   S    
C27   C36   T    
C73   C76   A    
C59   C63   A    
C42   C43   A    
C7    H32   S    
C3    C4    S    
C2    C10   T    
C45   O2    A    
C52   C53   A    
C67   H11   S    
O28   C86   S    
C26   H5    S    
C54   C55   A    
C15   C24   T    
C31   C33   S    
C71   H28   S    
C19   C21   S    
C58   H20   S    
C16   H4    S    
C31   C32   S    
C3    C67   S    
C3    C5    S    
Cr1   O12   S    
C6    C10   S    
C56   O4    A    
C26   C30   S    
C34   O26   A    
C78   H1    S    
C46   H13   S    
C46   C50   A    
C45   O3    A    
C17   C22   S    
C80   O6    A    
C30   C36   S    
C50   C82   S    
C14   C22   T    
C23   O23   A    
C19   C24   S    
C25   C26   S    
C38   C43   A    
C29   C31   S    
C6    C67   S    
Cr2   O21   S    
C64   C65   A    
C83   O13   A    
C11   C13   S    
Cr2   O2    S    
C39   H10   S    
C5    C6    S    
C55   H25   S    
C52   H19   S    
C48   C49   A    
C72   H29   S    
C15   C23   S    
C33   C35   S    
C8    H22   S    
Cr4   O14   S    
C33   H7    S    
C43   H18   S    
C65   C66   A    
C69   C70   A    
Cr4   O7    S    
Cr6   O11   S    
C9    C84   T    
C13   C17   S    
Cr2   O5    S    
C71   C72   A    
C74   H31   S    
C20   C21   S    
C25   H6    S    
C16   C18   S    
Cr5   O8    S    
C18   H3    S    
C65   H27   S    
C4    C9    S    
C80   O11   A    
Cr1   O1    S    
C73   H33   S    
