data_mof_unit_35970.cif
_audit_creation_date              2012-12-10T17:32:23-0500
_audit_creation_method            fapswitch 2.2
_symmetry_space_group_name_H-M    P1
_symmetry_Int_Tables_number       1
_space_group_crystal_system       triclinic
_cell_length_a                    15.499158
_cell_length_b                    15.506424
_cell_length_c                    15.509268
_cell_angle_alpha                 91.381417
_cell_angle_beta                  71.990939
_cell_angle_gamma                 111.642675
_cell_volume                      3277.83297939

loop_
_atom_site_label
_atom_site_type_symbol
_atom_type_description
_atom_site_fract_x
_atom_site_fract_y
_atom_site_fract_z
_atom_type_partial_charge
C1    C     C_R   0.461079 0.258106 0.463497 0.549642
C2    C     C_R   0.532013 0.506179 0.111765 -0.117670
C3    C     C_R   0.608926 0.669522 0.129771 -0.120146
C4    C     C_R   0.534733 0.741382 0.536296 0.488171
C5    C     C_R   0.432085 0.423333 0.838355 0.041524
C6    C     C_R   0.315063 0.005632 0.471763 -0.099368
C7    C     C_R   0.439421 0.159540 0.453759 0.021122
C8    C     C_R   0.642633 0.894349 0.563302 -0.185018
C9    C     C_R   0.673609 0.990268 0.559952 -0.130159
C10   C     C_R   0.623219 0.037652 0.532764 0.266348
C11   C     C_R   0.531899 0.985199 0.517474 0.052296
C12   C     C_R   0.408654 0.299262 0.945337 -0.144670
C13   C     C_R   0.495753 0.885683 0.531959 -0.011199
C14   C     C_R   0.472941 0.025750 0.491025 0.025134
C15   C     C_R   0.376688 0.967611 0.491708 -0.019023
C16   C     C_R   0.756538 0.551355 0.463138 0.527830
C17   C     C_R   0.340688 0.872209 0.515212 -0.139886
C18   C     C_R   0.398828 0.831977 0.535325 -0.111062
C19   C     C_R   0.504383 0.121659 0.464663 -0.176126
C20   C     C_R   0.345085 0.101399 0.455811 0.377170
C21   C     C_R   0.555929 0.841341 0.546199 0.000943
C22   C     C_R   0.019025 0.610462 0.327276 0.247669
C23   C     C_R   0.449556 0.364561 0.998846 -0.121069
C24   C     C_R   0.860882 0.572238 0.443227 -0.020386
C25   C     C_R   0.068078 0.375566 0.636058 0.414544
C26   C     C_R   0.969481 0.363934 0.661277 0.273933
C27   C     C_R   0.940547 0.410931 0.605428 -0.177135
C28   C     C_R   0.242556 0.448360 0.535284 0.526790
C29   C     C_R   0.008830 0.470507 0.526941 -0.017284
C30   C     C_R   0.104559 0.469521 0.495909 -0.050949
C31   C     C_R   0.982522 0.524772 0.473980 -0.000710
C32   C     C_R   0.046661 0.563311 0.384151 0.000022
C33   C     C_R   0.135349 0.550782 0.350718 -0.125688
C34   C     C_R   0.477942 0.461310 0.976388 -0.015632
C35   C     C_R   0.163974 0.505238 0.405493 -0.115399
C36   C     C_R   0.894213 0.541499 0.506039 0.212585
C37   C     C_R   0.923615 0.607511 0.354742 -0.158361
C38   C     C_R   0.136765 0.428694 0.554381 -0.025032
C39   C     C_R   0.551994 0.552034 0.258959 0.495386
C40   C     C_R   0.448415 0.449797 0.742457 0.554272
C41   C     C_R   0.601340 0.694387 0.047882 -0.129188
C42   C     C_R   0.571660 0.575649 0.162936 0.036386
C43   C     C_R   0.401007 0.328179 0.865210 -0.135618
C44   C     C_3   0.750271 0.174896 0.464423 -0.017022
C45   C     C_R   0.463070 0.490748 0.897550 0.038279
C46   C     C_3   0.777407 0.280071 0.449362 -0.255252
C47   C     C_3   0.875862 0.326184 0.374443 -0.459398
C48   C     C_3   0.149660 0.738480 0.244669 0.003313
C49   C     C_3   0.108540 0.814494 0.244507 -0.273834
C50   C     C_3   0.185287 0.911095 0.243033 -0.466836
C51   C     C_3   0.873886 0.612620 0.635911 0.024090
C52   C     C_3   0.827724 0.597322 0.739636 -0.256414
C53   C     C_3   0.715958 0.560780 0.769778 -0.369847
C54   C     C_3   0.816277 0.316590 0.777495 0.006795
C55   C     C_3   0.764709 0.267189 0.874080 -0.243469
C56   C     C_R   0.521863 0.529603 0.028988 0.010363
C57   C     C_3   0.668293 0.280638 0.918186 -0.487323
C58   C     C_3   0.425320 0.693868 0.829066 0.012263
C59   C     C_3   0.355198 0.695421 0.778726 -0.248290
C60   C     C_3   0.343726 0.789119 0.780429 -0.484535
C61   C     C_R   0.554135 0.625520 0.999478 0.001976
C62   C     C_R   0.532848 0.652641 0.926152 -0.144373
C63   C     C_R   0.478829 0.585951 0.880088 0.267324
F1    F     F_    0.096490 0.334496 0.692761 -0.571675
F2    F     F_    0.281105 0.137800 0.445409 -0.625588
H1    H     H_    0.638382 0.723687 0.170142 0.111636
H2    H     H_    0.555267 0.726395 0.907796 0.086863
H3    H     H_    0.863805 0.395686 0.619967 0.162868
H4    H     H_    0.231255 0.494355 0.373817 0.154312
H5    H     H_    0.626842 0.767775 0.025384 0.108372
H6    H     H_    0.501878 0.435387 0.142588 0.104732
H7    H     H_    0.376279 0.275930 0.821250 0.142591
H8    H     H_    0.459104 0.336661 0.056564 0.112527
H9    H     H_    0.387277 0.225665 0.963833 0.122124
H10   H     H_    0.748453 0.144915 0.398516 0.128191
H11   H     H_    0.808467 0.164092 0.485064 0.144783
H12   H     H_    0.266519 0.828122 0.518582 0.104661
H13   H     H_    0.720611 0.293957 0.429246 0.179156
H14   H     H_    0.781292 0.311841 0.513685 0.178091
H15   H     H_    0.936055 0.321991 0.396468 0.160072
H16   H     H_    0.889579 0.400471 0.359482 0.170702
H17   H     H_    0.875367 0.291865 0.310806 0.152261
H18   H     H_    0.215115 0.753496 0.183019 0.151911
H19   H     H_    0.176000 0.741134 0.304419 0.119740
H20   H     H_    0.084637 0.812448 0.183644 0.176018
H21   H     H_    0.043961 0.801802 0.306515 0.155367
H22   H     H_    0.209012 0.915037 0.304184 0.157287
H23   H     H_    0.241651 0.961443 0.473078 0.125305
H24   H     H_    0.153385 0.964542 0.243177 0.164384
H25   H     H_    0.250097 0.926645 0.180694 0.145968
H26   H     H_    0.854458 0.666447 0.609028 0.147018
H27   H     H_    0.955093 0.639756 0.620324 0.108437
H28   H     H_    0.850835 0.547462 0.767564 0.151268
H29   H     H_    0.855158 0.664649 0.768301 0.115070
H30   H     H_    0.691777 0.611001 0.743780 0.178062
H31   H     H_    0.686470 0.552122 0.845335 0.124411
H32   H     H_    0.685848 0.491957 0.744644 0.189700
H33   H     H_    0.767216 0.285482 0.736124 0.140168
H34   H     H_    0.577019 0.170173 0.454943 0.175955
H35   H     H_    0.829529 0.391873 0.781758 0.129413
H36   H     H_    0.749419 0.191407 0.871915 0.179437
H37   H     H_    0.813373 0.295680 0.916202 0.186721
H38   H     H_    0.682001 0.355946 0.922438 0.153816
H39   H     H_    0.632493 0.244148 0.988204 0.150096
H40   H     H_    0.617747 0.251284 0.878007 0.154486
H41   H     H_    0.496441 0.753400 0.798738 0.139768
H42   H     H_    0.391824 0.700792 0.902355 0.126621
H43   H     H_    0.383370 0.682022 0.706800 0.174086
H44   H     H_    0.282206 0.639143 0.811186 0.176536
H45   H     H_    0.688062 0.861656 0.578066 0.143896
H46   H     H_    0.314449 0.803537 0.851810 0.150799
H47   H     H_    0.291783 0.787555 0.744049 0.152235
H48   H     H_    0.415538 0.846073 0.745950 0.159709
H49   H     H_    0.739150 0.028486 0.577210 0.129097
H50   H     H_    0.364793 0.758147 0.557297 0.142278
H51   H     H_    0.898323 0.633056 0.306698 0.138194
H52   H     H_    0.183196 0.575638 0.281288 0.153227
O1    O     O_3   0.500000 0.500000 0.500000 -0.452283
O2    O     O_R   0.588830 0.499590 0.285390 -0.541120
O3    O     O_R   0.395900 0.395880 0.699370 -0.538638
O4    O     O_R   0.493280 0.582590 0.315890 -0.541730
O5    O     O_R   0.521980 0.521940 0.699340 -0.511887
O6    O     O_3   0.657893 0.133771 0.533369 -0.588207
O7    O     O_3   0.080171 0.649710 0.240151 -0.567311
O8    O     O_3   0.839981 0.527979 0.597537 -0.578466
O9    O     O_3   0.905560 0.303506 0.739486 -0.513250
O10   O     O_3   0.440280 0.609201 0.817626 -0.552269
O11   O     O_R   0.708210 0.582550 0.530770 -0.530094
O12   O     O_R   0.270260 0.395900 0.573760 -0.451390
O13   O     O_R   0.537060 0.322180 0.411040 -0.558322
O14   O     O_R   0.484470 0.699370 0.484430 -0.548735
O15   O     O_R   0.404710 0.279110 0.530840 -0.497545
O16   O     O_R   0.573760 0.699350 0.573690 -0.543265
O17   O     O_R   0.714470 0.499570 0.411000 -0.554137
O18   O     O_R   0.307050 0.521980 0.484470 -0.568441
Zn1   Zn    Zn3+2 0.574690 0.574670 0.574650 0.938855
Zn2   Zn    Zn3+2 0.583640 0.456100 0.403530 0.931126
Zn3   Zn    Zn3+2 0.447120 0.574690 0.447120 0.922308
Zn4   Zn    Zn3+2 0.394550 0.394550 0.574700 1.028837

loop_
_geom_bond_atom_site_label_1
_geom_bond_atom_site_label_2
_ccdc_geom_bond_type
O18   Zn3   S    
C57   H40   S    
C3    C42   A    
C34   C56   A    
C43   H7    S    
C12   H9    S    
C53   H30   S    
C28   O18   A    
C7    C20   A    
C36   O8    S    
C41   C61   A    
C1    O15   A    
C16   O17   A    
O17   Zn2   S    
C37   H51   S    
O15   Zn4   S    
C33   H52   S    
C54   O9    S    
C12   C23   A    
C26   C27   A    
C29   C30   A    
C22   C32   A    
C13   C18   A    
C9    H49   S    
C28   O12   A    
C12   C43   A    
O11   Zn1   S    
C46   H14   S    
C51   H27   S    
C11   C14   A    
C27   C29   A    
C6    H23   S    
C30   C38   A    
C58   H42   S    
C26   O9    S    
C47   H17   S    
C44   H11   S    
C27   H3    S    
C51   H26   S    
C6    C15   A    
C46   C47   S    
C50   H25   S    
C8    C9    A    
C41   H5    S    
O16   Zn1   S    
C52   H29   S    
C39   C42   S    
O1    Zn2   S    
C9    C10   A    
C31   C36   A    
C5    C43   A    
C59   C60   S    
C16   C24   S    
C53   H31   S    
C54   H35   S    
C60   H48   S    
C47   H15   S    
C23   H8    S    
C59   H44   S    
C49   H21   S    
C44   C46   S    
C8    C21   A    
C4    O14   A    
C57   H38   S    
C55   H37   S    
C51   C52   S    
O2    Zn2   S    
C49   H20   S    
C20   F2    S    
C24   C37   A    
C10   O6    S    
C46   H13   S    
C19   H34   S    
C53   H32   S    
C58   C59   S    
C22   C37   A    
C5    C45   A    
C45   C63   A    
C48   H19   S    
C58   H41   S    
C25   F1    S    
C51   O8    S    
O4    Zn3   S    
C44   H10   S    
C62   C63   A    
C60   H47   S    
C8    H45   S    
C25   C38   A    
C50   H24   S    
C31   C32   A    
O12   Zn4   S    
C28   C38   S    
C23   C34   A    
C17   H12   S    
C17   C18   A    
C13   C21   A    
C52   H28   S    
C56   C61   A    
O3    Zn4   S    
C24   C36   A    
C16   O11   A    
O5    Zn1   S    
C34   C45   A    
C50   H22   S    
C62   H2    S    
C48   C49   S    
C40   O3    A    
C1    O13   A    
C7    C19   A    
C55   C57   S    
C3    H1    S    
C2    H6    S    
O1    Zn1   S    
C52   C53   S    
C15   C17   A    
C57   H39   S    
C54   C55   S    
C3    C41   A    
C1    C7    S    
C14   C19   A    
C18   H50   S    
C48   O7    S    
C22   O7    S    
C30   C35   A    
C55   H36   S    
C44   O6    S    
C59   H43   S    
C39   O4    A    
C48   H18   S    
C32   C33   A    
C25   C26   A    
C29   C31   A    
O14   Zn3   S    
C2    C56   A    
C4    C21   S    
C11   C13   A    
C40   O5    A    
C6    C20   A    
C2    C42   A    
C39   O2    A    
C33   C35   A    
C47   H16   S    
C61   C62   A    
C10   C11   A    
C58   O10   S    
C35   H4    S    
C49   C50   S    
C5    C40   S    
C60   H46   S    
C14   C15   A    
C54   H33   S    
O1    Zn3   S    
O13   Zn2   S    
C63   O10   S    
O1    Zn4   S    
C4    O16   A    
