data_mof_unit_20041.cif
_audit_creation_date              2012-12-10T17:51:29-0500
_audit_creation_method            fapswitch 2.2
_symmetry_space_group_name_H-M    P1
_symmetry_Int_Tables_number       1
_space_group_crystal_system       triclinic
_cell_length_a                    9.966963
_cell_length_b                    10.642773
_cell_length_c                    16.784546
_cell_angle_alpha                 93.769737
_cell_angle_beta                  86.391073
_cell_angle_gamma                 93.085393
_cell_volume                      1770.85604915

loop_
_atom_site_label
_atom_site_type_symbol
_atom_type_description
_atom_site_fract_x
_atom_site_fract_y
_atom_site_fract_z
_atom_type_partial_charge
C1    C     C_R   0.504527 0.738551 0.490170 0.947232
C2    C     C_R   0.354989 0.559984 0.779174 -0.176406
C3    C     C_R   0.437859 0.651739 0.161597 -0.175637
C4    C     C_R   0.423172 0.603002 0.236169 -0.173106
C5    C     C_R   0.652138 0.533858 0.220130 -0.132083
C6    C     C_R   0.665385 0.579358 0.144201 -0.164443
C7    C     C_R   0.557001 0.635482 0.114010 0.049069
C8    C     C_2   0.455029 0.590144 0.989520 -0.278110
C9    C     C_2   0.557246 0.648589 0.027738 0.403107
C10   C     C_R   0.529634 0.542669 0.265586 -0.043692
C11   C     C_R   0.299383 0.859776 0.407906 -0.108069
C12   C     C_R   0.482005 0.499828 0.652840 0.868640
C13   C     C_R   0.175502 0.909902 0.397179 0.033230
C14   C     C_R   0.145104 0.024708 0.437197 -0.212710
C15   C     C_R   0.241809 0.093384 0.481008 -0.158931
C16   C     C_R   0.373456 0.050481 0.483613 0.110451
C17   C     C_R   0.395224 0.926516 0.455313 0.015863
C18   C     C_R   0.513050 0.871542 0.474448 -0.168414
C19   C     C_R   0.623701 0.946862 0.500805 0.052831
C20   C     C_R   0.600001 0.067261 0.534898 -0.113442
C21   C     C_R   0.483291 0.124331 0.515202 -0.233970
C22   C     C_R   0.872620 0.702785 0.588214 0.028498
C23   C     C_R   0.494833 0.259823 0.506461 0.866406
C24   C     C_R   0.955153 0.808424 0.610895 -0.202921
C25   C     C_R   0.090932 0.796829 0.616080 -0.236296
C26   C     C_R   0.146364 0.684066 0.591306 -0.130016
C27   C     C_R   0.074470 0.591221 0.545704 0.158408
C28   C     C_R   0.930548 0.595162 0.544981 0.067079
C29   C     C_R   0.927088 0.414903 0.454419 -0.042692
C30   C     C_R   0.070306 0.416973 0.451697 0.013653
C31   C     C_R   0.517926 0.505277 0.347501 0.842403
C32   C     C_R   0.471143 0.511335 0.739544 -0.017190
C33   C     C_R   0.579134 0.481885 0.783102 -0.256383
C34   C     C_R   0.574568 0.508494 0.865076 -0.051975
C35   C     C_R   0.461557 0.563783 0.903671 0.237427
C36   C     C_R   0.350003 0.585205 0.861302 -0.178165
H1    H     H_    0.667464 0.440205 0.753735 0.144950
H2    H     H_    0.757070 0.564190 0.107436 0.148430
H3    H     H_    0.322411 0.769712 0.378038 0.167229
H4    H     H_    0.046831 0.062096 0.434038 0.153830
H5    H     H_    0.209135 0.176883 0.514966 0.168306
H6    H     H_    0.871205 0.346216 0.417363 0.178773
H7    H     H_    0.912653 0.891487 0.640962 0.229432
H8    H     H_    0.328583 0.613000 0.270715 0.197283
H9    H     H_    0.151197 0.871760 0.645404 0.176739
H10   H     H_    0.246108 0.673373 0.608113 0.209777
H11   H     H_    0.736386 0.489704 0.242590 0.171701
H12   H     H_    0.260910 0.624372 0.891488 0.141570
H13   H     H_    0.353412 0.695336 0.138912 0.149880
H14   H     H_    0.269756 0.582182 0.746629 0.149950
H15   H     H_    0.367043 0.550547 0.022484 0.121569
H16   H     H_    0.658646 0.485565 0.898401 0.157903
N1    N     N_R   0.857140 0.501200 0.500750 -0.137267
N2    N     N_R   0.142740 0.501280 0.500770 -0.165163
O1    O     O_R   0.385310 0.683220 0.500000 -0.649559
O2    O     O_R   0.614640 0.683250 0.500010 -0.541328
O3    O     O_R   0.371780 0.500010 0.615800 -0.644652
O4    O     O_R   0.601110 0.500030 0.615800 -0.651941
O5    O     O_R   0.385360 0.316750 0.499990 -0.652329
O6    O     O_R   0.614690 0.316780 0.500000 -0.634652
O7    O     O_R   0.398890 0.499970 0.384200 -0.649377
O8    O     O_R   0.628220 0.499990 0.384200 -0.590750
Zn1   Zn    Zn3+2 0.346870 0.499980 0.499990 0.922349
Zn2   Zn    Zn3+2 0.653130 0.500020 0.500010 0.985075
C37   C     C_2   0.763938 0.912157 0.477021 0.440451
H17   H     H_    0.849338 0.965121 0.501068 0.097863
O9    O     O_2   0.786444 0.829217 0.424900 -0.583535
C38   C     C_2   0.076948 0.843065 0.345288 0.445415
H18   H     H_    0.989244 0.890485 0.330098 0.113766
O10   O     O_2   0.092560 0.735002 0.318535 -0.583418
C39   C     C_2   0.688392 0.131566 0.595667 0.413124
H19   H     H_    0.667032 0.224830 0.621748 0.089002
O11   O     O_2   0.779859 0.078664 0.622138 -0.613624
C40   C     C_2   0.755778 0.694365 0.644694 0.502370
H20   H     H_    0.753991 0.624656 0.688830 0.050959
O12   O     O_2   0.671374 0.774084 0.650125 -0.571111
C41   C     C_2   0.139727 0.331033 0.391741 0.380137
H21   H     H_    0.246534 0.321717 0.390594 0.150949
O13   O     O_2   0.077341 0.269005 0.341144 -0.606476
O14   O     O_3   0.666879 0.702063 0.985325 -0.758295
H22   H     H_    0.728921 0.742660 0.024346 0.335051

loop_
_geom_bond_atom_site_label_1
_geom_bond_atom_site_label_2
_ccdc_geom_bond_type
C16   C21   A    
C29   H6    S    
C31   O7    A    
C35   C36   A    
C3    H13   S    
C27   N2    A    
C41   H21   S    
C23   O5    A    
C30   N2    A    
C26   C27   A    
C40   O12   D    
C1    O2    A    
C18   C19   A    
C3    C7    A    
C5    C6    A    
N1    Zn2   S    
N2    Zn1   S    
C15   C16   A    
C2    C32   A    
C34   C35   A    
O7    Zn1   S    
O8    Zn2   S    
C2    H14   S    
C38   H18   S    
C30   C41   S    
C10   C31   S    
C19   C20   A    
C16   C17   A    
C37   O9    D    
O1    Zn1   S    
O2    Zn2   S    
C20   C39   S    
C36   H12   S    
C12   O4    A    
C22   C28   A    
C13   C14   A    
C12   C32   S    
C31   O8    A    
C33   C34   A    
C41   O13   D    
O4    Zn2   S    
C23   O6    A    
C40   H20   S    
C24   C25   A    
C15   H5    S    
C39   O11   D    
C8    C9    D    
C4    H8    S    
C25   C26   A    
C33   H1    S    
C8    C35   S    
C29   C30   A    
C5    H11   S    
C6    H2    S    
C17   C18   A    
C1    C18   S    
C11   H3    S    
C8    H15   S    
C12   O3    A    
C21   C23   S    
C22   C24   A    
C22   C40   S    
C4    C10   A    
C3    C4    A    
C25   H9    S    
C2    C36   A    
C7    C9    S    
C11   C17   A    
C34   H16   S    
O3    Zn1   S    
O14   H22   S    
C28   N1    A    
C6    C7    A    
O5    Zn1   S    
O6    Zn2   S    
C32   C33   A    
C1    O1    A    
C39   H19   S    
C11   C13   A    
C29   N1    A    
C19   C37   S    
C26   H10   S    
C14   H4    S    
C5    C10   A    
C20   C21   A    
C38   O10   D    
C37   H17   S    
C27   C28   A    
C24   H7    S    
C14   C15   A    
C9    O14   S    
C13   C38   S    
