data_mof_unit_20914.cif
_audit_creation_date              2012-10-26T20:33:17-0400
_audit_creation_method            fapswitch 2.2
_symmetry_space_group_name_H-M    P1
_symmetry_Int_Tables_number       1
_space_group_crystal_system       triclinic
_cell_length_a                    17.727639
_cell_length_b                    10.818018
_cell_length_c                    9.55568
_cell_angle_alpha                 90.403272
_cell_angle_beta                  90.317346
_cell_angle_gamma                 90.598109
_cell_volume                      1832.39431323

loop_
_atom_site_label
_atom_site_type_symbol
_atom_type_description
_atom_site_fract_x
_atom_site_fract_y
_atom_site_fract_z
_atom_type_partial_charge
C1    C     C_R   0.501530 0.262367 0.499638 0.567770
C2    C     C_R   0.113986 0.500933 0.489850 0.010261
C3    C     C_R   0.514932 0.064837 0.624499 0.021270
C4    C     C_R   0.355515 0.503751 0.500006 0.559693
C5    C     C_R   0.509785 0.129481 0.498912 0.029932
C6    C     C_R   0.516294 0.063854 0.372166 -0.133223
C7    C     C_R   0.516320 0.934991 0.372563 -0.146923
C8    C     C_R   0.509803 0.870954 0.499746 0.011560
C9    C     C_R   0.514900 0.937672 0.624970 0.013826
C10   C     C_3   0.467468 0.931689 0.753493 -0.255175
C11   C     C_3   0.467883 0.072081 0.753371 -0.251722
C12   C     C_R   0.885137 0.492511 0.497254 -0.006564
C13   C     C_R   0.533442 0.594605 0.074732 0.145780
C14   C     C_R   0.459838 0.412825 0.071091 0.115467
C15   C     C_R   0.460732 0.413803 0.922425 0.045142
C16   C     C_R   0.501664 0.737708 0.500233 0.561160
C17   C     C_R   0.533172 0.594816 0.927587 0.143369
C18   C     C_3   0.613803 0.634722 0.922196 -0.264939
C19   C     C_3   0.614339 0.633374 0.081095 -0.270474
C20   C     C_R   0.644229 0.496477 0.500400 0.571532
C21   C     C_R   0.847426 0.421685 0.599687 0.049166
C22   C     C_R   0.767399 0.420219 0.601622 0.024311
C23   C     C_1   0.965854 0.495347 0.489200 0.033938
C24   C     C_R   0.727092 0.490114 0.501097 -0.026957
C25   C     C_R   0.766375 0.558058 0.400279 -0.145905
C26   C     C_R   0.844574 0.559521 0.398701 -0.125837
C27   C     C_2   0.891482 0.345856 0.700122 0.608551
C28   C     C_2   0.413896 0.314375 0.137412 0.232086
C29   C     C_2   0.726285 0.345174 0.706865 0.617700
C30   C     C_2   0.264640 0.595526 0.748466 0.589047
C31   C     C_1   0.033460 0.497580 0.486667 0.024276
C32   C     C_R   0.150923 0.538845 0.612229 -0.093408
C33   C     C_R   0.229826 0.545196 0.618340 0.047755
C34   C     C_R   0.272190 0.508373 0.499191 -0.010938
C35   C     C_R   0.233579 0.470921 0.376560 -0.136783
C36   C     C_R   0.155081 0.467521 0.371904 -0.104198
Cu1   Cu    Cu3+1 0.500000 0.499980 0.640670 0.990302
Cu2   Cu    Cu3+1 0.500000 0.500020 0.359330 0.954743
H1    H     H_    0.517451 0.886251 0.273195 0.140184
H2    H     H_    0.621968 0.726705 0.128805 0.122746
H3    H     H_    0.736362 0.612621 0.323890 0.127584
H4    H     H_    0.873642 0.613394 0.319994 0.140352
H5    H     H_    0.117920 0.566455 0.702283 0.164040
H6    H     H_    0.264091 0.442442 0.284117 0.145293
H7    H     H_    0.126488 0.438080 0.276653 0.146720
H8    H     H_    0.517415 0.111174 0.272695 0.166257
H9    H     H_    0.905058 0.180867 0.793683 0.350009
H10   H     H_    0.389779 0.325688 0.239468 0.164449
H11   H     H_    0.645929 0.216583 0.744501 0.337757
H12   H     H_    0.410728 0.890861 0.732793 0.181542
H13   H     H_    0.340530 0.712199 0.837378 0.331515
H14   H     H_    0.498416 0.891985 0.843862 0.139836
H15   H     H_    0.411370 0.112299 0.733535 0.158352
H16   H     H_    0.499548 0.113438 0.843196 0.166187
H17   H     H_    0.429652 0.344600 0.862751 0.158837
H18   H     H_    0.650911 0.563649 0.875329 0.189509
H19   H     H_    0.620461 0.728990 0.878080 0.128133
H20   H     H_    0.651280 0.560577 0.124620 0.170555
N1    N     N_R   0.500470 0.500930 0.147930 -0.258431
N2    N     N_R   0.500480 0.500890 0.852020 -0.250811
O1    O     O_R   0.500000 0.319640 0.618810 -0.501068
O2    O     O_R   0.870930 0.222544 0.723223 -0.658702
O3    O     O_2   0.400675 0.217273 0.075542 -0.559726
O4    O     O_2   0.741867 0.356006 0.831218 -0.506710
O5    O     O_R   0.669980 0.261848 0.663324 -0.672502
O6    O     O_2   0.241652 0.561132 0.862345 -0.517354
O7    O     O_R   0.321346 0.685954 0.741406 -0.685181
O8    O     O_R   0.500010 0.319680 0.381230 -0.527636
O9    O     O_R   0.391250 0.499990 0.618840 -0.465045
O10   O     O_R   0.391260 0.500020 0.381250 -0.535398
O11   O     O_R   0.499990 0.680320 0.618770 -0.486074
O12   O     O_R   0.500000 0.680360 0.381190 -0.507123
O13   O     O_R   0.608740 0.499980 0.618750 -0.487589
O14   O     O_R   0.608750 0.500010 0.381160 -0.500977
O15   O     O_2   0.945829 0.391041 0.761944 -0.505123

loop_
_geom_bond_atom_site_label_1
_geom_bond_atom_site_label_2
_ccdc_geom_bond_type
Cu2   O10   S    
C22   C29   S    
Cu1   O9    S    
C15   N2    A    
C35   C36   A    
C16   O12   A    
C10   H14   S    
H9    O2    S    
C4    O10   A    
C7    C8    A    
C14   N1    A    
C12   C23   S    
H11   O5    S    
C1    C5    S    
C18   C19   S    
C5    C6    A    
C1    O8    A    
C2    C32   A    
C34   C35   A    
C20   C24   S    
C8    C9    A    
C9    C10   S    
C30   O7    S    
C11   H15   S    
C18   H18   S    
C21   C27   S    
C29   O4    D    
C8    C16   S    
C21   C22   A    
C16   O11   A    
C27   O15   D    
C4    O9    A    
C33   C34   A    
Cu2   O12   S    
C19   H20   S    
C4    C34   S    
C13   C19   S    
C24   C25   A    
C19   H2    S    
C25   H3    S    
C25   C26   A    
C12   C21   A    
C12   C26   A    
C2    C31   S    
C23   C31   T    
Cu1   Cu2   S    
C3    C9    A    
C27   O2    S    
C18   H19   S    
C17   C18   S    
C20   O14   A    
C36   H7    S    
H13   O7    S    
C35   H6    S    
C30   O6    D    
C11   H16   S    
C29   O5    S    
Cu2   O8    S    
Cu1   O11   S    
C22   C24   A    
C10   H12   S    
C26   H4    S    
Cu2   O14   S    
C2    C36   A    
Cu1   O13   S    
C28   H10   S    
C6    H8    S    
C30   C33   S    
C3    C5    A    
C1    O1    A    
Cu1   O1    S    
C6    C7    A    
C13   N1    A    
C13   C17   A    
C32   C33   A    
C32   H5    S    
C20   O13   A    
Cu1   N2    S    
C3    C11   S    
C10   C11   S    
C17   N2    A    
Cu2   N1    S    
C28   O3    D    
C7    H1    S    
C14   C15   A    
C14   C28   S    
C15   H17   S    
