data_mof_unit_58052.cif
_audit_creation_date              2012-12-10T18:06:39-0500
_audit_creation_method            fapswitch 2.2
_symmetry_space_group_name_H-M    P1
_symmetry_Int_Tables_number       1
_space_group_crystal_system       triclinic
_cell_length_a                    12.596793
_cell_length_b                    13.156674
_cell_length_c                    15.461985
_cell_angle_alpha                 83.319198
_cell_angle_beta                  98.630423
_cell_angle_gamma                 96.783443
_cell_volume                      2503.06899247

loop_
_atom_site_label
_atom_site_type_symbol
_atom_type_description
_atom_site_fract_x
_atom_site_fract_y
_atom_site_fract_z
_atom_type_partial_charge
C1    C     C_R   0.444702 0.308150 0.513002 0.857937
C2    C     C_R   0.461003 0.575071 0.096688 0.092470
C3    C     C_R   0.355152 0.598627 0.061660 0.175928
C4    C     C_R   0.539929 0.575759 0.040416 0.066372
C5    C     C_R   0.506113 0.580149 0.948996 0.070122
C6    C     C_R   0.401985 0.609295 0.915277 -0.225738
C7    C     C_R   0.328415 0.620352 0.971222 -0.231164
C8    C     C_R   0.650724 0.569848 0.072312 -0.215094
C9    C     C_R   0.723297 0.555598 0.016433 -0.221061
C10   C     C_R   0.686545 0.542414 0.928511 0.171691
C11   C     C_R   0.577063 0.553106 0.894731 0.090714
C12   C     C_R   0.436358 0.515503 0.335891 0.873826
C13   C     C_R   0.756910 0.516238 0.874255 -0.195592
C14   C     C_R   0.718313 0.496970 0.787706 -0.205392
C15   C     C_R   0.539347 0.528653 0.809534 -0.255607
C16   C     C_R   0.728496 0.926197 0.564020 -0.184383
C17   C     C_R   0.595561 0.798378 0.500363 -0.047167
C18   C     C_R   0.300933 0.164547 0.499651 -0.181812
C19   C     C_R   0.268768 0.061056 0.492370 -0.137838
C20   C     C_R   0.345919 0.991757 0.502029 -0.192111
C21   C     C_R   0.457163 0.024909 0.523365 0.087656
C22   C     C_R   0.487255 0.126575 0.544208 0.085596
C23   C     C_R   0.557184 0.691393 0.491723 0.860505
C24   C     C_R   0.539607 0.960603 0.524637 0.078609
C25   C     C_R   0.647517 0.991864 0.560305 0.176046
C26   C     C_R   0.672449 0.087374 0.592836 -0.239260
C27   C     C_R   0.593356 0.154162 0.584869 -0.195655
C28   C     C_R   0.517757 0.866658 0.489469 -0.249254
C29   C     C_R   0.702145 0.828606 0.535453 -0.196605
C30   C     C_R   0.410385 0.198261 0.522725 -0.115820
C31   C     C_R   0.138215 0.641093 0.622631 -0.317030
C32   C     C_R   0.757543 0.379624 0.396489 -0.109519
C33   C     C_R   0.852981 0.353677 0.374689 0.600399
C34   C     C_R   0.565435 0.490150 0.663749 0.849693
C35   C     C_R   0.950756 0.399179 0.414129 -0.315848
C36   C     C_R   0.952864 0.471184 0.475872 -0.071186
C37   C     C_R   0.853385 0.494650 0.495833 0.211341
C38   C     C_R   0.048994 0.520607 0.518408 0.031784
C39   C     C_R   0.043888 0.591739 0.580040 0.201754
C40   C     C_R   0.944789 0.612950 0.598464 -0.304011
C41   C     C_R   0.850845 0.565002 0.556671 -0.190637
C42   C     C_R   0.150890 0.502586 0.502323 -0.055665
C43   C     C_R   0.236529 0.619670 0.603700 0.004405
C44   C     C_R   0.404480 0.540601 0.241663 -0.063553
C45   C     C_R   0.608716 0.502081 0.755543 -0.055595
C46   C     C_R   0.276797 0.597449 0.117496 -0.197340
C47   C     C_R   0.301539 0.569056 0.207357 -0.187433
C48   C     C_R   0.482589 0.543348 0.186170 -0.252324
H1    H     H_    0.248793 0.641253 0.943366 0.144424
H2    H     H_    0.841250 0.509699 0.899009 0.139020
H3    H     H_    0.763356 0.775644 0.544613 0.150646
H4    H     H_    0.753549 0.111284 0.622958 0.150629
H5    H     H_    0.810905 0.948823 0.591900 0.137404
H6    H     H_    0.439048 0.842845 0.455566 0.150995
H7    H     H_    0.240543 0.218566 0.484712 0.158698
H8    H     H_    0.316070 0.912502 0.494666 0.135681
H9    H     H_    0.184142 0.035043 0.475592 0.151472
H10   H     H_    0.615896 0.227053 0.612017 0.171337
H11   H     H_    0.310950 0.656693 0.635760 0.134311
H12   H     H_    0.454475 0.526822 0.785020 0.162216
H13   H     H_    0.939757 0.666973 0.645231 0.151298
H14   H     H_    0.135843 0.695362 0.669782 0.144459
H15   H     H_    0.163531 0.450483 0.457004 0.127274
H16   H     H_    0.680886 0.344793 0.366328 0.173833
H17   H     H_    0.022564 0.376390 0.395059 0.166485
H18   H     H_    0.777230 0.584591 0.573234 0.208312
H19   H     H_    0.773848 0.478111 0.746307 0.163643
H20   H     H_    0.807340 0.550239 0.043019 0.152231
H21   H     H_    0.196145 0.616920 0.091480 0.137556
H22   H     H_    0.240297 0.568822 0.249635 0.161782
H23   H     H_    0.559495 0.516780 0.213316 0.165927
H24   H     H_    0.376233 0.625801 0.845733 0.143362
H25   H     H_    0.683661 0.578094 0.140025 0.153058
N1    N     N_R   0.239390 0.551900 0.544730 -0.104149
N2    N     N_R   0.759950 0.448600 0.455730 -0.163975
O1    O     O_R   0.374950 0.371210 0.521360 -0.611393
O2    O     O_R   0.542050 0.338030 0.492790 -0.608895
O3    O     O_R   0.368720 0.526070 0.390200 -0.616705
O4    O     O_R   0.535820 0.492890 0.361630 -0.614540
O5    O     O_R   0.457950 0.661970 0.507210 -0.614449
O6    O     O_R   0.625050 0.628790 0.478640 -0.628944
O7    O     O_R   0.464180 0.507110 0.638370 -0.614758
O8    O     O_R   0.631280 0.473930 0.609800 -0.640958
Zn1   Zn    Zn3+2 0.388420 0.522150 0.519080 0.938999
Zn2   Zn    Zn3+2 0.611580 0.477850 0.480920 0.928358
F1    F     F_    0.850862 0.284700 0.315599 -0.661801

loop_
_geom_bond_atom_site_label_1
_geom_bond_atom_site_label_2
_ccdc_geom_bond_type
C17   C29   A    
C15   H12   S    
C35   C36   A    
C4    C8    A    
O1    Zn1   S    
C32   N2    A    
C19   H9    S    
C6    H24   S    
C26   C27   A    
C17   C23   S    
C31   C43   A    
C36   C37   A    
C38   C42   A    
C3    C7    A    
C5    C6    A    
C35   H17   S    
C12   O4    A    
C1    O2    A    
C18   C19   A    
C16   H5    S    
C8    H25   S    
C46   H21   S    
C11   C15   A    
N2    Zn2   S    
C19   C20   A    
C8    C9    A    
C12   O3    A    
C14   H19   S    
C18   C30   A    
C23   O5    A    
C23   O6    A    
C9    C10   A    
C44   C47   A    
C20   H8    S    
C43   N1    A    
C37   N2    A    
O2    Zn2   S    
C21   C22   A    
C17   C28   A    
C31   H14   S    
C14   C45   A    
C42   N1    A    
O5    Zn1   S    
C24   C25   A    
C7    H1    S    
C39   C40   A    
C28   H6    S    
C2    C48   A    
C25   C26   A    
C27   H10   S    
C40   H13   S    
C2    C4    A    
C33   F1    S    
C47   H22   S    
C26   H4    S    
C34   C45   S    
C32   H16   S    
C41   H18   S    
C18   H7    S    
C40   C41   A    
O8    Zn2   S    
O7    Zn1   S    
C22   C27   A    
C34   O8    A    
C15   C45   A    
C48   H23   S    
O4    Zn2   S    
C29   H3    S    
C16   C25   A    
C46   C47   A    
C22   C30   A    
C1    O1    A    
C24   C28   A    
N1    Zn1   S    
C4    C5    A    
C10   C13   A    
C5    C11   A    
C6    C7    A    
C43   H11   S    
C3    C46   A    
C32   C33   A    
C36   C38   A    
C2    C3    A    
C16   C29   A    
C9    H20   S    
C12   C44   S    
C38   C39   A    
C1    C30   S    
C33   C35   A    
C31   C39   A    
C37   C41   A    
C10   C11   A    
C13   H2    S    
O3    Zn1   S    
C20   C21   A    
C21   C24   A    
C34   O7    A    
C13   C14   A    
C42   H15   S    
O6    Zn2   S    
C44   C48   A    
