data_mof_unit_49266.cif
_audit_creation_date              2012-12-10T19:07:37-0500
_audit_creation_method            fapswitch 2.2
_symmetry_space_group_name_H-M    P1
_symmetry_Int_Tables_number       1
_space_group_crystal_system       triclinic
_cell_length_a                    10.827903
_cell_length_b                    10.860279
_cell_length_c                    9.543165
_cell_angle_alpha                 90.432052
_cell_angle_beta                  89.839321
_cell_angle_gamma                 90.256261
_cell_volume                      1122.17196122

loop_
_atom_site_label
_atom_site_type_symbol
_atom_type_description
_atom_site_fract_x
_atom_site_fract_y
_atom_site_fract_z
_atom_type_partial_charge
C1    C     C_R   0.498934 0.262215 0.499047 0.812258
C2    C     C_R   0.935953 0.511208 0.625656 0.115559
C3    C     C_3   0.928778 0.422469 0.744289 -0.454795
C4    C     C_3   0.068888 0.423694 0.745314 -0.488387
C5    C     C_R   0.510255 0.065072 0.622793 0.084961
C6    C     C_R   0.504265 0.128594 0.496243 -0.224462
C7    C     C_R   0.510419 0.060719 0.368694 0.452813
C8    C     C_R   0.519924 0.932919 0.372798 -0.298427
C9    C     C_R   0.510508 0.870408 0.500181 -0.174034
C10   C     C_R   0.511779 0.938108 0.624757 0.120062
C11   C     C_3   0.426014 0.932200 0.747212 -0.446095
C12   C     C_R   0.262320 0.501665 0.500150 0.785786
C13   C     C_3   0.424760 0.071816 0.745801 -0.448140
C14   C     C_R   0.602747 0.535968 0.073517 0.271924
C15   C     C_R   0.402731 0.454206 0.074190 -0.093143
C16   C     C_R   0.403309 0.452977 0.925484 -0.089092
C17   C     C_R   0.602842 0.535569 0.926108 0.261873
C18   C     C_3   0.665490 0.657712 0.919840 -0.505646
C19   C     C_3   0.664161 0.659191 0.078841 -0.511584
C20   C     C_R   0.501638 0.737503 0.500435 0.828459
C21   C     C_R   0.737688 0.501499 0.499815 0.801826
C22   C     C_R   0.063143 0.511778 0.626027 0.135336
C23   C     C_R   0.129230 0.512642 0.500216 -0.094836
C24   C     C_R   0.064925 0.529324 0.374008 -0.223742
C25   C     C_R   0.936240 0.528783 0.373741 -0.215470
C26   C     C_R   0.870882 0.512040 0.499670 -0.094538
Cu1   Cu    Cu3+1 0.499990 0.499980 0.640670 0.939140
Cu2   Cu    Cu3+1 0.500010 0.500020 0.359330 0.949304
H1    H     H_    0.113355 0.536984 0.274960 0.161027
H2    H     H_    0.471445 0.894202 0.841355 0.187486
H3    H     H_    0.333153 0.110884 0.718759 0.183611
H4    H     H_    0.469733 0.114152 0.839143 0.213168
H5    H     H_    0.322945 0.418910 0.129355 0.127157
H6    H     H_    0.324848 0.415317 0.870037 0.136587
H7    H     H_    0.759954 0.651381 0.874702 0.193574
H8    H     H_    0.606658 0.729745 0.872961 0.215418
H9    H     H_    0.758031 0.655332 0.125013 0.189819
H10   H     H_    0.603480 0.731706 0.123348 0.210765
H11   H     H_    0.888710 0.535535 0.274563 0.157583
H12   H     H_    0.887648 0.464283 0.840124 0.191896
H13   H     H_    0.888628 0.332032 0.712700 0.200815
H14   H     H_    0.107656 0.467285 0.841386 0.190187
H15   H     H_    0.110498 0.333799 0.715280 0.190001
H16   H     H_    0.525571 0.882976 0.274606 0.171625
H17   H     H_    0.335251 0.889883 0.720619 0.197724
N1    N     N_R   0.500790 0.500930 0.147930 -0.179400
N2    N     N_R   0.500790 0.500890 0.852020 -0.182590
O1    O     O_R   0.500000 0.319640 0.618810 -0.580042
O2    O     O_R   0.500010 0.319680 0.381230 -0.544975
O3    O     O_R   0.319650 0.499970 0.618810 -0.586385
O4    O     O_R   0.319660 0.500010 0.381230 -0.598785
O5    O     O_R   0.499990 0.680320 0.618770 -0.579566
O6    O     O_R   0.500000 0.680360 0.381190 -0.589082
O7    O     O_R   0.680340 0.499990 0.618770 -0.581442
O8    O     O_R   0.680350 0.500030 0.381190 -0.582897
O9    O     O_3   0.508208 0.116619 0.238882 -0.593680
C27   C     C_3   0.384223 0.132268 0.195114 0.096242
H18   H     H_    0.385384 0.203405 0.112479 0.166248
H19   H     H_    0.323285 0.167586 0.280763 0.116669
C28   C     C_3   0.329834 0.013717 0.131466 -0.401563
H20   H     H_    0.397667 0.972266 0.057947 0.231070
H21   H     H_    0.309826 0.946447 0.215687 0.213517
C29   C     C_3   0.209893 0.039115 0.053381 -0.905303
H22   H     H_    0.139725 0.077631 0.126470 0.255834
H23   H     H_    0.173579 0.951882 0.007734 0.260249
H24   H     H_    0.226247 0.105316 0.967076 0.250530

loop_
_geom_bond_atom_site_label_1
_geom_bond_atom_site_label_2
_ccdc_geom_bond_type
Cu1   O1    S    
C2    C22   A    
C12   O3    A    
C23   C24   A    
C29   H23   S    
C1    O1    A    
C6    C7    A    
C19   H10   S    
C4    C22   S    
Cu2   O2    S    
C25   H11   S    
C9    C20   S    
C5    C13   S    
C14   C17   A    
Cu1   O3    S    
C21   C26   S    
C17   C18   S    
C29   H24   S    
C5    C10   A    
C2    C26   A    
O9    C27   S    
Cu2   O6    S    
C11   C13   S    
C12   C23   S    
Cu2   N1    S    
C27   H18   S    
C5    C6    A    
C4    H14   S    
C7    O9    S    
C28   H20   S    
C28   C29   S    
C15   C16   A    
C16   N2    A    
C4    H15   S    
Cu2   O8    S    
C13   H3    S    
C3    H12   S    
C2    C3    S    
C22   C23   A    
C21   O7    A    
Cu2   O4    S    
C27   H19   S    
C11   H17   S    
C10   C11   S    
C1    C6    S    
C9    C10   A    
C17   N2    A    
Cu1   O7    S    
C12   O4    A    
C24   C25   A    
Cu1   O5    S    
C28   H21   S    
C18   C19   S    
C18   H7    S    
Cu1   N2    S    
Cu1   Cu2   S    
C21   O8    A    
C7    C8    A    
C20   O5    A    
C20   O6    A    
C27   C28   S    
C19   H9    S    
C15   N1    A    
C16   H6    S    
C25   C26   A    
C24   H1    S    
C13   H4    S    
C18   H8    S    
C14   C19   S    
C15   H5    S    
C3    H13   S    
C3    C4    S    
C29   H22   S    
C11   H2    S    
C8    C9    A    
C14   N1    A    
C8    H16   S    
C1    O2    A    
