data_mof_unit_63879.cif
_audit_creation_date              2012-12-10T19:30:38-0500
_audit_creation_method            fapswitch 2.2
_symmetry_space_group_name_H-M    P1
_symmetry_Int_Tables_number       1
_space_group_crystal_system       triclinic
_cell_length_a                    14.953559
_cell_length_b                    15.755236
_cell_length_c                    16.691538
_cell_angle_alpha                 90.009872
_cell_angle_beta                  84.761601
_cell_angle_gamma                 89.992033
_cell_volume                      3916.04945084

loop_
_atom_site_label
_atom_site_type_symbol
_atom_type_description
_atom_site_fract_x
_atom_site_fract_y
_atom_site_fract_z
_atom_type_partial_charge
Br1   Br    Br    0.626270 0.348037 0.698686 -0.529634
Br2   Br    Br    0.369518 0.603668 0.249474 -0.527455
C1    C     C_R   0.500001 0.662442 0.499918 0.916624
C2    C     C_3   0.585426 0.027962 0.504572 -0.233686
C3    C     C_3   0.499522 0.917000 0.499150 0.157467
C4    C     C_3   0.500598 0.083073 0.501918 0.156175
C5    C     C_1   0.499758 0.826325 0.499267 -0.041368
C6    C     C_1   0.500307 0.173731 0.501549 -0.036180
C7    C     C_3   0.032504 0.577173 0.476426 -0.218455
C8    C     C_3   0.967494 0.422699 0.523570 -0.217819
C9    C     C_3   0.977424 0.516337 0.427704 0.164346
C10   C     C_3   0.022578 0.483535 0.572292 0.164471
C11   C     C_3   0.964653 0.560081 0.551564 -0.182677
C12   C     C_R   0.500003 0.337568 0.500092 0.921610
C13   C     C_3   0.035350 0.439791 0.448432 -0.181057
C14   C     C_3   0.910105 0.499677 0.500903 0.066917
C15   C     C_3   0.089896 0.500199 0.499093 0.068368
C16   C     C_R   0.487332 0.495015 0.653423 0.891520
C17   C     C_R   0.512631 0.500486 0.346175 0.902296
C18   C     C_1   0.810088 0.499863 0.500326 0.092164
C19   C     C_1   0.189912 0.500074 0.499672 0.089512
C20   C     C_R   0.477320 0.468626 0.737134 -0.098341
C21   C     C_R   0.520682 0.486629 0.259901 -0.101385
C22   C     C_R   0.532084 0.403918 0.765046 0.245867
C23   C     C_3   0.469215 0.028416 0.434669 0.152171
C24   C     C_R   0.456509 0.519500 0.211755 0.250664
C25   C     C_R   0.516316 0.375660 0.843838 -0.180146
C26   C     C_R   0.456239 0.491768 0.132929 -0.174412
C27   C     C_R   0.447285 0.411495 0.895233 0.140680
C28   C     C_R   0.518927 0.431106 0.101738 0.141024
C29   C     C_R   0.389630 0.471596 0.866071 -0.155541
C30   C     C_R   0.586412 0.403199 0.147888 -0.162782
C31   C     C_R   0.404583 0.500072 0.787292 -0.237809
C32   C     C_R   0.587141 0.430587 0.226890 -0.238444
C33   C     C_2   0.443534 0.398659 0.981951 -0.217383
C34   C     C_3   0.530908 0.971656 0.566404 0.154475
C35   C     C_2   0.519538 0.402899 0.018424 -0.206546
C36   C     C_3   0.553223 0.972358 0.435552 -0.191860
C37   C     C_3   0.446895 0.027728 0.565519 -0.188292
C38   C     C_1   0.499944 0.751185 0.499552 -0.166705
C39   C     C_1   0.500064 0.248855 0.500893 -0.150985
C40   C     C_3   0.414695 0.972122 0.496496 -0.237831
H1    H     H_    0.058262 0.640157 0.455367 0.150096
H2    H     H_    0.636933 0.358610 0.123449 0.144330
H3    H     H_    0.407611 0.518703 0.095936 0.160472
H4    H     H_    0.559397 0.327149 0.865582 0.162424
H5    H     H_    0.594828 0.948543 0.381740 0.150474
H6    H     H_    0.405301 0.051565 0.619328 0.150696
H7    H     H_    0.654499 0.051888 0.509672 0.153170
H8    H     H_    0.345614 0.948213 0.491401 0.150899
H9    H     H_    0.417397 0.010610 0.327792 0.190776
H10   H     H_    0.377003 0.095928 0.379264 0.184226
H11   H     H_    0.582705 0.989490 0.673281 0.192158
H12   H     H_    0.941725 0.359718 0.544630 0.152596
H13   H     H_    0.623155 0.904196 0.621805 0.184230
H14   H     H_    0.011382 0.544963 0.310368 0.195371
H15   H     H_    0.916247 0.590975 0.350027 0.181998
H16   H     H_    0.988637 0.454909 0.689631 0.192716
H17   H     H_    0.083763 0.408890 0.649961 0.181966
H18   H     H_    0.063521 0.391552 0.404671 0.147118
H19   H     H_    0.936487 0.608323 0.595324 0.146265
H20   H     H_    0.637066 0.404845 0.263305 0.170323
H21   H     H_    0.360283 0.547713 0.765789 0.163952
H22   H     H_    0.584703 0.396688 0.984396 0.159594
H23   H     H_    0.378834 0.405538 0.016682 0.156366
H24   H     H_    0.336064 0.499768 0.905455 0.141693
N1    N     N_1   0.731990 0.500000 0.499970 -0.077303
N2    N     N_1   0.268010 0.500000 0.500030 -0.080611
N3    N     N_3   0.435840 0.062289 0.361909 -0.451439
N4    N     N_3   0.564295 0.937799 0.639161 -0.450964
N5    N     N_3   0.952181 0.533995 0.347189 -0.455778
N6    N     N_3   0.047834 0.465873 0.652803 -0.456368
O1    O     O_R   0.425540 0.623220 0.500000 -0.595899
O2    O     O_R   0.574460 0.376780 0.500000 -0.584420
O3    O     O_R   0.574480 0.623220 0.499990 -0.617334
O4    O     O_R   0.425520 0.376780 0.500010 -0.621435
O5    O     O_R   0.416730 0.500010 0.615810 -0.621067
O6    O     O_R   0.583270 0.499990 0.384190 -0.626918
O7    O     O_R   0.565670 0.500010 0.615790 -0.570787
O8    O     O_R   0.434330 0.499990 0.384210 -0.571243
Zn1   Zn    Zn3+2 0.400550 0.500000 0.500010 1.008244
Zn2   Zn    Zn3+2 0.599450 0.500000 0.499990 1.009854

loop_
_geom_bond_atom_site_label_1
_geom_bond_atom_site_label_2
_ccdc_geom_bond_type
C29   H24   S    
C3    C40   S    
C2    C34   S    
C25   C27   A    
C13   H18   S    
C18   N1    T    
C22   C25   A    
N2    Zn1   S    
C12   O2    A    
C33   C35   D    
C8    C13   S    
C9    N5    S    
C4    C23   S    
C33   H23   S    
C3    C34   S    
C32   H20   S    
C21   C24   A    
C7    C11   S    
H10   N3    S    
C9    C13   S    
C16   O7    A    
C10   C15   S    
C5    C38   T    
C29   C31   A    
C1    O3    A    
C14   C18   S    
H17   N6    S    
H14   N5    S    
C10   N6    S    
C3    C36   S    
O2    Zn2   S    
C8    H12   S    
H11   N4    S    
O1    Zn1   S    
C34   N4    S    
C37   C40   S    
C26   H3    S    
C7    H1    S    
C6    C39   T    
C2    C4    S    
C3    C5    S    
C4    C6    S    
C15   C19   S    
C28   C35   S    
C30   C32   A    
C23   C40   S    
C17   O6    A    
C17   C21   S    
C23   C36   S    
C9    C14   S    
O6    Zn2   S    
O5    Zn1   S    
C31   H21   S    
C21   C32   A    
C30   H2    S    
Br2   C24   S    
H15   N5    S    
C7    C9    S    
C36   H5    S    
C8    C10   S    
C40   H8    S    
C12   C39   S    
C25   H4    S    
C7    C15   S    
C2    C36   S    
C1    C38   S    
C19   N2    T    
C20   C22   A    
C23   N3    S    
C35   H22   S    
C13   C15   S    
C20   C31   A    
C16   C20   S    
C34   C37   S    
O8    Zn1   S    
O4    Zn1   S    
O7    Zn2   S    
O3    Zn2   S    
C27   C33   S    
C24   C26   A    
C2    H7    S    
C26   C28   A    
C27   C29   A    
C8    C14   S    
Br1   C22   S    
C28   C30   A    
H16   N6    S    
C16   O5    A    
C17   O8    A    
C1    O1    A    
H13   N4    S    
C11   H19   S    
C10   C11   S    
N1    Zn2   S    
C11   C14   S    
C4    C37   S    
H9    N3    S    
C12   O4    A    
C37   H6    S    
