data_mof_unit_64474.cif
_audit_creation_date              2012-12-10T20:14:10-0500
_audit_creation_method            fapswitch 2.2
_symmetry_space_group_name_H-M    P1
_symmetry_Int_Tables_number       1
_space_group_crystal_system       triclinic
_cell_length_a                    19.277564
_cell_length_b                    18.515023
_cell_length_c                    10.526133
_cell_angle_alpha                 90.317374
_cell_angle_beta                  91.177567
_cell_angle_gamma                 90.010789
_cell_volume                      3756.18392848

loop_
_atom_site_label
_atom_site_type_symbol
_atom_type_description
_atom_site_fract_x
_atom_site_fract_y
_atom_site_fract_z
_atom_type_partial_charge
C1    C     C_R   0.365631 0.499991 0.499561 0.919215
C2    C     C_R   0.634370 0.500009 0.500429 0.919228
C3    C     C_R   0.965606 0.499098 0.616674 0.330653
C4    C     C_R   0.034394 0.500924 0.383077 0.330672
C5    C     C_R   0.037861 0.499043 0.615752 0.323386
C6    C     C_R   0.962139 0.500981 0.383999 0.323383
C7    C     C_R   0.071742 0.499953 0.498955 -0.289592
C8    C     C_R   0.928258 0.500071 0.500796 -0.289579
C9    C     C_R   0.543402 0.726800 0.581697 0.398888
C10   C     C_R   0.456601 0.273200 0.418297 0.398901
C11   C     C_R   0.456635 0.726455 0.418516 0.391417
C12   C     C_R   0.543362 0.273545 0.581490 0.391430
C13   C     C_R   0.544204 0.803173 0.583403 0.260482
C14   C     C_R   0.455798 0.196827 0.416591 0.260494
C15   C     C_R   0.455946 0.802797 0.417062 0.258639
C16   C     C_R   0.544050 0.197202 0.582943 0.258644
C17   C     C_R   0.500121 0.842055 0.500247 -0.235791
C18   C     C_R   0.499878 0.157944 0.499753 -0.235789
C19   C     C_R   0.524404 0.961670 0.395177 -0.076416
C20   C     C_R   0.475595 0.038330 0.604823 -0.076413
C21   C     C_R   0.475757 0.962383 0.605041 -0.075622
C22   C     C_R   0.524242 0.037616 0.394959 -0.075620
C23   C     C_R   0.499834 0.076857 0.499779 0.216116
C24   C     C_R   0.500165 0.923142 0.500222 0.216120
C25   C     C_R   0.501862 0.499708 0.257634 1.062728
C26   C     C_R   0.498138 0.500292 0.742366 1.062747
C27   C     C_3   0.436278 0.512492 0.042996 0.275766
C28   C     C_3   0.563722 0.487508 0.957005 0.275773
C29   C     C_3   0.477777 0.565083 0.961238 0.321390
C30   C     C_3   0.522224 0.434917 0.038762 0.321387
C31   C     C_3   0.456406 0.448524 0.957410 0.286133
C32   C     C_3   0.543594 0.551476 0.042591 0.286137
C33   C     C_3   0.497967 0.501022 0.876600 -0.466996
C34   C     C_3   0.502033 0.498978 0.123400 -0.466989
C35   C     C_R   0.746006 0.434344 0.504145 -0.106450
C36   C     C_R   0.254003 0.565669 0.496001 -0.106448
C37   C     C_R   0.254051 0.434246 0.500758 -0.105456
C38   C     C_R   0.745941 0.565760 0.498860 -0.105483
C39   C     C_R   0.817859 0.434451 0.504417 -0.043977
C40   C     C_R   0.182150 0.565570 0.495650 -0.043947
C41   C     C_R   0.182195 0.434318 0.500443 -0.043333
C42   C     C_R   0.817796 0.565694 0.499089 -0.043316
C43   C     C_R   0.853347 0.500079 0.501695 0.212088
C44   C     C_R   0.146652 0.499940 0.498065 0.212103
C45   C     C_R   0.709702 0.500037 0.501187 -0.049428
C46   C     C_R   0.290299 0.499968 0.498740 -0.049405
H1    H     H_    0.719063 0.383043 0.506039 0.203266
H2    H     H_    0.280953 0.616972 0.494350 0.203184
H3    H     H_    0.281044 0.382958 0.502921 0.202492
H4    H     H_    0.718941 0.617042 0.496518 0.202423
H5    H     H_    0.543654 0.932818 0.313362 0.187666
H6    H     H_    0.456344 0.067181 0.686639 0.187670
H7    H     H_    0.456577 0.934094 0.686972 0.187998
H8    H     H_    0.543422 0.065906 0.313029 0.188001
N1    N     N_R   0.500000 0.689440 0.500000 -0.216689
N2    N     N_R   0.500000 0.310560 0.500000 -0.216671
O1    O     O_R   0.398180 0.560840 0.499970 -0.600842
O2    O     O_R   0.601820 0.439160 0.500030 -0.600847
O3    O     O_R   0.601820 0.560840 0.500030 -0.599129
O4    O     O_R   0.398180 0.439160 0.499970 -0.599138
O5    O     O_R   0.499980 0.560800 0.313940 -0.560050
O6    O     O_R   0.500020 0.439200 0.686060 -0.560036
O7    O     O_R   0.500020 0.560800 0.686060 -0.564737
O8    O     O_R   0.499980 0.439200 0.313940 -0.564729
Zn1   Zn    Zn3+2 0.500000 0.581210 0.500000 1.103784
Zn2   Zn    Zn3+2 0.500000 0.418790 0.500000 1.103792
Cl1   Cl    Cl    0.398128 0.380850 0.898410 -0.383859
Cl2   Cl    Cl    0.601872 0.619150 0.101591 -0.383927
Cl3   Cl    Cl    0.351984 0.527891 0.104353 -0.356277
Cl4   Cl    Cl    0.648017 0.472109 0.895648 -0.356269
Cl5   Cl    Cl    0.447479 0.651450 0.910415 -0.362685
Cl6   Cl    Cl    0.552523 0.348550 0.089585 -0.362655
H9    H     H_    0.845857 0.383717 0.506425 0.173315
H10   H     H_    0.154158 0.616310 0.493829 0.173298
H11   H     H_    0.154237 0.383573 0.502343 0.173382
H12   H     H_    0.845747 0.616438 0.496957 0.173383
Cl7   Cl    Cl    0.921818 0.498191 0.762759 -0.362182
Cl8   Cl    Cl    0.078185 0.501833 0.236995 -0.362152
Cl9   Cl    Cl    0.085983 0.498078 0.760702 -0.379804
Cl10  Cl    Cl    0.914018 0.501932 0.239049 -0.379774
Cl11  Cl    Cl    0.599479 0.679747 0.686089 -0.395476
Cl12  Cl    Cl    0.400528 0.320253 0.313897 -0.395613
Cl13  Cl    Cl    0.400414 0.679055 0.314094 -0.392045
Cl14  Cl    Cl    0.599578 0.320944 0.685921 -0.392121
Cl15  Cl    Cl    0.602055 0.849766 0.687403 -0.410549
Cl16  Cl    Cl    0.397950 0.150234 0.312585 -0.410561
Cl17  Cl    Cl    0.398069 0.848911 0.313344 -0.411350
Cl18  Cl    Cl    0.601924 0.151088 0.686669 -0.411352

loop_
_geom_bond_atom_site_label_1
_geom_bond_atom_site_label_2
_ccdc_geom_bond_type
O7    Zn1   S    
C27   C29   S    
C14   C18   A    
C8    C43   S    
C35   H1    S    
C22   H8    S    
C31   Cl1   S    
C38   C42   A    
C29   C32   S    
C30   C31   S    
C1    C46   S    
C29   C33   S    
C12   Cl14  S    
C9    C13   A    
C38   C45   A    
C32   C34   S    
C11   C15   A    
O2    Zn2   S    
C12   C16   A    
C31   C33   S    
C36   C46   A    
C9    N1    A    
C5    Cl9   S    
C10   N2    A    
C27   Cl3   S    
C25   C34   S    
C32   Cl2   S    
O4    Zn2   S    
C2    C45   S    
C4    C7    A    
N1    Zn1   S    
C27   C34   S    
C17   C24   S    
O6    Zn2   S    
C27   C31   S    
C18   C23   S    
C36   C40   A    
C19   C22   A    
C14   Cl16  S    
C4    C6    A    
C3    C8    A    
C10   C14   A    
C1    O4    A    
C5    C7    A    
C30   C34   S    
C2    O3    A    
C39   C43   A    
C11   Cl13  S    
C10   Cl12  S    
C25   O8    A    
O8    Zn2   S    
C35   C39   A    
C26   O7    A    
C4    Cl8   S    
C1    O1    A    
C41   H11   S    
C37   H3    S    
C26   C33   S    
C6    Cl10  S    
C20   C23   A    
C28   C32   S    
C25   O5    A    
C7    C44   S    
C12   N2    A    
C28   C33   S    
C41   C44   A    
C42   C43   A    
C3    Cl7   S    
C11   N1    A    
C15   Cl17  S    
C15   C17   A    
C28   Cl4   S    
O1    Zn1   S    
C30   Cl6   S    
C3    C5    A    
C6    C8    A    
C2    O2    A    
C38   H4    S    
C42   H12   S    
C13   C17   A    
C28   C30   S    
C19   C24   A    
C26   O6    A    
C20   H6    S    
O3    Zn1   S    
C21   H7    S    
C19   H5    S    
N2    Zn2   S    
C40   H10   S    
C36   H2    S    
C39   H9    S    
C37   C41   A    
O5    Zn1   S    
C40   C44   A    
C20   C21   A    
C16   C18   A    
C21   C24   A    
C13   Cl15  S    
C16   Cl18  S    
C22   C23   A    
C37   C46   A    
C9    Cl11  S    
C29   Cl5   S    
C35   C45   A    
