data_mof_unit_54045.cif
_audit_creation_date              2012-12-11T15:21:23-0500
_audit_creation_method            fapswitch 2.2
_symmetry_space_group_name_H-M    P1
_symmetry_Int_Tables_number       1
_space_group_crystal_system       triclinic
_cell_length_a                    18.437132
_cell_length_b                    18.36787
_cell_length_c                    50.793747
_cell_angle_alpha                 90.040881
_cell_angle_beta                  89.997881
_cell_angle_gamma                 119.830862
_cell_volume                      14922.1215595

loop_
_atom_site_label
_atom_site_type_symbol
_atom_type_description
_atom_site_fract_x
_atom_site_fract_y
_atom_site_fract_z
_atom_type_partial_charge
C1    C     C_R   0.408478 0.584320 0.287697 0.515996
C2    C     C_R   0.571122 0.427417 0.860007 0.168624
C3    C     C_R   0.418567 0.969145 0.094558 0.453811
C4    C     C_R   0.511534 0.006653 0.405622 0.502112
C5    C     C_R   0.491360 0.892409 0.088055 0.447230
C6    C     C_R   0.505054 0.921829 0.354170 0.031839
C7    C     C_R   0.374790 0.825863 0.140070 0.054044
C8    C     C_R   0.500113 0.902077 0.327252 -0.179401
C9    C     C_R   0.365279 0.803979 0.166667 -0.160632
C10   C     C_R   0.350507 0.837316 0.328834 -0.119270
C11   C     C_R   0.493395 0.931240 0.177470 -0.103684
C12   C     C_R   0.353612 0.853428 0.355840 0.025603
C13   C     C_R   0.536547 0.491910 0.639556 0.216663
C14   C     C_R   0.503918 0.955921 0.150850 0.040562
C15   C     C_R   0.431862 0.909492 0.368131 0.162590
C16   C     C_R   0.444367 0.902758 0.132022 0.215986
C17   C     C_R   0.449026 0.958257 0.448671 -0.042251
C18   C     C_R   0.445708 0.939796 0.050089 -0.031864
C19   C     C_R   0.370365 0.920706 0.436623 -0.011414
C20   C     C_R   0.412790 0.976531 0.067174 0.014571
C21   C     C_R   0.298368 0.872805 0.451577 -0.080247
C22   C     C_R   0.369800 0.014718 0.056625 -0.077162
C23   C     C_R   0.146273 0.560027 0.410949 0.437336
C24   C     C_R   0.545275 0.487455 0.862919 0.190829
C25   C     C_R   0.021239 0.544606 0.092672 0.418802
C26   C     C_R   0.520609 0.007019 0.433189 0.049853
C27   C     C_R   0.486696 0.898794 0.060577 0.051929
C28   C     C_R   0.423216 0.861041 0.314298 -0.028817
C29   C     C_R   0.423692 0.856025 0.185397 -0.015076
C30   C     C_R   0.558063 0.127193 0.688047 -0.011738
C31   C     C_R   0.555513 0.124112 0.811516 -0.020331
C32   C     C_R   0.390958 0.920313 0.519691 -0.006776
C33   C     C_R   0.411116 0.007770 0.984462 -0.001642
C34   C     C_R   0.542876 0.981429 0.515406 0.036060
C35   C     C_R   0.532697 0.607695 0.493069 0.030126
C36   C     C_R   0.447132 0.897236 0.977908 -0.024594
C37   C     C_R   0.471441 0.955592 0.531380 -0.004150
C38   C     C_R   0.430329 0.958605 0.967370 0.002120
C39   C     C_R   0.322607 0.903003 0.536038 -0.131743
C40   C     C_R   0.405983 0.075627 0.973864 -0.117411
C41   C     C_R   0.330674 0.912852 0.563291 0.132310
C42   C     C_R   0.412075 0.091307 0.946912 0.130444
C43   C     C_R   0.410830 0.948990 0.575025 0.052775
C44   C     C_R   0.428428 0.040723 0.929519 0.058134
C45   C     C_R   0.481334 0.969407 0.558951 -0.086646
C46   C     C_R   0.580886 0.620064 0.011719 0.037567
C47   C     C_R   0.435373 0.972666 0.939809 -0.080611
C48   C     C_R   0.125703 0.484035 0.353684 -0.058498
C49   C     C_R   0.109080 0.603352 0.143334 -0.059233
C50   C     C_R   0.562372 0.007356 0.570171 0.025479
C51   C     C_R   0.448931 0.919713 0.922693 0.014269
C52   C     C_R   0.572450 0.038080 0.596229 0.451490
C53   C     C_R   0.466773 0.943204 0.895819 0.438152
C54   C     C_R   0.423718 0.970588 0.602000 0.411434
C55   C     C_R   0.442468 0.058727 0.902379 0.408944
C56   C     C_R   0.496822 0.115711 0.644604 0.059243
C57   C     C_R   0.455903 0.552116 0.480408 0.023042
C58   C     C_R   0.436376 0.042666 0.840622 0.061004
C59   C     C_R   0.516374 0.151096 0.669929 -0.101143
C60   C     C_R   0.469430 0.085480 0.816768 -0.106264
C61   C     C_R   0.575691 0.063589 0.681416 -0.122233
C62   C     C_R   0.608445 0.117598 0.830010 -0.142545
C63   C     C_R   0.553903 0.025788 0.656727 -0.050257
C64   C     C_R   0.576743 0.077160 0.853943 -0.076421
C65   C     C_R   0.516238 0.052408 0.637988 0.195160
C66   C     C_R   0.491361 0.040999 0.859732 0.195812
C67   C     C_R   0.382366 0.909652 0.491802 0.023389
C68   C     C_R   0.540204 0.545311 0.027014 0.025670
C69   C     C_R   0.402140 0.990499 0.011921 0.037548
C70   C     C_R   0.455626 0.952778 0.476221 0.007982
C71   C     C_R   0.437253 0.943619 0.022442 0.010829
C72   C     C_R   0.148217 0.501246 0.327312 -0.143702
C73   C     C_R   0.135072 0.623652 0.169278 -0.129274
C74   C     C_R   0.535723 0.991778 0.488030 0.055212
C75   C     C_R   0.463830 0.900283 0.005419 0.005873
C76   C     C_R   0.303704 0.861305 0.478777 0.131035
C77   C     C_R   0.361201 0.019283 0.029399 0.134948
C78   C     C_R   0.598433 0.052973 0.445481 -0.088374
C79   C     C_R   0.384568 0.498851 0.495595 -0.028524
C80   C     C_R   0.520774 0.863998 0.043380 -0.106801
C81   C     C_R   0.618975 0.997602 0.527478 -0.005369
C82   C     C_R   0.445142 0.834914 0.960737 -0.035856
C83   C     C_R   0.630360 0.014908 0.554769 0.003714
C84   C     C_R   0.444947 0.845728 0.933053 0.016770
C85   C     C_R   0.605853 0.045456 0.472488 -0.081377
C86   C     C_R   0.510174 0.865369 0.016291 -0.151067
C87   C     C_R   0.521626 0.592065 0.410099 0.463947
C88   C     C_R   0.566117 0.633147 0.094763 0.459721
C89   C     C_R   0.372182 0.507067 0.411634 0.418793
C90   C     C_R   0.498524 0.466299 0.014417 -0.031631
C91   C     C_R   0.500571 0.483306 0.098013 0.409957
C92   C     C_R   0.426465 0.489710 0.352434 0.161189
C93   C     C_R   0.413180 0.544345 0.138535 0.156932
C94   C     C_R   0.420953 0.498284 0.324743 -0.018631
C95   C     C_R   0.383020 0.550485 0.163575 -0.004856
C96   C     C_R   0.095487 0.598755 0.326461 -0.113449
C97   C     C_R   0.093751 0.478879 0.178173 -0.137875
C98   C     C_R   0.455424 0.643398 0.331659 -0.154913
C99   C     C_R   0.520173 0.594522 0.182378 -0.153605
C100  C     C_R   0.459381 0.634810 0.358734 0.141798
C101  C     C_R   0.604629 0.654489 0.477579 -0.121168
C102  C     C_R   0.550697 0.589487 0.157474 0.157960
C103  C     C_R   0.442637 0.557328 0.369312 0.278617
C104  C     C_R   0.496748 0.563752 0.135545 0.280431
C105  C     C_R   0.451184 0.549921 0.452520 -0.055850
C106  C     C_R   0.540645 0.549770 0.054924 -0.044030
C107  C     C_R   0.525036 0.596624 0.437616 0.032949
C108  C     C_R   0.574674 0.628886 0.067391 0.034403
C109  C     C_R   0.601051 0.647785 0.450414 -0.089758
C110  C     C_R   0.612988 0.702121 0.052134 -0.113944
C111  C     C_R   0.373561 0.501354 0.439584 -0.002941
C112  C     C_R   0.407788 0.584720 0.212013 0.531120
C113  C     C_R   0.616748 0.697965 0.024886 -0.138852
C114  C     C_R   0.505816 0.475594 0.070268 -0.021333
C115  C     C_R   0.432916 0.575437 0.314658 -0.069749
C116  C     C_R   0.436482 0.573490 0.185823 -0.052543
C117  C     C_R   0.571056 0.439108 0.687396 -0.045571
C118  C     C_R   0.569973 0.439727 0.812490 -0.056581
C119  C     C_R   0.536565 0.611770 0.520887 -0.004856
C120  C     C_R   0.583719 0.614155 0.983799 0.016617
C121  C     C_R   0.071970 0.580476 0.352857 -0.023059
C122  C     C_R   0.064236 0.457699 0.152163 -0.039275
C123  C     C_R   0.396773 0.487989 0.522808 0.007106
C124  C     C_R   0.299968 0.454210 0.455037 0.023157
C125  C     C_R   0.482803 0.464039 0.986926 0.016585
C126  C     C_R   0.471511 0.547329 0.535571 0.028710
C127  C     C_R   0.531113 0.536403 0.971480 0.042249
C128  C     C_R   0.604664 0.676714 0.534439 -0.131861
C129  C     C_R   0.636495 0.683152 0.967763 -0.104562
C130  C     C_R   0.614032 0.673160 0.561623 0.141803
C131  C     C_R   0.637800 0.676015 0.940280 0.154214
C132  C     C_R   0.556395 0.600921 0.575787 0.046730
C133  C     C_R   0.584144 0.598150 0.927872 0.051631
C134  C     C_R   0.483392 0.539518 0.562842 -0.063987
C135  C     C_R   0.476923 0.396856 0.057371 0.020523
C136  C     C_R   0.527275 0.530073 0.943585 -0.052047
C137  C     C_R   0.423783 0.468384 0.576775 0.024539
C138  C     C_R   0.467373 0.454645 0.931550 0.030299
C139  C     C_R   0.439488 0.457009 0.603066 0.449536
C140  C     C_R   0.467797 0.446374 0.904099 0.423209
C141  C     C_R   0.571102 0.585773 0.602004 0.396918
C142  C     C_R   0.588133 0.584060 0.900556 0.404172
C143  C     C_R   0.581978 0.448425 0.639458 0.039544
C144  C     C_R   0.531952 0.524690 0.840317 0.039911
C145  C     C_3   0.920345 0.629834 0.686816 -0.271941
C146  C     C_R   0.340217 0.416030 0.537105 -0.144456
C147  C     C_3   0.795825 0.552424 0.832515 -0.239373
C148  C     C_2   0.278127 0.794145 0.370924 0.294994
C149  C     C_2   0.577737 0.036084 0.142665 0.276949
C150  C     C_2   0.461167 0.148806 0.624870 0.326682
C151  C     C_2   0.345099 0.000627 0.845625 0.292068
C152  C     C_3   0.213749 0.802842 0.586335 -0.247369
C153  C     C_3   0.317431 0.135602 0.930908 -0.256076
C154  C     C_3   0.151897 0.751523 0.480707 -0.302393
C155  C     C_3   0.226644 0.977534 0.009739 -0.306745
C156  C     C_2   0.583866 0.938209 0.367152 0.269029
C157  C     C_R   0.417823 0.392640 0.974550 -0.131078
C158  C     C_2   0.312242 0.764633 0.121345 0.256921
C159  C     C_2   0.680698 0.983001 0.512710 0.218006
C160  C     C_2   0.427400 0.752479 0.971870 0.209527
C161  C     C_2   0.711494 0.034742 0.567042 0.274326
C162  C     C_2   0.431244 0.775644 0.915261 0.331025
C163  C     C_3   0.410604 0.707126 0.386885 -0.259646
C164  C     C_3   0.652733 0.544350 0.153786 -0.276234
C165  C     C_2   0.654017 0.382556 0.664911 0.293831
C166  C     C_2   0.525115 0.531508 0.790133 0.293458
C167  C     C_2   0.602157 0.424662 0.613614 0.323007
C168  C     C_R   0.058974 0.492404 0.449035 -0.041272
C169  C     C_2   0.507999 0.590101 0.844300 0.348430
C170  C     C_3   0.659810 0.799124 0.586989 -0.228633
C171  C     C_3   0.653634 0.793643 0.914868 -0.237455
C172  C     C_2   0.924263 0.327258 0.703270 0.269762
C173  C     C_2   0.981755 0.405401 0.790425 0.247963
C174  C     C_2   0.404740 0.429307 0.306036 0.254333
C175  C     C_2   0.297499 0.537533 0.166112 0.219830
C176  C     C_3   0.340805 0.349739 0.371209 -0.184146
C177  C     C_3   0.296520 0.435357 0.113669 -0.231665
C178  C     C_2   0.217450 0.400135 0.442461 0.363107
C179  C     C_R   0.055610 0.505777 0.050602 -0.029059
C180  C     C_2   0.450540 0.319395 0.072937 0.358053
C181  C     C_3   0.503821 0.636438 0.664583 -0.280977
C182  C     C_3   0.546585 0.306276 0.886823 -0.232905
C183  C     C_2   0.227488 0.426841 0.499093 0.183559
C184  C     C_2   0.470640 0.317784 0.015721 0.198428
C185  C     C_2   0.848577 0.244387 0.509451 0.196995
C186  C     C_2   0.179364 0.398008 0.971380 0.213808
C187  C     C_R   0.352639 0.407163 0.563627 -0.100427
C188  C     C_R   0.409963 0.388180 0.947298 -0.115004
C189  C     C_R   0.304970 0.457122 0.482972 -0.023628
C190  C     C_R   0.089552 0.525157 0.366698 0.238504
C191  C     C_R   0.476753 0.392848 0.029430 0.005478
C192  C     C_R   0.591064 0.175040 0.712539 0.532513
C193  C     C_R   0.590985 0.174980 0.787528 0.539729
C194  C     C_R   0.826804 0.416607 0.712741 0.527246
C195  C     C_R   0.825538 0.416215 0.787480 0.539210
C196  C     C_R   0.584138 0.408881 0.712627 0.507073
C197  C     C_R   0.583531 0.409675 0.787147 0.520539
C198  C     C_R   0.989467 0.449228 0.432188 0.032851
C199  C     C_R   0.078545 0.453578 0.064172 0.030768
C200  C     C_R   0.910909 0.395131 0.443055 -0.105229
C201  C     C_R   0.074734 0.520583 0.134053 0.243290
C202  C     C_R   0.096784 0.399859 0.049651 -0.107691
C203  C     C_R   0.137644 0.549366 0.438364 0.009505
C204  C     C_R   0.025983 0.551029 0.065055 0.038133
C205  C     C_R   0.135976 0.560975 0.313659 -0.003115
C206  C     C_R   0.131439 0.562708 0.186712 0.030764
C207  C     C_R   0.880527 0.432965 0.689020 0.002748
C208  C     C_R   0.873676 0.431723 0.812309 0.004738
C209  C     C_R   0.965163 0.396722 0.514234 -0.006587
C210  C     C_R   0.087222 0.464525 0.979779 0.034244
C211  C     C_R   0.103771 0.521661 0.521318 0.020400
C212  C     C_R   0.601795 0.423845 0.663705 -0.008956
C213  C     C_R   0.044032 0.572036 0.981534 0.019186
C214  C     C_R   0.027685 0.455248 0.531471 0.032872
C215  C     C_R   0.060636 0.516030 0.966928 0.017957
C216  C     C_R   0.176080 0.591355 0.287784 0.538953
C217  C     C_R   0.174848 0.591044 0.212375 0.536033
C218  C     C_R   0.898082 0.321990 0.525183 0.009300
C219  C     C_R   0.115111 0.419766 0.963394 -0.007392
C220  C     C_R   0.884376 0.316755 0.552382 -0.067050
C221  C     C_R   0.091987 0.406440 0.936737 -0.128381
C222  C     C_R   0.939611 0.380482 0.569286 -0.003628
C223  C     C_R   0.543881 0.499998 0.814698 -0.025141
C224  C     C_R   0.057467 0.450529 0.924486 0.024838
C225  C     C_R   0.013360 0.448018 0.559038 -0.036642
C226  C     C_R   0.049912 0.511386 0.939116 -0.032521
C227  C     C_R   0.071982 0.509201 0.576284 0.037584
C228  C     C_R   0.030648 0.566992 0.925972 0.036392
C229  C     C_R   0.053208 0.504974 0.603297 0.422785
C230  C     C_R   0.014250 0.557529 0.898821 0.429672
C231  C     C_R   0.923143 0.377451 0.596388 0.438704
C232  C     C_R   0.032016 0.436923 0.897788 0.437579
C233  C     C_R   0.951761 0.387266 0.658184 -0.020148
C234  C     C_R   0.523817 0.479464 0.687021 -0.137736
C235  C     C_R   0.991596 0.444148 0.838181 -0.022430
C236  C     C_R   0.917508 0.382582 0.683264 -0.043160
C237  C     C_R   0.947636 0.425979 0.813973 -0.054655
C238  C     C_R   0.889199 0.494629 0.670376 0.138131
C239  C     C_R   0.844874 0.453730 0.835032 0.098622
C240  C     C_R   0.415116 0.823743 0.287863 0.538424
C241  C     C_R   0.415433 0.823824 0.212298 0.544353
C242  C     C_R   0.924698 0.498271 0.645763 -0.034911
C243  C     C_R   0.885747 0.464868 0.859020 -0.069914
C244  C     C_R   0.953565 0.443418 0.639384 0.190148
C245  C     C_R   0.580294 0.402446 0.834945 -0.113050
C246  C     C_R   0.961055 0.464175 0.860798 0.170392
C247  C     C_R   0.971992 0.416332 0.486964 0.011671
C248  C     C_R   0.083844 0.459876 0.007988 0.035789
C249  C     C_R   0.049635 0.478714 0.476630 0.050114
C250  C     C_R   0.060504 0.511312 0.022560 0.027097
C251  C     C_R   0.117449 0.528312 0.493682 0.023541
C252  C     C_R   0.039644 0.566575 0.009401 0.018492
C253  C     C_R   0.902157 0.380052 0.469983 -0.158472
C254  C     C_R   0.095021 0.399981 0.022220 -0.091563
C255  C     C_R   0.206028 0.593375 0.455253 -0.138910
C256  C     C_R   0.507459 0.507211 0.663340 0.182288
C257  C     C_R   0.002011 0.602221 0.051699 -0.105030
C258  C     C_R   0.162725 0.580255 0.539180 -0.159207
C259  C     C_R   0.031925 0.631749 0.967575 -0.141042
C260  C     C_R   0.146793 0.574321 0.566088 -0.119003
C261  C     C_R   0.026071 0.629594 0.940312 -0.108906
C262  C     C_R   0.196025 0.583834 0.482406 -0.160245
C263  C     C_R   0.009421 0.610574 0.024533 -0.140597
C264  C     C_R   0.000000 0.462256 0.404862 0.426281
C265  C     C_R   0.082229 0.456007 0.091979 0.435410
C266  C     C_R   0.366582 0.928275 0.409274 0.394059
Cr1   Cr    Cr6+3 0.456550 0.732290 0.250000 1.039795
Cr2   Cr    Cr6+3 0.275740 0.543450 0.250000 1.026540
Cr3   Cr    Cr6+3 0.267710 0.724260 0.250000 1.042647
Cr4   Cr    Cr6+3 0.543450 0.275740 0.750000 1.058341
Cr5   Cr    Cr6+3 0.724260 0.267710 0.750000 1.046925
Cr6   Cr    Cr6+3 0.732290 0.456550 0.750000 1.031221
H1    H     H_    0.085457 0.645079 0.316476 0.156508
H2    H     H_    0.014417 0.675287 0.930591 0.163582
H3    H     H_    0.633701 0.509424 0.172712 0.146402
H4    H     H_    0.648608 0.342896 0.681461 0.103605
H5    H     H_    0.560118 0.537648 0.772293 0.089927
H6    H     H_    0.621020 0.467768 0.597134 0.106013
H7    H     H_    0.469482 0.586088 0.861008 0.126008
H8    H     H_    0.734874 0.773986 0.562769 0.249535
H9    H     H_    0.714828 0.848531 0.597706 0.195832
H10   H     H_    0.608530 0.764962 0.601412 0.166326
H11   H     H_    0.639508 0.829390 0.572001 0.155332
H12   H     H_    0.748310 0.787822 0.934852 0.240828
H13   H     H_    0.927354 0.542380 0.631106 0.127859
H14   H     H_    0.699541 0.847103 0.902763 0.163548
H15   H     H_    0.631750 0.818455 0.931147 0.133281
H16   H     H_    0.599850 0.752050 0.902097 0.188268
H17   H     H_    0.919394 0.337196 0.724076 0.114946
H18   H     H_    0.952315 0.397064 0.771342 0.098461
H19   H     H_    0.422438 0.443640 0.285511 0.122792
H20   H     H_    0.256080 0.497251 0.181351 0.146453
H21   H     H_    0.459698 0.396758 0.354324 0.285546
H22   H     H_    0.339801 0.340288 0.392807 0.189360
H23   H     H_    0.327129 0.290202 0.361373 0.176712
H24   H     H_    0.860332 0.478444 0.876373 0.138728
H25   H     H_    0.290531 0.363749 0.365842 0.201932
H26   H     H_    0.342491 0.564418 0.110633 0.307501
H27   H     H_    0.269797 0.422855 0.093496 0.180644
H28   H     H_    0.245677 0.421234 0.127938 0.187208
H29   H     H_    0.321817 0.392782 0.117469 0.200509
H30   H     H_    0.165474 0.410443 0.446398 0.135559
H31   H     H_    0.495185 0.314324 0.085621 0.123158
H32   H     H_    0.409590 0.520804 0.677007 0.269089
H33   H     H_    0.460041 0.661402 0.663531 0.155230
H34   H     H_    0.547936 0.662671 0.647828 0.195235
H35   H     H_    0.251623 0.619047 0.494117 0.108009
H36   H     H_    0.539131 0.657210 0.683405 0.147787
H37   H     H_    0.612056 0.432173 0.899116 0.259524
H38   H     H_    0.507360 0.293186 0.904696 0.196746
H39   H     H_    0.590651 0.282423 0.889941 0.157832
H40   H     H_    0.504978 0.271931 0.869979 0.203545
H41   H     H_    0.229357 0.460876 0.516794 0.124601
H42   H     H_    0.505058 0.326288 0.997570 0.093928
H43   H     H_    0.873047 0.235413 0.491060 0.135707
H44   H     H_    0.181191 0.345695 0.962085 0.100013
H45   H     H_    0.987602 0.649713 0.015874 0.107833
H46   H     H_    0.290307 0.796228 0.319858 0.183982
H47   H     H_    0.539483 0.970013 0.192040 0.171477
H48   H     H_    0.239085 0.839494 0.441415 0.157623
H49   H     H_    0.339356 0.038155 0.069603 0.179642
H50   H     H_    0.044068 0.612500 0.362915 0.158150
H51   H     H_    0.089094 0.430409 0.191344 0.115211
H52   H     H_    0.035386 0.392732 0.146089 0.158718
H53   H     H_    0.504018 0.201243 0.674990 0.167563
H54   H     H_    0.428240 0.089189 0.802286 0.175925
H55   H     H_    0.261982 0.885515 0.528013 0.162658
H56   H     H_    0.400731 0.120201 0.986408 0.193397
H57   H     H_    0.555810 0.912092 0.316914 0.129897
H58   H     H_    0.313619 0.744008 0.172795 0.128069
H59   H     H_    0.654086 0.093135 0.434185 0.167428
H60   H     H_    0.555219 0.834830 0.050827 0.158336
H61   H     H_    0.607846 0.044317 0.695162 0.149332
H62   H     H_    0.139589 0.441380 0.364352 0.159888
H63   H     H_    0.675104 0.147179 0.826497 0.149913
H64   H     H_    0.855656 0.364250 0.430762 0.172925
H65   H     H_    0.109705 0.355209 0.059493 0.159682
H66   H     H_    0.569154 0.977638 0.651722 0.148594
H67   H     H_    0.619335 0.076776 0.868551 0.138248
H68   H     H_    0.666908 0.083730 0.481144 0.169092
H69   H     H_    0.540916 0.840915 0.003956 0.138686
H70   H     H_    0.464615 0.702587 0.324084 0.141348
H71   H     H_    0.562032 0.615028 0.199162 0.122887
H72   H     H_    0.658415 0.683895 0.439393 0.174176
H73   H     H_    0.119567 0.653886 0.130131 0.154364
H74   H     H_    0.639576 0.763461 0.061250 0.164391
H75   H     H_    0.650381 0.732480 0.524278 0.125802
H76   H     H_    0.679904 0.743301 0.976176 0.098124
H77   H     H_    0.665665 0.693614 0.486115 0.120638
H78   H     H_    0.644761 0.756972 0.014505 0.107246
H79   H     H_    0.288260 0.363032 0.527702 0.159979
H80   H     H_    0.372057 0.339831 0.985878 0.148192
H81   H     H_    0.499725 0.489661 0.705287 0.127463
H82   H     H_    0.598499 0.354923 0.832912 0.135381
H83   H     H_    0.307480 0.350373 0.573591 0.178364
H84   H     H_    0.267620 0.636319 0.447536 0.155390
H85   H     H_    0.360706 0.331098 0.938592 0.148283
H86   H     H_    0.977032 0.347031 0.653033 0.187184
H87   H     H_    0.050393 0.444478 0.839319 0.212776
H88   H     H_    0.831393 0.261179 0.560527 0.208568
H89   H     H_    0.107445 0.366727 0.924974 0.156253
H90   H     H_    0.839333 0.341810 0.477360 0.135491
H91   H     H_    0.100273 0.350516 0.012626 0.137936
H92   H     H_    0.179715 0.471342 0.318140 0.152718
H93   H     H_    0.163238 0.688837 0.175135 0.132139
H94   H     H_    0.828676 0.559164 0.659665 0.271443
H95   H     H_    0.978102 0.637102 0.062287 0.164692
H96   H     H_    0.971277 0.665644 0.672411 0.141978
H97   H     H_    0.947351 0.619405 0.705024 0.174803
H98   H     H_    0.890401 0.667516 0.691990 0.158352
H99   H     H_    0.734260 0.435605 0.849562 0.254674
H100  H     H_    0.827655 0.586125 0.850885 0.163191
H101  H     H_    0.738294 0.556667 0.829996 0.157898
H102  H     H_    0.837535 0.583763 0.815464 0.187695
H103  H     H_    0.284438 0.774482 0.390517 0.134913
H104  H     H_    0.586820 0.055039 0.122158 0.126356
H105  H     H_    0.456147 0.130649 0.604353 0.132580
H106  H     H_    0.220439 0.633727 0.532826 0.100414
H107  H     H_    0.318904 0.964093 0.863399 0.137384
H108  H     H_    0.217827 0.907909 0.570084 0.251390
H109  H     H_    0.160844 0.791058 0.599457 0.169046
H110  H     H_    0.256300 0.787014 0.597264 0.187503
H111  H     H_    0.188615 0.761656 0.568738 0.117491
H112  H     H_    0.429831 0.211545 0.949685 0.234478
H113  H     H_    0.316260 0.189640 0.921600 0.166228
H114  H     H_    0.277866 0.116929 0.948896 0.126380
H115  H     H_    0.291206 0.082653 0.916651 0.189248
H116  H     H_    0.249008 0.758697 0.504347 0.250519
H117  H     H_    0.027405 0.681673 0.977180 0.107469
H118  H     H_    0.106167 0.708395 0.495421 0.153996
H119  H     H_    0.151360 0.713707 0.463581 0.160142
H120  H     H_    0.132291 0.797182 0.474563 0.168210
H121  H     H_    0.294707 0.082846 0.032956 0.300772
H122  H     H_    0.188222 0.003793 0.001909 0.147523
H123  H     H_    0.191002 0.931755 0.025554 0.154984
H124  H     H_    0.238651 0.944723 0.993398 0.163244
H125  H     H_    0.642520 0.970411 0.356453 0.124807
H126  H     H_    0.271671 0.700582 0.127613 0.142060
H127  H     H_    0.746383 0.015868 0.517903 0.122765
H128  H     H_    0.193134 0.621892 0.578905 0.152241
H129  H     H_    0.386345 0.727021 0.988790 0.148643
H130  H     H_    0.769986 0.079409 0.557817 0.130210
H131  H     H_    0.469866 0.746730 0.916767 0.138735
H132  H     H_    0.522557 0.761417 0.366678 0.278189
H133  H     H_    0.432771 0.765162 0.398753 0.168017
H134  H     H_    0.375735 0.652887 0.400166 0.207932
H135  H     H_    0.368251 0.706071 0.371161 0.146107
H136  H     H_    0.675539 0.659889 0.167343 0.259617
H137  H     H_    0.720619 0.568753 0.150762 0.157721
H138  H     H_    0.618578 0.501046 0.137330 0.197354
N1    N     N_R   0.077953 0.516263 0.394681 -0.381898
N2    N     N_R   0.526250 0.560624 0.109419 -0.349218
N3    N     N_R   0.513650 0.513888 0.614909 -0.392198
N4    N     N_R   0.531212 0.508269 0.889250 -0.412645
N5    N     N_2   0.858527 0.550625 0.675554 -0.474543
N6    N     N_2   0.774267 0.465180 0.834061 -0.510944
N7    N     N_2   0.257563 0.890090 0.578485 -0.454448
N8    N     N_2   0.402582 0.159291 0.937672 -0.478134
N9    N     N_2   0.234309 0.795048 0.492478 -0.544199
N10   N     N_2   0.304279 0.044840 0.020130 -0.510680
N11   N     N_2   0.481229 0.705093 0.375366 -0.476689
N12   N     N_R   0.056078 0.503646 0.106066 -0.375183
N13   N     N_2   0.636448 0.613632 0.154383 -0.483111
N14   N     N_2   0.682259 0.742479 0.574366 -0.463699
N15   N     N_2   0.692792 0.748442 0.925393 -0.460051
N16   N     N_2   0.422818 0.416737 0.363526 -0.491784
N17   N     N_2   0.361750 0.522315 0.115615 -0.494332
N18   N     N_2   0.457047 0.545823 0.663260 -0.477379
N19   N     N_2   0.593669 0.395864 0.882308 -0.546381
N20   N     N_R   0.978565 0.440656 0.612788 -0.387532
N21   N     N_R   0.006460 0.487926 0.885613 -0.376519
N22   N     N_R   0.436612 0.948324 0.394164 -0.365242
N23   N     N_R   0.455033 0.925085 0.104531 -0.381009
N24   N     N_R   0.503646 0.018785 0.611651 -0.423499
N25   N     N_R   0.463618 0.011809 0.886247 -0.413198
N26   N     N_R   0.445741 0.549072 0.397493 -0.356698
O1    O     O_R   0.475290 0.813700 0.278840 -0.509747
O2    O     O_2   0.438485 0.117850 0.893055 -0.522537
O3    O     O_2   0.568589 0.058631 0.392112 -0.491419
O4    O     O_2   0.525675 0.855957 0.097383 -0.484966
O5    O     O_2   0.642296 0.085023 0.604952 -0.426292
O6    O     O_2   0.487954 0.904612 0.881054 -0.468257
O7    O     O_2   0.586053 0.627918 0.397195 -0.488875
O8    O     O_2   0.591674 0.701195 0.105505 -0.468012
O9    O     O_2   0.636465 0.634315 0.613061 -0.500226
O10   O     O_2   0.643792 0.637615 0.886998 -0.475939
O11   O     O_2   0.305843 0.478057 0.399842 -0.509542
O12   O     O_R   0.475290 0.813700 0.221160 -0.491042
O13   O     O_2   0.470960 0.421332 0.112122 -0.544463
O14   O     O_2   0.388554 0.395105 0.615236 -0.462997
O15   O     O_2   0.413967 0.382549 0.893411 -0.501797
O16   O     O_R   0.448450 0.657720 0.276690 -0.490891
O17   O     O_R   0.448450 0.657720 0.223310 -0.479138
O18   O     O_R   0.524710 0.338410 0.721160 -0.491716
O19   O     O_R   0.524710 0.338410 0.778840 -0.481800
O20   O     O_R   0.551550 0.209270 0.723310 -0.500101
O21   O     O_R   0.551550 0.209270 0.776690 -0.491512
O22   O     O_R   0.661590 0.186300 0.721160 -0.486124
O23   O     O_2   0.214535 0.608162 0.401449 -0.550803
O24   O     O_R   0.661590 0.186300 0.778840 -0.496105
O25   O     O_R   0.790730 0.342280 0.723310 -0.512651
O26   O     O_R   0.790730 0.342280 0.776690 -0.506744
O27   O     O_R   0.813700 0.475290 0.721160 -0.475910
O28   O     O_R   0.813700 0.475290 0.778840 -0.490711
O29   O     O_R   0.657720 0.448450 0.723310 -0.492451
O30   O     O_R   0.657720 0.448450 0.776690 -0.487722
O31   O     O_3   0.666667 0.333333 0.750000 -0.243151
O32   O     O_R   0.338410 0.524710 0.278840 -0.505049
O33   O     O_R   0.338410 0.524710 0.221160 -0.523596
O34   O     O_2   0.986840 0.576368 0.104891 -0.523651
O35   O     O_R   0.209270 0.551550 0.276690 -0.492931
O36   O     O_R   0.209270 0.551550 0.223310 -0.502908
O37   O     O_R   0.186300 0.661590 0.278840 -0.508546
O38   O     O_R   0.186300 0.661590 0.221160 -0.507829
O39   O     O_R   0.342280 0.790730 0.276690 -0.494401
O40   O     O_R   0.342280 0.790730 0.223310 -0.488193
O41   O     O_3   0.333333 0.666667 0.250000 -0.239178
O42   O     O_2   0.940262 0.425038 0.390074 -0.501100
O43   O     O_2   0.110577 0.417321 0.103493 -0.547884
O44   O     O_2   0.858525 0.319695 0.605373 -0.454825
O45   O     O_2   0.102518 0.558887 0.618346 -0.519525
O46   O     O_2   0.030444 0.378594 0.885733 -0.507353
O47   O     O_2   0.208202 0.766637 0.361659 -0.495793
O48   O     O_2   0.629542 0.082218 0.158746 -0.491981
O49   O     O_2   0.437197 0.197449 0.631276 -0.454282
O50   O     O_2   0.297806 0.005851 0.829895 -0.485285
O51   O     O_2   0.583585 0.911457 0.389176 -0.497231
O52   O     O_2   0.304190 0.784149 0.099034 -0.491402
O53   O     O_2   0.657833 0.931348 0.494954 -0.491443
O54   O     O_2   0.460989 0.714511 0.963276 -0.530577
O55   O     O_2   0.713470 0.999399 0.587152 -0.488166
O56   O     O_2   0.004325 0.609893 0.886980 -0.511910
O57   O     O_2   0.374971 0.748649 0.899009 -0.439239
O58   O     O_2   0.705969 0.394682 0.648046 -0.460927
O59   O     O_2   0.467678 0.546495 0.789104 -0.426981
O60   O     O_2   0.593407 0.355013 0.610031 -0.421658
O61   O     O_2   0.534693 0.651365 0.829949 -0.426370
O62   O     O_2   0.937282 0.270747 0.696759 -0.466235
O63   O     O_2   0.043667 0.397651 0.792016 -0.460484
O64   O     O_2   0.370239 0.356032 0.312932 -0.502133
O65   O     O_2   0.272726 0.572271 0.151116 -0.551083
O66   O     O_2   0.206447 0.341538 0.428406 -0.461940
O67   O     O_2   0.303775 0.922702 0.399318 -0.478357
O68   O     O_2   0.377993 0.262526 0.072447 -0.442788
O69   O     O_2   0.162678 0.362754 0.493634 -0.502081
O70   O     O_2   0.426710 0.246504 0.023866 -0.493209
O71   O     O_2   0.780215 0.189287 0.516969 -0.570359
O72   O     O_2   0.234052 0.441451 0.987129 -0.475620
O73   O     O_2   0.389154 0.999741 0.109586 -0.499000
O74   O     O_2   0.364366 0.949458 0.616819 -0.471030

loop_
_geom_bond_atom_site_label_1
_geom_bond_atom_site_label_2
_ccdc_geom_bond_type
C73   C206  A    
C63   C65   A    
C22   H49   S    
C185  O71   D    
C161  O55   D    
C157  C188  A    
Cr6   O27   S    
C97   H51   S    
Cr5   O24   S    
C84   C162  S    
C39   C41   A    
C168  C249  A    
Cr4   O18   S    
C21   C76   A    
C163  H135  S    
C175  H20   S    
C170  N14   S    
C232  N21   Am   
C88   C108  A    
C89   N26   Am   
C250  C252  A    
C213  C252  A    
C61   C63   A    
C264  N1    Am   
C95   C175  S    
C93   N17   S    
Cr5   O31   S    
C40   H56   S    
C252  C263  A    
H32   N18   S    
C55   N25   Am   
C164  N13   S    
C169  O61   D    
H8    N14   S    
C70   C74   A    
C50   C52   A    
C169  H7    S    
C34   C81   A    
C231  O44   D    
C162  H131  S    
C33   C69   A    
C109  H72   S    
C119  C128  A    
C25   C204  A    
C111  C124  A    
C91   N2    Am   
C41   C43   A    
C31   C62   A    
C195  O26   A    
C42   C44   A    
C183  C189  S    
C124  C189  A    
C140  O15   D    
C55   O2    D    
C248  C250  A    
C50   C83   A    
C203  C255  A    
C213  C215  A    
C4    O3    D    
C89   O11   D    
C52   N24   Am   
C185  H43   S    
C249  C251  A    
C186  H44   S    
C176  H25   S    
C85   H68   S    
C146  C187  A    
C170  H9    S    
Cr1   O16   S    
Cr2   O32   S    
C199  C265  A    
C171  H16   S    
C61   H61   S    
H21   N16   S    
C123  C126  A    
C144  C169  S    
C147  H102  S    
C64   C66   A    
C152  H111  S    
C242  H13   S    
C232  O46   D    
C102  N13   S    
C41   N7    S    
C82   C160  S    
C204  C257  A    
C43   C54   A    
C92   C94   A    
C184  C191  S    
Cr3   O39   S    
C254  H91   S    
C138  C140  A    
C15   N22   S    
C19   C266  A    
C88   N2    Am   
C25   O34   D    
C240  O39   A    
C82   C84   A    
C8    C28   A    
C49   C73   A    
C37   C45   A    
C142  O10   D    
C234  C256  A    
Cr5   O22   S    
C228  C261  A    
C172  C236  S    
C18   C71   A    
C163  H133  S    
C128  H75   S    
C87   N26   Am   
C257  C263  A    
C117  C212  A    
C259  C261  A    
C208  C237  A    
C164  H137  S    
H121  N10   S    
C94   C115  A    
C139  O14   D    
C186  O72   D    
C33   C38   A    
C56   C59   A    
C178  H30   S    
C215  C226  A    
C153  H113  S    
C233  H86   S    
Cr6   O30   S    
C257  H95   S    
C159  O53   D    
C44   C55   A    
C202  C254  A    
C148  O47   D    
C79   C123  A    
C45   C50   A    
C14   C149  S    
Cr2   O41   S    
C202  H65   S    
C119  C126  A    
H12   N15   S    
C1    O16   A    
C87   C107  A    
C216  O37   A    
C126  C134  A    
C132  C134  A    
C79   C189  A    
C30   C61   A    
C101  H77   S    
C125  C127  A    
C162  O57   D    
C182  H39   S    
C198  C200  A    
C154  H119  S    
C1    C115  S    
C259  H117  S    
C58   C60   A    
C184  O70   D    
C157  H80   S    
C173  H18   S    
C183  O69   D    
C64   H67   S    
C164  H3    S    
C69   C77   A    
C210  C248  A    
C171  H14   S    
C120  C127  A    
C200  H64   S    
C194  C207  S    
C105  C107  A    
C133  C142  A    
C26   C78   A    
C147  H100  S    
C196  O29   A    
C122  C201  A    
C19   C21   A    
C2    C245  A    
C142  N4    Am   
C173  C237  S    
C219  C221  A    
C52   O5    D    
C220  H88   S    
C210  C215  A    
Cr4   O21   S    
C112  O17   A    
C16   N23   S    
C194  O25   A    
C207  C238  A    
C5    C27   A    
C218  C220  A    
C47   C51   A    
C195  C208  S    
C205  C216  S    
C177  H28   S    
C80   C86   A    
C73   H93   S    
C30   C192  S    
C97   C206  A    
C153  N8    S    
C40   C42   A    
C3    N23   Am   
C145  H97   S    
Cr3   O40   S    
C181  H34   S    
C156  O51   D    
C176  H23   S    
C48   C72   A    
C176  N16   S    
C208  C239  A    
C177  H29   S    
C81   C83   A    
C246  N21   S    
C256  N18   S    
C206  C217  S    
C266  N22   Am   
C49   C201  A    
C33   C40   A    
C185  C218  S    
C120  C129  A    
C153  H115  S    
C27   C80   A    
C4    N22   Am   
C31   C193  S    
C179  C250  A    
C261  H2    S    
C222  C225  A    
C243  H24   S    
C210  C219  A    
C51   C53   A    
C138  C188  A    
Cr1   O17   S    
C46   C68   A    
C36   C75   A    
C265  O43   D    
C68   C90   A    
C155  H124  S    
C110  C113  A    
C244  N20   S    
C95   C116  A    
C243  C246  A    
C30   C59   A    
C234  H81   S    
C46   C120  A    
C32   C37   A    
C152  H110  S    
C146  H79   S    
C43   C45   A    
C143  C167  S    
C150  O49   D    
C99   H71   S    
C227  C260  A    
C150  H105  S    
C32   C67   A    
C78   C85   A    
C196  O18   A    
C163  N11   S    
C174  H19   S    
C262  H35   S    
Cr2   O36   S    
C56   C150  S    
C112  C116  S    
H136  N13   S    
H108  N7    S    
C48   H62   S    
C132  C141  A    
C197  O19   A    
C151  H107  S    
C235  C246  A    
C46   C113  A    
C227  C229  A    
C238  N5    S    
C92   N16   S    
Cr6   O28   S    
C260  H128  S    
C239  C243  A    
C165  C212  S    
C230  O56   D    
C143  C212  A    
Cr4   O19   S    
C91   C114  A    
H99   N6    S    
C67   C70   A    
C1    O32   A    
C2    C24   A    
C96   C205  A    
C106  C108  A    
C145  N5    S    
C225  C227  A    
C108  C110  A    
C74   C85   A    
C233  C236  A    
Cr5   O26   S    
C62   H63   S    
C211  C214  A    
C190  N1    S    
C229  O45   D    
C6    C156  S    
H94   N5    S    
C23   O23   D    
C145  H98   S    
C3    O73   D    
C34   C37   A    
C173  O63   D    
Cr1   O1    S    
C134  C137  A    
C228  C230  A    
C98   H70   S    
C112  O33   A    
C104  N2    S    
C137  C139  A    
C5    N23   Am   
C80   H60   S    
C168  C198  A    
Cr4   O31   S    
C59   H53   S    
C180  O68   D    
C141  N3    Am   
C167  O60   D    
C170  H10   S    
C184  H42   S    
C135  C180  S    
C221  C224  A    
C171  H15   S    
C110  H74   S    
C125  C157  A    
C113  H78   S    
C155  H122  S    
C101  C109  A    
C181  H36   S    
C78   H59   S    
C147  H101  S    
Cr1   O12   S    
C32   C39   A    
C177  N17   S    
C214  C225  A    
C131  N15   S    
C144  C223  A    
C148  H103  S    
C49   H73   S    
C239  N6    S    
C156  H125  S    
C60   H54   S    
Cr3   O38   S    
C166  H5    S    
C48   C190  A    
C258  H106  S    
C105  C111  A    
H132  N11   S    
C107  C109  A    
C217  O36   A    
C149  H104  S    
C247  C249  A    
C245  H82   S    
C195  O28   A    
C88   O8    D    
C176  H22   S    
C139  N3    Am   
C242  C244  A    
C241  O12   A    
C192  O22   A    
C6    C8    A    
C13   C256  A    
C100  C103  A    
C201  N12   S    
C31   C60   A    
C130  C132  A    
C240  O1    A    
C23   N1    Am   
C233  C244  A    
C123  C146  A    
H112  N8    S    
C229  N20   Am   
C3    C20   A    
C127  C136  A    
C135  C191  A    
C165  O58   D    
C34   C74   A    
C96   C121  A    
C7    C16   A    
C20   C22   A    
C11   H47   S    
C182  H40   S    
C151  O50   D    
C154  H120  S    
C65   N24   S    
C209  C218  A    
C99   C116  A    
C193  O21   A    
C58   C151  S    
C103  N26   S    
C10   C28   A    
C238  C242  A    
C265  N12   Am   
C140  N4    Am   
C118  C223  A    
C178  O66   D    
C22   C77   A    
Cr3   O41   S    
C35   C101  A    
C128  C130  A    
C25   N12   Am   
C4    C26   A    
C72   C205  A    
C216  O35   A    
C186  C219  S    
C209  C214  A    
C174  O64   D    
C35   C57   A    
C77   N10   S    
C36   C38   A    
C62   C64   A    
H116  N9    S    
C172  O62   D    
C160  O54   D    
C28   C240  S    
C198  C264  A    
C179  C199  A    
C24   C144  A    
C147  N6    S    
C53   N25   Am   
C90   C125  A    
C129  H76   S    
C13   C143  A    
C165  H4    S    
C8    H57   S    
C188  H85   S    
C99   C102  A    
C211  C258  A    
C172  H17   S    
C177  H27   S    
C181  N18   S    
C217  O38   A    
C51   C84   A    
C54   N24   Am   
C122  H52   S    
C100  N11   S    
C137  C187  A    
C57   C105  A    
C53   O6    D    
C17   C26   A    
C81   C159  S    
C163  H134  S    
C57   C79   A    
C241  O40   A    
C35   C119  A    
Cr1   O41   S    
C220  C222  A    
C98   C115  A    
C118  C245  A    
H37   N19   S    
C7    C158  S    
C180  H31   S    
C106  C114  A    
C153  H114  S    
Cr6   O29   S    
C224  C232  A    
C255  H84   S    
C11   C14   A    
C248  C254  A    
C9    H58   S    
C56   C65   A    
C18   C20   A    
C69   C71   A    
C263  H45   S    
C253  H90   S    
C75   C86   A    
C92   C103  A    
C230  N21   Am   
C58   C66   A    
C231  N20   Am   
C155  H123  S    
C36   C82   A    
C181  H33   S    
C133  C136  A    
C114  C135  A    
C12   C15   A    
C160  H129  S    
C187  H83   S    
C66   N25   S    
C209  C247  A    
C124  C178  S    
C44   C47   A    
C9    C29   A    
C200  C253  A    
C6    C15   A    
C17   C70   A    
C213  C259  A    
C96   H1    S    
C235  C237  A    
C68   C106  A    
Cr2   O33   S    
C93   C104  A    
C207  C236  A    
C90   C191  A    
C192  O20   A    
C193  O24   A    
C86   H69   S    
C130  N14   S    
C175  O65   D    
C136  C138  A    
C121  C190  A    
C149  O48   D    
C39   H55   S    
C76   N9    S    
C63   H66   S    
C221  H89   S    
Cr4   O20   S    
C23   C203  A    
C258  C260  A    
C97   C122  A    
C235  H87   S    
C199  C202  A    
C182  H38   S    
C154  N9    S    
C158  H126  S    
C255  C262  A    
C42   N8    S    
C102  C104  A    
C194  O27   A    
C167  H6    S    
C38   C47   A    
Cr5   O25   S    
C10   C12   A    
C94   C174  S    
C154  H118  S    
C247  C253  A    
C222  C231  A    
C226  C228  A    
C2    N19   S    
C159  H127  S    
C91   O13   D    
C14   C16   A    
C161  H130  S    
C264  O42   D    
C7    C9    A    
C21   H48   S    
C197  O30   A    
Cr6   O31   S    
C18   C27   A    
C72   H92   S    
C131  C133  A    
C224  C226  A    
C166  C223  S    
C155  N10   S    
C266  O67   D    
C89   C111  A    
C5    O4    D    
C98   C100  A    
C152  N7    S    
C168  C203  A    
Cr3   O37   S    
C12   C148  S    
C170  H11   S    
C171  N15   S    
C164  H138  S    
C117  C196  S    
C71   C75   A    
C54   O74   D    
C10   H46   S    
C117  C234  A    
C182  N19   S    
C13   N3    S    
C17   C19   A    
C24   N4    S    
C183  H41   S    
C83   C161  S    
C152  H109  S    
H26   N17   S    
C251  C262  A    
C145  H96   S    
C121  H50   S    
C141  O9    D    
C179  C204  A    
C11   C29   A    
C93   C95   A    
C158  O52   D    
C29   C241  S    
C87   O7    D    
C67   C76   A    
Cr2   O35   S    
C211  C251  A    
C166  O59   D    
C118  C197  S    
C129  C131  A    
