data_mof_unit_19618.cif
_audit_creation_date              2013-03-05T15:40:07-0500
_audit_creation_method            fapswitch 2.2
_symmetry_space_group_name_H-M    P1
_symmetry_Int_Tables_number       1
_space_group_crystal_system       triclinic
_cell_length_a                    28.175154
_cell_length_b                    18.46274
_cell_length_c                    17.026753
_cell_angle_alpha                 89.817863
_cell_angle_beta                  60.935553
_cell_angle_gamma                 89.972035
_cell_volume                      7741.76343455

loop_
_atom_site_label
_atom_site_type_symbol
_atom_site_description
_atom_site_fract_x
_atom_site_fract_y
_atom_site_fract_z
_atom_type_partial_charge
O1    O     O_R   0.746490 0.236330 0.638080 -0.641417
O2    O     O_R   0.253510 0.763670 0.361920 -0.660740
O3    O     O_R   0.253510 0.236330 0.361920 -0.633519
O4    O     O_R   0.746490 0.763670 0.638080 -0.640193
O5    O     O_R   0.246490 0.736330 0.638080 -0.638933
O6    O     O_R   0.753510 0.263670 0.361920 -0.640840
O7    O     O_R   0.753510 0.736330 0.361920 -0.641680
O8    O     O_R   0.246490 0.263670 0.638080 -0.658975
O9    O     O_R   0.674170 0.186160 0.516270 -0.638187
O10   O     O_R   0.325830 0.813840 0.483730 -0.639441
O11   O     O_R   0.325830 0.186160 0.483730 -0.627400
O12   O     O_R   0.674170 0.813840 0.516270 -0.642714
O13   O     O_R   0.174170 0.686160 0.516270 -0.626394
O14   O     O_R   0.825830 0.313840 0.483730 -0.642452
O15   O     O_R   0.825830 0.686160 0.483730 -0.638020
O16   O     O_R   0.174170 0.313840 0.516270 -0.638839
O17   O     O_R   0.739960 0.127620 0.525000 -0.620818
O18   O     O_R   0.260040 0.872380 0.475000 -0.617691
O19   O     O_R   0.260040 0.127620 0.475000 -0.622577
O20   O     O_R   0.739960 0.872380 0.525000 -0.622026
O21   O     O_R   0.239960 0.627620 0.525000 -0.624630
O22   O     O_R   0.760040 0.372380 0.475000 -0.621703
O23   O     O_R   0.760040 0.627620 0.475000 -0.620669
O24   O     O_R   0.239960 0.372380 0.525000 -0.620566
O25   O     O_R   0.680700 0.294870 0.629350 -0.563283
O26   O     O_R   0.319300 0.705130 0.370650 -0.564950
O27   O     O_R   0.319300 0.294870 0.370650 -0.557882
O28   O     O_R   0.680700 0.705130 0.629350 -0.563391
O29   O     O_R   0.180700 0.794870 0.629350 -0.551225
O30   O     O_R   0.819300 0.205130 0.370650 -0.561334
O31   O     O_R   0.819300 0.794870 0.370650 -0.563546
O32   O     O_R   0.180700 0.205130 0.629350 -0.564518
C1    C     C_R   0.701074 0.267076 0.676298 0.912083
C2    C     C_R   0.298883 0.732842 0.323715 0.890497
C3    C     C_R   0.297454 0.271203 0.324663 0.932143
C4    C     C_R   0.700979 0.733081 0.676277 0.911735
C5    C     C_R   0.200982 0.766894 0.676344 0.932358
C6    C     C_R   0.798952 0.232974 0.323681 0.914979
C7    C     C_R   0.798980 0.766966 0.323742 0.912865
C8    C     C_R   0.199747 0.235917 0.676570 0.886250
C9    C     C_R   0.691040 0.129386 0.535854 0.887467
C10   C     C_R   0.308412 0.871003 0.467255 0.890847
C11   C     C_R   0.303165 0.127934 0.483240 0.903998
C12   C     C_R   0.691360 0.870512 0.535112 0.890714
C13   C     C_R   0.196935 0.627956 0.516440 0.902624
C14   C     C_R   0.808644 0.370617 0.464896 0.891743
C15   C     C_R   0.808992 0.629505 0.464044 0.888282
C16   C     C_R   0.191621 0.370966 0.532575 0.884363
Zn1   Zn    Zn3+2 0.792340 0.208750 0.507670 1.042933
Zn2   Zn    Zn3+2 0.207660 0.791250 0.492330 1.049336
Zn3   Zn    Zn3+2 0.207660 0.208750 0.492330 1.057530
Zn4   Zn    Zn3+2 0.792340 0.791250 0.507670 1.044042
Zn5   Zn    Zn3+2 0.292340 0.708750 0.507670 1.049581
Zn6   Zn    Zn3+2 0.707660 0.291250 0.492330 1.044362
Zn7   Zn    Zn3+2 0.707660 0.708750 0.492330 1.041440
Zn8   Zn    Zn3+2 0.292340 0.291250 0.507670 1.043790
C17   C     C_R   0.529087 0.998334 0.564455 0.035011
C18   C     C_R   0.440557 0.997543 0.530778 0.034953
C19   C     C_R   0.059901 0.497802 0.467834 0.032840
C20   C     C_R   0.971329 0.498648 0.434207 0.034317
C21   C     C_R   0.500554 0.063263 0.572888 0.049684
C22   C     C_R   0.469741 0.933207 0.521626 0.048555
C23   C     C_R   0.452965 0.061169 0.563821 0.060587
C24   C     C_R   0.509737 0.932325 0.548860 0.051084
C25   C     C_R   0.047581 0.561517 0.434426 0.062971
C26   C     C_R   0.990667 0.432613 0.450017 0.049309
C27   C     C_R   0.999987 0.563601 0.425252 0.057846
C28   C     C_R   0.030683 0.433429 0.477193 0.048277
C29   C     C_R   0.603338 0.933089 0.569246 0.054593
C30   C     C_R   0.367100 0.060782 0.521257 0.062644
C31   C     C_R   0.386312 0.935424 0.473231 0.062874
C32   C     C_R   0.601954 0.065200 0.572877 0.062975
C33   C     C_R   0.113905 0.435496 0.526028 0.063615
C34   C     C_R   0.898258 0.565511 0.426245 0.063234
C35   C     C_R   0.896781 0.433368 0.430409 0.058441
C36   C     C_R   0.133176 0.561078 0.477841 0.064817
C37   C     C_R   0.656726 0.934546 0.558636 -0.111267
C38   C     C_R   0.329407 0.062422 0.487975 -0.109821
C39   C     C_R   0.339941 0.935909 0.459726 -0.113137
C40   C     C_R   0.656200 0.064825 0.559605 -0.114071
C41   C     C_R   0.160160 0.435875 0.539817 -0.109685
C42   C     C_R   0.843881 0.565075 0.440095 -0.112080
C43   C     C_R   0.843302 0.434777 0.441328 -0.110857
C44   C     C_R   0.170755 0.562513 0.511429 -0.106061
C45   C     C_R   0.681199 0.999794 0.556775 -0.266401
C46   C     C_R   0.316257 0.000323 0.458407 -0.268496
C47   C     C_R   0.183831 0.500247 0.541138 -0.263239
C48   C     C_R   0.818806 0.500034 0.443279 -0.264845
H1    H     H_    0.722322 0.999977 0.546413 0.204062
H2    H     H_    0.284528 0.001142 0.439691 0.200014
H3    H     H_    0.215466 0.500937 0.560072 0.200213
H4    H     H_    0.777613 0.500176 0.453969 0.203782
C49   C     C_R   0.577934 0.998965 0.569687 0.079491
C50   C     C_R   0.398342 0.998068 0.507742 0.076427
C51   C     C_R   0.101997 0.498273 0.491187 0.078909
C52   C     C_R   0.922324 0.499269 0.429424 0.081337
C53   C     C_R   0.079720 0.374868 0.544660 -0.114595
C54   C     C_R   0.929773 0.628923 0.408950 -0.131755
C55   C     C_R   0.926097 0.368802 0.420437 -0.117891
C56   C     C_R   0.126448 0.619115 0.429874 -0.165742
C57   C     C_R   0.574009 0.868489 0.579355 -0.116317
C58   C     C_R   0.373867 0.118552 0.569120 -0.164834
C59   C     C_R   0.420471 0.874826 0.454726 -0.118666
C60   C     C_R   0.570531 0.128562 0.589558 -0.131019
C61   C     C_R   0.040057 0.373057 0.518426 -0.171749
C62   C     C_R   0.979388 0.628091 0.408754 -0.160969
C63   C     C_R   0.970174 0.367869 0.435664 -0.175471
C64   C     C_R   0.083552 0.620369 0.411260 -0.162972
C65   C     C_R   0.530098 0.867558 0.563699 -0.171934
C66   C     C_R   0.416962 0.119871 0.587123 -0.190139
C67   C     C_R   0.460242 0.872936 0.480759 -0.181769
C68   C     C_R   0.521153 0.127748 0.589057 -0.184209
H5    H     H_    0.081859 0.328824 0.582145 0.204495
H6    H     H_    0.917617 0.679927 0.393171 0.205969
H7    H     H_    0.916049 0.318052 0.400920 0.210284
H8    H     H_    0.154568 0.663903 0.404081 0.173250
H9    H     H_    0.583940 0.817719 0.599306 0.209982
H10   H     H_    0.345631 0.163069 0.595352 0.176396
H11   H     H_    0.418201 0.828865 0.417556 0.203464
H12   H     H_    0.582515 0.179523 0.605459 0.206310
H13   H     H_    0.015126 0.324925 0.534938 0.164560
H14   H     H_    0.999660 0.679521 0.399265 0.159294
H15   H     H_    0.989124 0.316247 0.432804 0.172233
H16   H     H_    0.080411 0.667236 0.376010 0.163577
H17   H     H_    0.511145 0.815929 0.566673 0.165193
H18   H     H_    0.420156 0.166600 0.622202 0.151301
H19   H     H_    0.485128 0.824831 0.464441 0.163386
H20   H     H_    0.501038 0.179196 0.597866 0.158241
C69   C     C_R   0.720029 0.263641 0.954190 -0.106825
C70   C     C_R   0.279427 0.734891 0.046222 -0.101295
C71   C     C_R   0.270470 0.289653 0.055082 -0.076147
C72   C     C_R   0.719555 0.736847 0.954647 -0.104037
C73   C     C_R   0.218901 0.761715 0.955301 -0.103297
C74   C     C_R   0.780307 0.236626 0.045469 -0.103677
C75   C     C_R   0.779905 0.763930 0.045837 -0.106495
C76   C     C_R   0.208433 0.253879 0.967441 -0.057852
C77   C     C_R   0.773877 0.287868 0.918478 -0.323104
C78   C     C_R   0.225112 0.712359 0.083362 -0.307389
C79   C     C_R   0.230349 0.235398 0.088303 -0.282862
C80   C     C_R   0.773323 0.712527 0.919315 -0.321445
C81   C     C_R   0.273243 0.784164 0.918168 -0.319762
C82   C     C_R   0.726491 0.212363 0.081135 -0.321460
C83   C     C_R   0.726116 0.788217 0.081209 -0.323657
C84   C     C_R   0.246561 0.311269 0.936780 -0.281947
H21   H     H_    0.792097 0.317921 0.855842 0.206923
H22   H     H_    0.206607 0.683723 0.147022 0.200953
H23   H     H_    0.223288 0.203882 0.146623 0.195739
H24   H     H_    0.791466 0.682410 0.856985 0.207285
H25   H     H_    0.291780 0.812855 0.854555 0.204094
H26   H     H_    0.708284 0.182337 0.143790 0.207131
H27   H     H_    0.707946 0.818310 0.143559 0.206923
H28   H     H_    0.253036 0.343273 0.879360 0.196814
C85   C     C_R   0.804073 0.275462 0.963173 0.479198
C86   C     C_R   0.194768 0.724576 0.038901 0.494203
C87   C     C_R   0.194533 0.225376 0.054148 0.435623
C88   C     C_R   0.803508 0.724827 0.964024 0.481516
C89   C     C_R   0.303576 0.771893 0.962605 0.486383
C90   C     C_R   0.696322 0.224630 0.036385 0.481622
C91   C     C_R   0.695898 0.775775 0.036570 0.480307
C92   C     C_R   0.273769 0.333437 0.983622 0.456229
C93   C     C_R   0.643941 0.327126 0.945166 -0.126028
C94   C     C_R   0.355386 0.671521 0.055539 -0.138694
C95   C     C_R   0.358747 0.325078 0.051768 -0.127201
C96   C     C_R   0.643403 0.673453 0.945655 -0.140213
C97   C     C_R   0.143263 0.826012 0.945741 -0.134248
C98   C     C_R   0.856285 0.173121 0.054680 -0.141299
C99   C     C_R   0.856130 0.827239 0.054773 -0.132785
C100  C     C_R   0.147771 0.168592 0.936940 -0.152654
H29   H     H_    0.632686 0.350777 0.010024 0.200739
H30   H     H_    0.366399 0.647334 0.991045 0.195510
H31   H     H_    0.376418 0.337174 0.981138 0.212969
H32   H     H_    0.632039 0.649676 0.010678 0.192568
H33   H     H_    0.132045 0.849689 0.010563 0.204276
H34   H     H_    0.867569 0.149482 0.989799 0.192593
H35   H     H_    0.867365 0.851242 0.989921 0.200605
H36   H     H_    0.144066 0.133214 0.989551 0.216068
C101  C     C_R   0.614445 0.343782 0.899902 -0.195508
C102  C     C_R   0.385197 0.655600 0.100415 -0.204833
C103  C     C_R   0.388480 0.340293 0.096717 -0.182356
C104  C     C_R   0.614009 0.656845 0.900228 -0.201057
C105  C     C_R   0.114136 0.843372 0.900078 -0.200144
C106  C     C_R   0.885717 0.156409 0.100016 -0.203969
C107  C     C_R   0.885723 0.843491 0.099984 -0.200913
C108  C     C_R   0.116324 0.153762 0.895213 -0.209589
C109  C     C_R   0.627643 0.311723 0.818317 0.268623
C110  C     C_R   0.372168 0.688016 0.181712 0.260892
C111  C     C_R   0.372409 0.312296 0.181083 0.255553
C112  C     C_R   0.627212 0.689188 0.818637 0.257979
C113  C     C_R   0.127433 0.811591 0.818292 0.266117
C114  C     C_R   0.872500 0.188520 0.181604 0.269466
C115  C     C_R   0.872614 0.810920 0.181410 0.272944
C116  C     C_R   0.125884 0.190538 0.817748 0.265051
C117  C     C_R   0.677348 0.277318 0.772559 -0.171384
C118  C     C_R   0.322435 0.722301 0.227553 -0.162873
C119  C     C_R   0.319351 0.288033 0.230524 -0.192780
C120  C     C_R   0.677069 0.723252 0.772667 -0.174349
C121  C     C_R   0.176968 0.776726 0.772787 -0.177519
C122  C     C_R   0.822764 0.222867 0.227353 -0.171756
C123  C     C_R   0.822747 0.776935 0.227422 -0.169559
C124  C     C_R   0.173442 0.229814 0.774172 -0.160062
C125  C     C_R   0.707367 0.259769 0.817125 -0.206461
C126  C     C_R   0.292234 0.739445 0.183172 -0.209037
C127  C     C_R   0.285227 0.284493 0.191121 -0.217724
C128  C     C_R   0.707075 0.740758 0.817248 -0.192278
C129  C     C_R   0.206528 0.758307 0.817865 -0.201661
C130  C     C_R   0.792810 0.240463 0.182694 -0.194432
C131  C     C_R   0.792583 0.759705 0.183030 -0.204237
C132  C     C_R   0.199772 0.253799 0.822551 -0.229988
H37   H     H_    0.745232 0.230190 0.782746 0.182795
H38   H     H_    0.254378 0.769045 0.217553 0.177215
H39   H     H_    0.242929 0.270290 0.232651 0.185928
H40   H     H_    0.745061 0.770191 0.782673 0.181978
H41   H     H_    0.244236 0.728369 0.783658 0.186611
H42   H     H_    0.754932 0.270016 0.217044 0.181979
H43   H     H_    0.754592 0.730284 0.217639 0.182419
H44   H     H_    0.234676 0.288674 0.788603 0.170578
C133  C     C_R   0.689244 0.281858 0.905777 0.158077
C134  C     C_R   0.310193 0.716925 0.094703 0.180300
C135  C     C_R   0.305221 0.299968 0.099433 0.163498
C136  C     C_R   0.688785 0.718751 0.906170 0.172767
C137  C     C_R   0.188215 0.780108 0.906737 0.158931
C138  C     C_R   0.811027 0.218451 0.093975 0.173457
C139  C     C_R   0.810728 0.781967 0.094258 0.159867
C140  C     C_R   0.183671 0.227444 0.910231 0.154864
O33   O     O_R   0.062020 0.072840 0.007170 -0.610965
O34   O     O_R   0.937980 0.927160 0.992830 -0.625708
O35   O     O_R   0.937980 0.072840 0.992830 -0.623251
O36   O     O_R   0.062020 0.927160 0.007170 -0.620733
O37   O     O_R   0.562020 0.572840 0.007170 -0.626400
O38   O     O_R   0.437980 0.427160 0.992830 -0.607757
O39   O     O_R   0.437980 0.572840 0.992830 -0.619610
O40   O     O_R   0.562020 0.427160 0.007170 -0.624447
O41   O     O_R   0.947860 0.073950 0.109290 -0.564993
O42   O     O_R   0.052140 0.926050 0.890710 -0.565246
O43   O     O_R   0.052140 0.073950 0.890710 -0.564755
O44   O     O_R   0.947860 0.926050 0.109290 -0.562051
O45   O     O_R   0.447860 0.573950 0.109290 -0.561804
O46   O     O_R   0.552140 0.426050 0.890710 -0.567961
O47   O     O_R   0.552140 0.573950 0.890710 -0.561239
O48   O     O_R   0.447860 0.426050 0.109290 -0.562537
C141  C     C_R   0.075079 0.098490 0.932205 0.914313
C142  C     C_R   0.927009 0.898894 0.065185 0.913579
C143  C     C_R   0.926995 0.101068 0.065123 0.916532
C144  C     C_R   0.073040 0.898970 0.934845 0.907672
C145  C     C_R   0.572893 0.601210 0.934903 0.913071
C146  C     C_R   0.429690 0.396036 0.062448 0.929825
C147  C     C_R   0.426755 0.600748 0.065333 0.917919
C148  C     C_R   0.573112 0.399049 0.934796 0.905012
Zn9   Zn    Zn3+2 0.505960 0.500000 0.080520 1.125367
Zn10  Zn    Zn3+2 0.494040 0.500000 0.919480 1.151534
Zn11  Zn    Zn3+2 0.005960 1.000000 0.080520 1.139931
Zn12  Zn    Zn3+2 0.994040 0.000000 0.919480 1.124231
S1    S     S_3+6 0.629853 0.188154 0.084109 0.050463
O49   O     O_2   0.618482 0.161378 0.011595 -0.250791
O50   O     O_2   0.623805 0.126319 0.146003 -0.266089
O51   O     O_3   0.584970 0.253217 0.143267 -0.548922
H45   H     H_    0.549257 0.228518 0.172658 0.422648
S2    S     S_3+6 0.370781 0.806158 0.912807 0.038363
O52   O     O_2   0.409672 0.746614 0.860523 -0.282266
O53   O     O_2   0.377567 0.867549 0.849949 -0.283256
O54   O     O_3   0.384792 0.836195 0.992502 -0.533242
H46   H     H_    0.424641 0.843527 0.961186 0.402690
S3    S     S_3+6 0.303646 0.421113 0.957665 0.023141
O55   O     O_2   0.360190 0.416113 0.879438 -0.320359
O56   O     O_2   0.270619 0.469706 0.931764 -0.252129
O57   O     O_3   0.305452 0.457680 0.046577 -0.555171
H47   H     H_    0.327304 0.502462 0.023207 0.380651
S4    S     S_3+6 0.629446 0.812019 0.083793 0.049058
O58   O     O_2   0.589226 0.753742 0.136892 -0.289245
O59   O     O_2   0.623167 0.873900 0.145283 -0.254441
O60   O     O_3   0.617089 0.841948 0.002040 -0.524782
H48   H     H_    0.577408 0.850386 0.032077 0.404617
S5    S     S_3+6 0.127582 0.690195 0.088883 0.044521
O61   O     O_2   0.115065 0.663005 0.017796 -0.244023
O62   O     O_2   0.120873 0.629132 0.152131 -0.278307
O63   O     O_3   0.084028 0.756816 0.147110 -0.566568
H49   H     H_    0.047466 0.734984 0.170512 0.415651
S6    S     S_3+6 0.870615 0.311655 0.915547 0.050474
O64   O     O_2   0.910691 0.253396 0.862747 -0.288021
O65   O     O_2   0.876951 0.373626 0.853687 -0.254509
O66   O     O_3   0.883152 0.341430 0.996973 -0.521184
H50   H     H_    0.922782 0.350523 0.966574 0.407464
S7    S     S_3+6 0.869811 0.688076 0.917044 0.052165
O67   O     O_2   0.880231 0.659893 0.990214 -0.252925
O68   O     O_2   0.876255 0.627206 0.854171 -0.258909
O69   O     O_3   0.915166 0.753356 0.859309 -0.551810
H51   H     H_    0.951091 0.730339 0.838050 0.422261
S8    S     S_3+6 0.128078 0.197476 0.135758 0.026984
O70   O     O_2   0.125878 0.116184 0.142451 -0.326831
O71   O     O_2   0.115444 0.227647 0.225778 -0.269024
O72   O     O_3   0.080976 0.228206 0.110183 -0.514048
H52   H     H_    0.047877 0.199616 0.148502 0.411590
N1    N     N_R   0.590518 0.312831 0.782899 0.214707
O73   O     O_R   0.590546 0.366731 0.733346 -0.350541
O74   O     O_R   0.562448 0.255034 0.789392 -0.386135
N2    N     N_R   0.409504 0.687393 0.216710 0.218874
O75   O     O_R   0.438325 0.744861 0.208161 -0.355320
O76   O     O_R   0.409692 0.633875 0.266570 -0.345834
N3    N     N_R   0.410357 0.307550 0.214619 0.216796
O77   O     O_R   0.411668 0.357619 0.267218 -0.340474
O78   O     O_R   0.450165 0.261515 0.178390 -0.376565
N4    N     N_R   0.589951 0.688717 0.783472 0.217468
O79   O     O_R   0.589608 0.635226 0.734076 -0.344623
O80   O     O_R   0.561637 0.746472 0.790898 -0.365466
N5    N     N_R   0.090551 0.813405 0.782419 0.221110
O81   O     O_R   0.090979 0.867636 0.732973 -0.345821
O82   O     O_R   0.062519 0.755802 0.788040 -0.363221
N6    N     N_R   0.909687 0.187782 0.216908 0.210232
O83   O     O_R   0.936441 0.246432 0.212470 -0.381789
O84   O     O_R   0.910026 0.133788 0.266036 -0.353081
N7    N     N_R   0.910013 0.810850 0.216297 0.215418
O85   O     O_R   0.910831 0.864376 0.265256 -0.351422
O86   O     O_R   0.936650 0.751959 0.211382 -0.392776
N8    N     N_R   0.088958 0.186969 0.782031 0.221908
O87   O     O_R   0.090037 0.131944 0.733519 -0.346197
O88   O     O_R   0.062246 0.244778 0.783134 -0.354199

loop_
_geom_bond_atom_site_label_1
_geom_bond_atom_site_label_2
_geom_bond_distance
_ccdc_geom_bond_type
O4    C4    1.254695 A    
C47   H3    1.085255 S    
C122  C130  1.420442 A    
O72   H52   0.990504 S    
O7    Zn7   2.016197 S    
O31   Zn4   2.074038 S    
O8    Zn8   2.016197 S    
C97   C137  1.395972 A    
C114  C122  1.383597 A    
C12   C37   1.460304 S    
C126  H38   1.083419 S    
C93   C133  1.395838 A    
C54   H6    1.078747 S    
C119  C127  1.416262 A    
O60   H48   0.990251 S    
S5    O63   1.681049 S    
C117  C125  1.420529 A    
O30   C6    1.294238 A    
C21   C23   1.422793 A    
C22   C24   1.411674 A    
O41   C143  1.260423 A    
C92   S3    1.777531 S    
C107  C142  1.441594 S    
C84   C92   1.409856 A    
C25   C64   1.404757 A    
O38   C146  1.231529 A    
C105  C144  1.442756 S    
C53   C61   1.390906 A    
C2    C118  1.450971 S    
C83   H27   1.083170 S    
C43   C48   1.380666 A    
C57   C65   1.386558 A    
O48   Zn9   2.000646 S    
C124  C132  1.421746 A    
C36   C44   1.427332 A    
C130  H42   1.083398 S    
C82   C90   1.407958 A    
C33   C41   1.432096 A    
C98   H34   1.083335 S    
C115  N7    1.439212 S    
S8    O72   1.682836 S    
C46   H2    1.085241 S    
O27   C3    1.285915 A    
N8    O87   1.302381 A    
C116  N8    1.439320 S    
C85   S6    1.771922 S    
C86   S5    1.772859 S    
O36   C144  1.231338 A    
C128  H40   1.083381 S    
C77   C85   1.408261 A    
O23   Zn7   2.021459 S    
C8    C124  1.458050 S    
C80   C88   1.408796 A    
C81   C89   1.407542 A    
N2    O75   1.300514 A    
O30   Zn1   2.074492 S    
S4    O59   1.503382 D    
O24   Zn8   2.021459 S    
C33   C51   1.412964 A    
C93   C101  1.414115 A    
C70   C78   1.404827 A    
C113  C121  1.383553 A    
S3    O56   1.503560 D    
O9    C9    1.259803 A    
O39   C147  1.230463 A    
C88   S7    1.772132 S    
C17   C21   1.411364 A    
C29   C57   1.412966 A    
C36   C56   1.412716 A    
C75   C139  1.497508 S    
C29   C49   1.409122 A    
C54   C62   1.396364 A    
O12   C12   1.259328 A    
O13   C13   1.251926 A    
C116  C124  1.379636 A    
C102  C110  1.385781 A    
C69   C77   1.405074 A    
O7    C7    1.254197 A    
O9    Zn6   2.108114 S    
C106  C114  1.386506 A    
C72   C136  1.497283 S    
N8    O88   1.300589 A    
O37   Zn9   1.984426 S    
O11   Zn8   2.109651 S    
O42   C144  1.260441 A    
C95   C135  1.398966 A    
C131  C139  1.400140 A    
C29   C37   1.425482 A    
C98   C106  1.413824 A    
O16   Zn3   2.109651 S    
C26   C63   1.400555 A    
C106  C143  1.442534 S    
C31   C39   1.432395 A    
O22   Zn6   2.021137 S    
C70   C89   1.417646 A    
O18   C10   1.304178 A    
O54   H46   0.990589 S    
O34   C142  1.229517 A    
C74   C85   1.417182 A    
C16   C41   1.459739 S    
O45   C147  1.260286 A    
C70   C134  1.495345 S    
O43   C141  1.252256 A    
O2    Zn2   2.019441 S    
C22   C67   1.407190 A    
C20   C27   1.411908 A    
C74   C138  1.495465 S    
C6    C122  1.451817 S    
C79   C87   1.400618 A    
O36   Zn11  1.988758 S    
C93   H29   1.083255 S    
C75   C83   1.405270 A    
C37   C45   1.380941 A    
C10   C39   1.459804 S    
O46   Zn10  2.001681 S    
S7    O69   1.680898 S    
C127  H39   1.081383 S    
O43   Zn12  2.000645 S    
C111  N3    1.438638 S    
C125  H37   1.083411 S    
C69   C90   1.417530 A    
O20   C12   1.294907 A    
N6    O84   1.302305 A    
O21   C13   1.289344 A    
N4    O80   1.300555 A    
C56   C64   1.390599 A    
C72   C91   1.417433 A    
O23   C15   1.299348 A    
C73   C86   1.418643 A    
O24   C16   1.304450 A    
C34   C52   1.411694 A    
O17   Zn1   2.021137 S    
C60   C68   1.395487 A    
C76   C87   1.429472 A    
C91   S4    1.771809 S    
C75   C88   1.417665 A    
O40   C148  1.230987 A    
S8    O71   1.503817 D    
C4    C120  1.450625 S    
N1    O73   1.302369 A    
C76   C140  1.528888 S    
O3    C3    1.258966 A    
C62   H14   1.078827 S    
C35   C55   1.412850 A    
C66   H18   1.079232 S    
N7    O86   1.300477 A    
C95   C103  1.411007 A    
C96   H32   1.083313 S    
C120  C128  1.421511 A    
C28   C61   1.407108 A    
C110  N2    1.439045 S    
C99   H35   1.083204 S    
C100  H36   1.070255 S    
C7    C123  1.450227 S    
C110  C118  1.383128 A    
S1    O51   1.680884 S    
O37   C145  1.229661 A    
C132  C140  1.417372 A    
O8    C8    1.259547 A    
C126  C134  1.400427 A    
S2    O52   1.503009 D    
C32   C40   1.432311 A    
C19   C25   1.419518 A    
O2    C2    1.255016 A    
C24   C65   1.400388 A    
C130  C138  1.400315 A    
C42   C48   1.381041 A    
S5    O62   1.503728 D    
C94   C102  1.413362 A    
O12   Zn7   2.109651 S    
C71   C79   1.406224 A    
C129  H41   1.083405 S    
C102  C147  1.441025 S    
C13   C44   1.440120 S    
C109  N1    1.439124 S    
O63   H49   0.991474 S    
O33   Zn11  1.984426 S    
O46   C148  1.260719 A    
S7    O67   1.503373 D    
S6    O64   1.502952 D    
O40   Zn9   1.988758 S    
C87   S8    1.780603 S    
C21   C68   1.409998 A    
O25   C1    1.294144 A    
C18   C22   1.409619 A    
C94   C134  1.395074 A    
O10   C10   1.250894 A    
C121  C129  1.420394 A    
C56   H8    1.079188 S    
C63   H15   1.081812 S    
C98   C138  1.395594 A    
C9    C40   1.469800 S    
S3    O55   1.503208 D    
O14   C14   1.258726 A    
C11   C38   1.439651 S    
O34   Zn12  1.984426 S    
C128  C136  1.400444 A    
C77   H21   1.083228 S    
C30   C50   1.404395 A    
O6    Zn6   2.019441 S    
C55   H7    1.078039 S    
C103  C111  1.378124 A    
O5    C5    1.255764 A    
O33   C141  1.236493 A    
C118  C126  1.420639 A    
C101  C109  1.386149 A    
C59   C67   1.391334 A    
O10   Zn5   2.108114 S    
C69   C133  1.495832 S    
C104  C112  1.384829 A    
C105  C113  1.386338 A    
C25   C27   1.423909 A    
S6    O66   1.682250 S    
C73   C137  1.496370 S    
C108  C116  1.386568 A    
C95   H31   1.077335 S    
C96   C104  1.415016 A    
C3    C119  1.443139 S    
C104  C145  1.441694 S    
N2    O76   1.302345 A    
C1    C117  1.451314 S    
C31   C59   1.408484 A    
O47   Zn10  2.000645 S    
O48   C146  1.266904 A    
O16   C16   1.251484 A    
C34   C42   1.432456 A    
O19   C11   1.289073 A    
C35   C52   1.409818 A    
C81   H25   1.083312 S    
O25   Zn6   2.074492 S    
C34   C54   1.410889 A    
O3    Zn3   2.016197 S    
O27   Zn8   2.074038 S    
C32   C60   1.410608 A    
N3    O77   1.302092 A    
O32   Zn3   2.074038 S    
C113  N5    1.438929 S    
C40   C45   1.380778 A    
C74   C82   1.404579 A    
C112  N4    1.439249 S    
C94   H30   1.083288 S    
C131  H43   1.083391 S    
O15   Zn4   2.109651 S    
C99   C139  1.396030 A    
C41   C47   1.368692 A    
C32   C49   1.411860 A    
C20   C52   1.422112 A    
O22   C14   1.295008 A    
C58   C66   1.389429 A    
C103  C146  1.444615 S    
O18   Zn2   2.021137 S    
C45   H1    1.083950 S    
C30   C58   1.412382 A    
C27   C62   1.410334 A    
C83   C91   1.409012 A    
C72   C80   1.405012 A    
C55   C63   1.386556 A    
C73   C81   1.405039 A    
O47   C145  1.261585 A    
C57   H9    1.078146 S    
C82   H26   1.083221 S    
C76   C84   1.414917 A    
C114  N6    1.439138 S    
C35   C43   1.425994 A    
S1    O49   1.503268 D    
C64   H16   1.079364 S    
C68   H20   1.078772 S    
C14   C43   1.461235 S    
C101  C148  1.442509 S    
S4    O58   1.502930 D    
O28   C4    1.295259 A    
C84   H28   1.077688 S    
N5    O81   1.302400 A    
O29   C5    1.294189 A    
C39   C46   1.368851 A    
O35   Zn12  1.988756 S    
C60   H12   1.078560 S    
S3    O57   1.682749 S    
C26   C28   1.411542 A    
N7    O85   1.302285 A    
C30   C38   1.426342 A    
C44   C47   1.374808 A    
O15   C15   1.260463 A    
C80   H24   1.083131 S    
O1    C1    1.255255 A    
C20   C26   1.412633 A    
C31   C50   1.412831 A    
C33   C53   1.408269 A    
C79   H23   1.081075 S    
O4    Zn4   2.016197 S    
O5    Zn5   2.019441 S    
C115  C123  1.381968 A    
C36   C51   1.404737 A    
O35   C143  1.231391 A    
O69   H51   0.990307 S    
O14   Zn1   2.108114 S    
C97   H33   1.083123 S    
C71   C135  1.511520 S    
C15   C42   1.469732 S    
O44   C142  1.261649 A    
O26   C2    1.294258 A    
C99   C107  1.415333 A    
C48   H4    1.083940 S    
C100  C108  1.406376 A    
C108  C141  1.440293 S    
O11   C11   1.252761 A    
C5    C121  1.452430 S    
C58   H10   1.079084 S    
N1    O74   1.300587 A    
C96   C136  1.395935 A    
C132  H44   1.077859 S    
C17   C49   1.421734 A    
O45   Zn9   2.001680 S    
C19   C51   1.422383 A    
C100  C140  1.400550 A    
O28   Zn7   2.074038 S    
O29   Zn2   2.074492 S    
O42   Zn12  2.001681 S    
S1    O50   1.503674 D    
N5    O82   1.300288 A    
O66   H50   0.990449 S    
O13   Zn2   2.108114 S    
S2    O53   1.503468 D    
C19   C28   1.409943 A    
C89   S2    1.772690 S    
S4    O60   1.682255 S    
O51   H45   0.990255 S    
C123  C131  1.421510 A    
S5    O61   1.503393 D    
C61   H13   1.081342 S    
N3    O78   1.300404 A    
C65   H17   1.081772 S    
C67   H19   1.081352 S    
S6    O65   1.503396 D    
S2    O54   1.682302 S    
O44   Zn11  2.000646 S    
C53   H5    1.080512 S    
O26   Zn5   2.074492 S    
N6    O83   1.300544 A    
C17   C24   1.412918 A    
C18   C23   1.419282 A    
N4    O79   1.302312 A    
C111  C119  1.385519 A    
C59   H11   1.080495 S    
C109  C117  1.383435 A    
C78   C86   1.408004 A    
C107  C115  1.384769 A    
C127  C135  1.406778 A    
C78   H22   1.083421 S    
C97   C105  1.413800 A    
S8    O70   1.503865 D    
C23   C66   1.404173 A    
C18   C50   1.421941 A    
C90   S1    1.772090 S    
C125  C133  1.400135 A    
O20   Zn4   2.021459 S    
O21   Zn5   2.021137 S    
C38   C46   1.374959 A    
O1    Zn1   2.019441 S    
C129  C137  1.401103 A    
O31   C7    1.295480 A    
O32   C8    1.296126 A    
C71   C92   1.423536 A    
O17   C9    1.299058 A    
O57   H47   0.990632 S    
O41   Zn11  2.001680 S    
O19   Zn3   2.021459 S    
C112  C120  1.382371 A    
O38   Zn10  1.984426 S    
O39   Zn10  1.988756 S    
O6    C6    1.255428 A    
S7    O68   1.503525 D    
