data_mof_unit_37291.cif
_audit_creation_date              2012-12-10T19:14:55-0500
_audit_creation_method            fapswitch 2.2
_symmetry_space_group_name_H-M    P1
_symmetry_Int_Tables_number       1
_space_group_crystal_system       triclinic
_cell_length_a                    16.011766
_cell_length_b                    14.733553
_cell_length_c                    10.865531
_cell_angle_alpha                 89.916536
_cell_angle_beta                  90.3013
_cell_angle_gamma                 90.014356
_cell_volume                      2563.25138635

loop_
_atom_site_label
_atom_site_type_symbol
_atom_type_description
_atom_site_fract_x
_atom_site_fract_y
_atom_site_fract_z
_atom_type_partial_charge
C1    C     C_1   0.251896 0.500049 0.500846 -0.129447
C2    C     C_1   0.748104 0.499936 0.499310 -0.129366
C3    C     C_R   0.520743 0.499316 0.874045 -0.231348
C4    C     C_R   0.479354 0.500677 0.125927 -0.231311
C5    C     C_R   0.500503 0.902847 0.501179 -0.319660
C6    C     C_R   0.499496 0.097160 0.498881 -0.319742
C7    C     C_R   0.572788 0.952541 0.535134 0.341240
C8    C     C_R   0.427227 0.047468 0.464842 0.341130
C9    C     C_R   0.427867 0.951196 0.466058 0.346899
C10   C     C_R   0.572115 0.048812 0.534088 0.346909
C11   C     C_R   0.956048 0.582980 0.500496 0.124314
C12   C     C_R   0.043952 0.416969 0.500006 0.124268
C13   C     C_R   0.043852 0.583060 0.502240 0.124876
C14   C     C_R   0.956147 0.416887 0.498286 0.124810
C15   C     C_R   0.340854 0.500003 0.500252 0.823441
C16   C     C_R   0.659146 0.499995 0.499769 0.823464
C17   C     C_R   0.489187 0.500176 0.261905 0.804392
C18   C     C_R   0.510846 0.499822 0.738080 0.804444
C19   C     C_R   0.912730 0.499896 0.498944 -0.053445
C20   C     C_R   0.087270 0.500054 0.501511 -0.053448
C21   C     C_1   0.500443 0.802672 0.500688 0.273712
C22   C     C_1   0.499555 0.197331 0.499330 0.273276
C23   C     C_1   0.823081 0.499858 0.498952 0.072895
C24   C     C_1   0.176920 0.500104 0.501346 0.072972
C25   C     C_R   0.463141 0.668359 0.111232 -0.123324
C26   C     C_R   0.537026 0.331655 0.888728 -0.123311
C27   C     C_R   0.545587 0.665339 0.887251 -0.120975
C28   C     C_R   0.454567 0.334627 0.112703 -0.121103
C29   C     C_R   0.484037 0.749526 0.053056 -0.132886
C30   C     C_R   0.516159 0.250473 0.946891 -0.133049
C31   C     C_R   0.528609 0.747906 0.944011 -0.135253
C32   C     C_R   0.471583 0.252067 0.055937 -0.135177
C33   C     C_R   0.517723 0.582531 0.939171 0.084781
C34   C     C_R   0.482405 0.417454 0.060801 0.084756
C35   C     C_R   0.486692 0.583641 0.060330 0.084152
C36   C     C_R   0.513439 0.416355 0.939643 0.084245
Cu1   Cu    Cu3+1 0.500000 0.589220 0.500000 0.989106
Cu2   Cu    Cu3+1 0.500000 0.410780 0.500000 0.989474
H1    H     H_    0.451776 0.189115 0.097778 0.116098
H2    H     H_    0.548437 0.810843 0.902163 0.116135
H3    H     H_    0.533123 0.186124 0.906396 0.116516
H4    H     H_    0.467096 0.813884 0.093531 0.116673
H5    H     H_    0.426318 0.672915 0.194043 0.149928
H6    H     H_    0.573851 0.327132 0.805912 0.149780
H7    H     H_    0.582404 0.666957 0.804228 0.142018
H8    H     H_    0.417732 0.332985 0.195708 0.142223
N1    N     N_1   0.500000 0.276710 0.500000 -0.169816
N2    N     N_1   0.500000 0.723290 0.500000 -0.170015
O1    O     O_R   0.380310 0.575320 0.500020 -0.568464
O2    O     O_R   0.619690 0.424680 0.499980 -0.568036
O3    O     O_R   0.619690 0.575320 0.499980 -0.564609
O4    O     O_R   0.380310 0.424680 0.500020 -0.564457
O5    O     O_R   0.499990 0.575350 0.319650 -0.579190
O6    O     O_R   0.500010 0.424650 0.680350 -0.579171
O7    O     O_R   0.500010 0.575350 0.680350 -0.578445
O8    O     O_R   0.499990 0.424650 0.319650 -0.578458
I1    I     I_    0.112165 0.707918 0.507253 -0.275819
I2    I     I_    0.887835 0.292020 0.493455 -0.275692
I3    I     I_    0.887517 0.707731 0.498957 -0.270374
I4    I     I_    0.112483 0.292220 0.501581 -0.270083
O9    O     O_3   0.645230 0.095300 0.560179 -0.510008
C37   C     C_3   0.643811 0.123942 0.684200 0.067312
H9    H     H_    0.650379 0.064914 0.747193 0.141153
H10   H     H_    0.585259 0.160849 0.706681 0.111430
C38   C     C_3   0.716446 0.188204 0.707553 -0.696446
H11   H     H_    0.710459 0.249010 0.647537 0.258647
H12   H     H_    0.716298 0.210326 0.805204 0.188599
H13   H     H_    0.776471 0.153425 0.688024 0.276811
O10   O     O_3   0.354730 0.904677 0.440214 -0.510131
C39   C     C_3   0.355920 0.876011 0.316191 0.067539
H14   H     H_    0.415154 0.840839 0.292542 0.110303
H15   H     H_    0.347349 0.934832 0.253420 0.143155
C40   C     C_3   0.284736 0.809669 0.294101 -0.697925
H16   H     H_    0.224061 0.842762 0.314448 0.277722
H17   H     H_    0.284722 0.787401 0.196497 0.188544
H18   H     H_    0.292600 0.749171 0.354188 0.258235
O11   O     O_3   0.353281 0.091508 0.435903 -0.513175
C41   C     C_3   0.358156 0.127834 0.315579 0.066040
H19   H     H_    0.395946 0.085131 0.251969 0.091154
H20   H     H_    0.385757 0.196854 0.319016 0.146120
C42   C     C_3   0.270653 0.135779 0.261676 -0.692927
H21   H     H_    0.232097 0.181139 0.319704 0.276877
H22   H     H_    0.273871 0.164618 0.167323 0.191210
H23   H     H_    0.240818 0.067794 0.257231 0.255050
O12   O     O_3   0.646784 0.908521 0.563840 -0.513233
C43   C     C_3   0.642046 0.871926 0.684031 0.066982
H24   H     H_    0.615307 0.802498 0.680159 0.146527
H25   H     H_    0.603556 0.913929 0.747624 0.090757
C44   C     C_3   0.729525 0.865184 0.738386 -0.692694
H26   H     H_    0.758462 0.933624 0.743347 0.254532
H27   H     H_    0.726439 0.836035 0.832574 0.191234
H28   H     H_    0.768838 0.820590 0.680339 0.277154

loop_
_geom_bond_atom_site_label_1
_geom_bond_atom_site_label_2
_ccdc_geom_bond_type
C7    C10   A    
C29   H4    S    
C40   H16   S    
C16   O3    A    
C25   H5    S    
C42   H21   S    
C26   H6    S    
O11   C41   S    
C27   C33   A    
C28   H8    S    
Cu1   Cu2   S    
C16   O2    A    
Cu1   O3    S    
C43   H25   S    
Cu2   O4    S    
C3    C33   A    
C6    C22   S    
C31   H2    S    
C3    C18   S    
C32   H1    S    
C37   H10   S    
C20   C24   S    
C8    C9    A    
C38   H12   S    
C30   H3    S    
C39   H14   S    
C1    C15   S    
C44   H27   S    
C2    C16   S    
C34   C36   A    
C13   C20   A    
C21   N2    T    
Cu1   O5    S    
C27   H7    S    
C22   N1    T    
C4    C35   A    
C28   C34   A    
C40   H17   S    
O10   C39   S    
C11   I3    S    
C42   H22   S    
C25   C29   A    
C14   I2    S    
C4    C34   A    
C27   C31   A    
C28   C32   A    
C5    C7    A    
C43   H24   S    
C6    C8    A    
O12   C43   S    
Cu1   N2    S    
C12   I4    S    
C19   C23   S    
C5    C9    A    
C37   H9    S    
Cu1   O1    S    
Cu2   O6    S    
C38   H13   S    
C11   C19   A    
C12   C20   A    
C39   C40   S    
C5    C21   S    
C15   O4    A    
C44   H28   S    
C17   O8    A    
Cu2   N1    S    
C18   O7    A    
C25   C35   A    
C4    C17   S    
C26   C36   A    
C12   C14   A    
C26   C30   A    
C8    O11   S    
C40   H18   S    
C10   O9    S    
C17   O5    A    
C42   H23   S    
C37   C38   S    
C41   H19   S    
C14   C19   A    
C9    O10   S    
C43   C44   S    
C6    C10   A    
Cu2   O2    S    
Cu2   O8    S    
C29   C31   A    
C30   C32   A    
C11   C13   A    
C41   C42   S    
C7    O12   S    
C3    C36   A    
C33   C35   A    
C41   H20   S    
C15   O1    A    
O9    C37   S    
C18   O6    A    
Cu1   O7    S    
C13   I1    S    
C1    C24   T    
C38   H11   S    
C2    C23   T    
C39   H15   S    
C44   H26   S    
