data_mof_unit_37111.cif
_audit_creation_date              2012-12-10T17:39:17-0500
_audit_creation_method            fapswitch 2.2
_symmetry_space_group_name_H-M    P1
_symmetry_Int_Tables_number       1
_space_group_crystal_system       triclinic
_cell_length_a                    12.310901
_cell_length_b                    13.152453
_cell_length_c                    27.806966
_cell_angle_alpha                 77.771949
_cell_angle_beta                  101.155302
_cell_angle_gamma                 116.521625
_cell_volume                      3911.99261035

loop_
_atom_site_label
_atom_site_type_symbol
_atom_type_description
_atom_site_fract_x
_atom_site_fract_y
_atom_site_fract_z
_atom_type_partial_charge
C1    C     C_R   0.854881 0.286525 0.503831 0.778702
C2    C     C_R   0.088807 0.488735 0.730332 -0.192405
C3    C     C_R   0.991321 0.496239 0.745801 0.299598
C4    C     C_R   0.992357 0.496553 0.897609 -0.043293
C5    C     C_R   0.967484 0.394574 0.880065 -0.027005
C6    C     C_R   0.943166 0.293293 0.913266 -0.146507
C7    C     C_R   0.016016 0.598216 0.863781 -0.029489
C8    C     C_R   0.996507 0.498390 0.645211 -0.080779
C9    C     C_R   0.001119 0.499446 0.354774 -0.037504
C10   C     C_R   0.979039 0.395630 0.034067 0.041330
C11   C     C_R   0.014350 0.599606 0.016691 0.042187
C12   C     C_R   0.999008 0.499387 0.592399 0.823056
C13   C     C_R   0.997705 0.497857 0.050689 0.067713
C14   C     C_R   0.968123 0.298302 0.069858 -0.202772
C15   C     C_R   0.971196 0.300173 0.119847 -0.145640
C16   C     C_R   0.985988 0.399124 0.136353 -0.020519
C17   C     C_R   0.999702 0.498331 0.101967 -0.044121
C18   C     C_R   0.015317 0.597988 0.118999 -0.019135
C19   C     C_R   0.016807 0.596619 0.169734 0.531842
C20   C     C_R   0.987419 0.401173 0.186757 0.532667
C21   C     C_R   0.095830 0.486477 0.288751 -0.104900
C22   C     C_R   0.095377 0.486594 0.338851 -0.219700
C23   C     C_R   0.145108 0.713607 0.492808 0.802898
C24   C     C_R   0.907313 0.511844 0.319710 -0.222823
C25   C     C_R   0.907830 0.511396 0.269690 -0.102712
C26   C     C_R   0.002100 0.498900 0.253990 0.354957
C27   C     C_R   0.972791 0.394103 0.982606 0.042213
C28   C     C_R   0.993847 0.496930 0.948851 0.070084
C29   C     C_R   0.016564 0.600168 0.965692 0.041783
C30   C     C_R   0.945389 0.292727 0.963430 -0.202143
C31   C     C_R   0.041043 0.699710 0.880829 -0.151878
C32   C     C_R   0.027669 0.697519 0.035100 -0.203853
C33   C     C_R   0.028455 0.696560 0.085181 -0.147962
C34   C     C_R   0.000456 0.499945 0.407609 0.793090
C35   C     C_R   0.041631 0.700996 0.930670 -0.200015
C36   C     C_R   0.271263 0.024610 0.437438 -0.177079
C37   C     C_R   0.227727 0.835213 0.482771 -0.050689
C38   C     C_R   0.815816 0.083355 0.532162 -0.178644
C39   C     C_R   0.737271 0.967804 0.539901 -0.143070
C40   C     C_R   0.613654 0.931169 0.523125 -0.165157
C41   C     C_R   0.566169 0.009959 0.496395 0.077202
C42   C     C_R   0.649408 0.124938 0.483090 0.034752
C43   C     C_R   0.439167 0.978039 0.482084 0.033056
C44   C     C_R   0.397814 0.057754 0.450834 0.144418
C45   C     C_R   0.966930 0.396179 0.829378 0.558787
C46   C     C_R   0.483743 0.167426 0.432842 0.140362
C47   C     C_R   0.607743 0.197858 0.447893 -0.192015
C48   C     C_R   0.351646 0.869091 0.498910 -0.234090
C49   C     C_R   0.187232 0.913975 0.452894 -0.196495
C50   C     C_R   0.772905 0.163455 0.504910 -0.090877
C51   C     C_R   0.347022 0.328944 0.579042 -0.294756
C52   C     C_R   0.759292 0.645095 0.432979 0.069101
C53   C     C_R   0.662430 0.676398 0.418330 -0.249364
C54   C     C_R   0.558940 0.621522 0.443464 -0.195613
C55   C     C_R   0.551139 0.534156 0.483881 -0.007024
C56   C     C_R   0.015257 0.596236 0.813451 0.574800
C57   C     C_R   0.652973 0.505122 0.497592 0.290780
C58   C     C_R   0.446887 0.474909 0.511269 -0.039020
C59   C     C_R   0.446950 0.388306 0.551506 0.172146
C60   C     C_R   0.546825 0.361493 0.564243 -0.284326
C61   C     C_R   0.647420 0.418677 0.538014 -0.192687
C62   C     C_R   0.341824 0.497511 0.500798 0.014830
C63   C     C_R   0.246974 0.355425 0.566880 0.069155
C64   C     C_R   0.895895 0.506229 0.711115 0.504842
C65   C     C_R   0.898109 0.504961 0.660815 -0.348211
C66   C     C_R   0.091705 0.490112 0.680406 -0.216897
Cu1   Cu    Cu3+1 0.098270 0.475420 0.511360 0.936608
Cu2   Cu    Cu3+1 0.901730 0.524580 0.488640 0.922729
H1    H     H_    0.168510 0.484760 0.669410 0.169279
H2    H     H_    0.060769 0.779312 0.855631 0.186106
H3    H     H_    0.035929 0.776569 0.011783 0.139390
H4    H     H_    0.833288 0.521524 0.330877 0.157912
H5    H     H_    0.039149 0.773944 0.097259 0.185278
H6    H     H_    0.834786 0.520523 0.243054 0.143495
H7    H     H_    0.064256 0.783589 0.940452 0.140617
H8    H     H_    0.091160 0.889006 0.440062 0.152926
H9    H     H_    0.236053 0.082446 0.413862 0.153788
H10   H     H_    0.162769 0.482283 0.757179 0.158895
H11   H     H_    0.377275 0.807811 0.524686 0.149009
H12   H     H_    0.910051 0.110243 0.548407 0.152916
H13   H     H_    0.558653 0.840175 0.530729 0.126130
H14   H     H_    0.771698 0.906460 0.560404 0.140085
H15   H     H_    0.671670 0.278756 0.430543 0.177927
H16   H     H_    0.169446 0.309973 0.587958 0.126280
H17   H     H_    0.547593 0.295565 0.595077 0.162969
H18   H     H_    0.346422 0.262585 0.609827 0.145966
H19   H     H_    0.333716 0.561695 0.470908 0.123317
H20   H     H_    0.839272 0.688186 0.413273 0.129371
H21   H     H_    0.922129 0.213374 0.900611 0.185045
H22   H     H_    0.486792 0.649275 0.430532 0.137904
H23   H     H_    0.667589 0.743458 0.387388 0.153093
H24   H     H_    0.719094 0.392077 0.551101 0.209602
H25   H     H_    0.169003 0.477142 0.365001 0.156793
H26   H     H_    0.169245 0.477177 0.276862 0.142960
H27   H     H_    0.962002 0.223153 0.145619 0.187599
H28   H     H_    0.958877 0.219055 0.060780 0.140724
H29   H     H_    0.923215 0.210308 0.986007 0.139530
H30   H     H_    0.822483 0.507366 0.634048 0.157817
N1    N     N_R   0.990833 0.496122 0.797331 -0.445298
N2    N     N_R   0.002543 0.498990 0.202414 -0.466773
N3    N     N_R   0.246290 0.438210 0.528570 -0.180250
N4    N     N_R   0.754320 0.561170 0.471730 -0.207571
O1    O     O_R   0.972510 0.318140 0.514280 -0.578407
O2    O     O_2   0.972474 0.305829 0.219799 -0.544118
O3    O     O_2   0.039526 0.693650 0.780892 -0.556512
O4    O     O_2   0.033230 0.692324 0.186357 -0.543338
O5    O     O_R   0.806530 0.359640 0.495100 -0.604439
O6    O     O_R   0.082990 0.479270 0.579320 -0.583946
O7    O     O_R   0.917010 0.520770 0.560140 -0.600481
O8    O     O_R   0.193470 0.640360 0.504900 -0.587510
O9    O     O_R   0.027490 0.681860 0.485720 -0.584952
O10   O     O_R   0.082990 0.479230 0.439860 -0.583901
O11   O     O_R   0.917010 0.520730 0.420680 -0.595874
O12   O     O_2   0.942311 0.298678 0.812177 -0.539007
O13   O     O_3   0.797908 0.507514 0.728346 -0.573990
C67   C     C_3   0.765697 0.594988 0.700203 0.070654
H31   H     H_    0.703923 0.564045 0.666404 0.141588
H32   H     H_    0.847430 0.674987 0.689484 0.159459
C68   C     C_3   0.697456 0.624876 0.731045 -0.735330
H33   H     H_    0.756943 0.656486 0.765140 0.261043
H34   H     H_    0.670747 0.693000 0.709287 0.193847
H35   H     H_    0.613766 0.547791 0.741616 0.247243
C69   C     C_3   0.446010 0.254033 0.397976 -0.865975
H36   H     H_    0.525899 0.335435 0.387653 0.235223
H37   H     H_    0.395163 0.218379 0.363389 0.235940
H38   H     H_    0.387416 0.275465 0.416029 0.235432

loop_
_geom_bond_atom_site_label_1
_geom_bond_atom_site_label_2
_ccdc_geom_bond_type
C10   C27   A    
C58   C62   A    
C21   C26   A    
C8    C66   A    
C34   O10   A    
C41   C42   A    
C63   N3    A    
Cu1   O1    S    
C69   H36   S    
C53   C54   A    
C34   O11   A    
C57   N4    A    
C30   H29   S    
C52   N4    A    
C48   H11   S    
C28   C29   A    
Cu2   N4    S    
C65   H30   S    
C54   H22   S    
C36   H9    S    
C15   H27   S    
C5    C6    A    
C9    C22   A    
C69   H37   S    
C66   H1    S    
C21   H26   S    
O13   C67   S    
C67   H31   S    
C25   H6    S    
C54   C55   A    
C45   O12   S    
C31   H2    S    
C16   C17   A    
C53   H23   S    
Cu2   O5    S    
C47   H15   S    
C43   C48   A    
C1    O1    A    
C61   H24   S    
C16   C20   A    
Cu2   O11   S    
C42   C47   A    
C62   N3    A    
C59   C60   A    
C64   O13   S    
C21   C22   A    
C27   C30   A    
C41   C43   A    
C7    C56   A    
C4    C7    A    
C51   H18   S    
C14   H28   S    
C12   O7    A    
C4    C28   A    
C44   C46   A    
C32   H3    S    
C68   H34   S    
C24   H4    S    
C7    C31   A    
Cu1   Cu2   S    
C52   H20   S    
C51   C63   A    
C24   C25   A    
C45   N1    A    
C39   C40   A    
C12   O6    A    
C18   C19   A    
C69   H38   S    
C58   C59   A    
C23   C37   S    
C5    C45   A    
C60   C61   A    
Cu2   O9    S    
C43   C44   A    
C2    H10   S    
C37   C49   A    
Cu1   O8    S    
C20   N2    A    
C8    C12   S    
C35   H7    S    
C17   C18   A    
C49   H8    S    
C37   C48   A    
C42   C50   A    
C38   C50   A    
C33   H5    S    
C40   C41   A    
C6    C30   A    
C1    O5    A    
C11   C32   A    
C55   C57   A    
C10   C14   A    
C9    C34   S    
C22   H25   S    
C31   C35   A    
C46   C69   S    
C36   C44   A    
C51   C59   A    
C52   C53   A    
Cu1   N3    S    
C1    C50   S    
C68   H35   S    
C23   O8    A    
C46   C47   A    
C40   H13   S    
C39   H14   S    
C4    C5    A    
C2    C66   A    
C10   C13   A    
C68   H33   S    
C9    C24   A    
C57   C61   A    
C20   O2    S    
C6    H21   S    
C23   O9    A    
C62   H19   S    
C29   C35   A    
C67   C68   S    
C13   C17   A    
C63   H16   S    
C32   C33   A    
C2    C3    A    
C25   C26   A    
C64   C65   A    
C19   N2    A    
C11   C13   A    
C38   C39   A    
C38   H12   S    
C67   H32   S    
Cu2   O7    S    
C3    C64   A    
Cu1   O6    S    
C18   C33   A    
C56   O3    S    
C19   O4    S    
C3    N1    S    
Cu1   O10   S    
C8    C65   A    
C11   C29   A    
C55   C58   A    
C27   C28   A    
C14   C15   A    
C60   H17   S    
C56   N1    A    
C36   C49   A    
C15   C16   A    
C26   N2    S    
