data_mof_unit_26115.cif
_audit_creation_date              2012-12-10T19:01:22-0500
_audit_creation_method            fapswitch 2.2
_symmetry_space_group_name_H-M    P1
_symmetry_Int_Tables_number       1
_space_group_crystal_system       triclinic
_cell_length_a                    9.579785
_cell_length_b                    10.834635
_cell_length_c                    15.460809
_cell_angle_alpha                 88.489505
_cell_angle_beta                  74.031657
_cell_angle_gamma                 89.237648
_cell_volume                      1542.24397301

loop_
_atom_site_label
_atom_site_type_symbol
_atom_type_description
_atom_site_fract_x
_atom_site_fract_y
_atom_site_fract_z
_atom_type_partial_charge
C1    C     C_R   0.002015 0.262365 0.497299 0.870867
C2    C     C_R   0.673083 0.555113 0.905390 0.065318
C3    C     C_R   0.775221 0.584579 0.951892 0.138066
C4    C     C_R   0.523080 0.551627 0.951827 -0.106199
C5    C     C_R   0.480019 0.545966 0.047750 0.010300
C6    C     C_R   0.589628 0.557990 0.093938 0.398649
C7    C     C_R   0.731639 0.590237 0.045250 -0.317918
C8    C     C_R   0.414553 0.549170 0.905100 0.335973
C9    C     C_R   0.278378 0.502701 0.948245 -0.185443
C10   C     C_R   0.234310 0.488092 0.041738 0.027570
C11   C     C_R   0.330089 0.523201 0.092421 0.027308
C12   C     C_R   0.917926 0.505208 0.672002 0.816387
C13   C     C_R   0.091936 0.448226 0.085394 0.410520
C14   C     C_R   0.040831 0.453966 0.179477 -0.315558
C15   C     C_R   0.270604 0.537531 0.185240 -0.159037
C16   C     C_R   0.114774 0.060216 0.514221 -0.005324
C17   C     C_R   0.009155 0.129117 0.486842 -0.128111
C18   C     C_R   0.914368 0.066280 0.446754 0.243863
C19   C     C_R   0.911600 0.936643 0.450384 -0.273124
C20   C     C_R   0.004302 0.870257 0.490806 -0.162402
C21   C     C_R   0.110775 0.933064 0.516889 0.059001
C22   C     C_3   0.153616 0.920468 0.602423 0.117956
C23   C     C_R   0.000035 0.737331 0.498462 0.820606
C24   C     C_3   0.163138 0.061500 0.599140 0.531913
C25   C     C_R   0.604350 0.548899 0.428666 0.243198
C26   C     C_R   0.547183 0.442073 0.566563 -0.065255
C27   C     C_R   0.397116 0.442169 0.568127 0.341018
C28   C     C_R   0.457519 0.548422 0.428385 0.249842
C29   C     C_3   0.465581 0.678233 0.392821 -0.469177
C30   C     C_3   0.623493 0.678893 0.393857 -0.502183
C31   C     C_R   0.082250 0.500812 0.327823 0.793034
C32   C     C_R   0.872349 0.528409 0.769036 -0.060347
C33   C     C_R   0.129823 0.499147 0.229187 -0.122036
C34   C     C_R   0.922326 0.597846 0.905059 -0.121586
C35   C     C_R   0.970733 0.570331 0.813949 -0.190959
C36   C     C_R   0.725119 0.519670 0.815331 -0.223456
Cu1   Cu    Cu3+1 0.140670 0.499980 0.500000 0.973885
Cu2   Cu    Cu3+1 0.859330 0.500020 0.500000 0.955581
H1    H     H_    0.812418 0.606522 0.080853 0.147926
H2    H     H_    0.836596 0.888379 0.422351 0.153692
H3    H     H_    0.066121 0.880281 0.659007 0.097938
H4    H     H_    0.583816 0.396288 0.619232 0.160010
H5    H     H_    0.451720 0.684821 0.323897 0.206807
H6    H     H_    0.328840 0.584580 0.224713 0.205322
H7    H     H_    0.396610 0.743011 0.441078 0.263250
H8    H     H_    0.700732 0.686161 0.325582 0.188711
H9    H     H_    0.644003 0.743013 0.443824 0.222407
H10   H     H_    0.931812 0.423977 0.213614 0.146421
H11   H     H_    0.202873 0.488722 0.908717 0.200987
H12   H     H_    0.000142 0.626650 0.939598 0.148958
H13   H     H_    0.084716 0.581113 0.778992 0.185035
H14   H     H_    0.652032 0.481238 0.781036 0.189949
N1    N     N_R   0.648210 0.500930 0.499430 -0.209405
N2    N     N_R   0.352300 0.500890 0.499430 -0.224991
O1    O     O_R   0.118810 0.319640 0.500000 -0.601337
O2    O     O_R   0.881230 0.319680 0.499990 -0.551109
O3    O     O_R   0.055580 0.499970 0.629840 -0.566068
O4    O     O_R   0.818000 0.500010 0.629830 -0.591291
O5    O     O_R   0.118770 0.680320 0.500010 -0.555445
O6    O     O_R   0.881190 0.680360 0.500000 -0.584529
O7    O     O_R   0.182000 0.499990 0.370170 -0.579108
O8    O     O_R   0.944420 0.500030 0.370160 -0.581422
O9    O     O_3   0.005959 0.402464 0.035182 -0.754240
H15   H     H_    0.911790 0.375574 0.076227 0.328309
N3    N     N_2   0.820069 0.131568 0.404528 -0.413538
H16   H     H_    0.727693 0.083444 0.405027 0.243438
C37   C     C_3   0.891360 0.180115 0.315555 -0.650573
H17   H     H_    0.932933 0.103286 0.268954 0.217099
H18   H     H_    0.983042 0.240638 0.317352 0.224180
H19   H     H_    0.812332 0.235356 0.289733 0.221484
O10   O     O_3   0.287948 0.860173 0.588832 -0.731828
H20   H     H_    0.302882 0.847724 0.649464 0.327840
O11   O     O_3   0.059623 0.116865 0.670222 -0.771073
H21   H     H_    0.088971 0.096464 0.725710 0.312024
N4    N     N_2   0.309073 0.109030 0.588778 -0.415504
H22   H     H_    0.354774 0.078970 0.638724 0.247353
C38   C     C_3   0.411625 0.118284 0.500370 -0.659874
H23   H     H_    0.511994 0.163129 0.506186 0.221426
H24   H     H_    0.366799 0.176910 0.454339 0.236974
H25   H     H_    0.439384 0.025223 0.471926 0.248352
N5    N     N_2   0.292260 0.383801 0.641224 -0.384472
H26   H     H_    0.219774 0.328624 0.622901 0.333240
C39   C     C_3   0.331236 0.339068 0.720577 -0.725301
H27   H     H_    0.407683 0.259859 0.704177 0.215176
H28   H     H_    0.231997 0.308476 0.772543 0.247316
H29   H     H_    0.381444 0.413548 0.748802 0.278144
O12   O     O_3   0.561826 0.527467 0.184378 -0.771103
H30   H     H_    0.651133 0.536694 0.204197 0.313814
O13   O     O_3   0.433565 0.600038 0.819911 -0.767718
H31   H     H_    0.508516 0.665060 0.810182 0.333612

loop_
_geom_bond_atom_site_label_1
_geom_bond_atom_site_label_2
_ccdc_geom_bond_type
C8    C9    A    
O12   H30   S    
C16   C21   A    
O11   H21   S    
C31   O7    A    
C19   C20   A    
C4    C8    A    
C14   C33   A    
N5    H26   S    
C27   N2    A    
C38   H23   S    
C25   C28   A    
C23   O5    A    
C26   C27   A    
C29   C30   S    
C32   C36   A    
C28   C29   S    
C1    O2    A    
C25   N1    A    
C15   H6    S    
C5    C11   A    
C3    C7    A    
C5    C6    A    
C24   O11   S    
C22   H3    S    
C34   C35   A    
Cu2   O4    S    
C11   C15   A    
C16   C17   A    
N3    C37   S    
C31   C33   S    
C9    C10   A    
C36   H14   S    
C12   O4    A    
C16   C24   S    
C13   C14   A    
C12   C32   S    
C31   O8    A    
N5    C39   S    
C38   H24   S    
C23   O6    A    
C34   H12   S    
C37   H17   S    
C32   C35   A    
C30   H9    S    
C27   N5    S    
C9    H11   S    
C19   H2    S    
C28   N2    A    
C18   C19   A    
C14   H10   S    
C3    C34   A    
C6    O12   S    
C29   H7    S    
C37   H18   S    
C2    C4    A    
N4    H22   S    
Cu1   Cu2   S    
C39   H27   S    
C13   O9    S    
C20   C23   S    
C17   C18   A    
N4    C38   S    
Cu1   O5    S    
Cu2   O6    S    
C12   O3    A    
C29   H5    S    
C39   H28   S    
C35   H13   S    
C22   C24   S    
Cu1   N2    S    
C26   N1    A    
C22   O10   S    
C26   H4    S    
C38   H25   S    
C2    C36   A    
C25   C30   S    
C30   H8    S    
C4    C5    A    
C10   C13   A    
Cu1   O7    S    
C24   N4    S    
C6    C7    A    
C1    C17   S    
C37   H19   S    
C2    C3    A    
C1    O1    A    
O10   H20   S    
Cu2   N1    S    
C10   C11   A    
O9    H15   S    
Cu1   O1    S    
C39   H29   S    
Cu2   O2    S    
C20   C21   A    
N3    H16   S    
C7    H1    S    
C8    O13   S    
O13   H31   S    
C21   C22   S    
C18   N3    S    
C15   C33   A    
Cu1   O3    S    
Cu2   O8    S    
