data_mof_unit_23685.cif
_audit_creation_date              2012-12-10T19:21:59-0500
_audit_creation_method            fapswitch 2.2
_symmetry_space_group_name_H-M    P1
_symmetry_Int_Tables_number       1
_space_group_crystal_system       triclinic
_cell_length_a                    8.712261
_cell_length_b                    17.667549
_cell_length_c                    16.495281
_cell_angle_alpha                 89.539509
_cell_angle_beta                  97.498518
_cell_angle_gamma                 90.692961
_cell_volume                      2517.07388717

loop_
_atom_site_label
_atom_site_type_symbol
_atom_type_description
_atom_site_fract_x
_atom_site_fract_y
_atom_site_fract_z
_atom_type_partial_charge
C1    C     C_R   0.495678 0.355566 0.499879 0.799428
C2    C     C_R   0.505998 0.644852 0.500138 0.806377
C3    C     C_1   0.531344 0.967420 0.485123 0.021403
C4    C     C_1   0.527220 0.035193 0.485639 0.018347
C5    C     C_R   0.613261 0.540728 0.836064 -0.372927
C6    C     C_R   0.431768 0.439592 0.167255 -0.354739
C7    C     C_R   0.610345 0.540060 0.750238 -0.047075
C8    C     C_R   0.431679 0.441630 0.252873 -0.034518
C9    C     C_R   0.390493 0.458794 0.736286 0.520312
C10   C     C_R   0.569694 0.558261 0.260474 0.522051
C11   C     C_R   0.384190 0.462149 0.822167 0.253958
C12   C     C_R   0.561562 0.560639 0.173525 0.251698
C13   C     C_R   0.500233 0.501028 0.873199 -0.003749
C14   C     C_R   0.497907 0.499265 0.126500 -0.010042
C15   C     C_1   0.500887 0.500329 0.962782 0.045344
C16   C     C_1   0.498836 0.499026 0.037022 0.046989
C17   C     C_R   0.203604 0.498683 0.479396 0.887934
C18   C     C_R   0.796487 0.499420 0.520736 0.864503
C19   C     C_2   0.038411 0.495652 0.468082 -0.391272
C20   C     C_2   0.961939 0.499687 0.532567 -0.361571
C21   C     C_R   0.592414 0.850315 0.560335 -0.233003
C22   C     C_R   0.398108 0.152791 0.441257 -0.239669
C23   C     C_R   0.589306 0.770818 0.567309 0.081171
C24   C     C_R   0.380448 0.231278 0.447011 0.088526
C25   C     C_R   0.518164 0.728312 0.499145 -0.135826
C26   C     C_R   0.492946 0.272875 0.499243 -0.110376
C27   C     C_R   0.461885 0.765886 0.426017 -0.282807
C28   C     C_R   0.612838 0.235161 0.547648 -0.335811
C29   C     C_R   0.472297 0.844480 0.419282 0.453908
C30   C     C_R   0.624852 0.156475 0.543987 0.468799
C31   C     C_R   0.533100 0.886505 0.487656 -0.001269
C32   C     C_R   0.518898 0.115845 0.489166 0.000787
Cu1   Cu    Cu3+1 0.499990 0.499980 0.580420 0.953366
Cu2   Cu    Cu3+1 0.500010 0.500020 0.419580 0.959292
H1    H     H_    0.979519 0.489731 0.406315 0.167355
H2    H     H_    0.021010 0.504304 0.594641 0.196881
H3    H     H_    0.640060 0.885343 0.611145 0.147720
H4    H     H_    0.316192 0.119970 0.400195 0.160178
H5    H     H_    0.408265 0.734233 0.373594 0.178412
H6    H     H_    0.699843 0.267068 0.586701 0.154172
H7    H     H_    0.703268 0.572402 0.873184 0.171744
H8    H     H_    0.378740 0.391892 0.133010 0.175489
H9    H     H_    0.697935 0.571521 0.723015 0.158073
H10   H     H_    0.376713 0.395767 0.282399 0.154031
N1    N     N_R   0.499960 0.499970 0.701210 -0.214452
N2    N     N_R   0.500040 0.500030 0.298790 -0.214727
O1    O     O_R   0.499990 0.391240 0.567930 -0.564337
O2    O     O_R   0.500010 0.608760 0.432070 -0.520379
O3    O     O_R   0.500000 0.391270 0.432120 -0.594165
O4    O     O_R   0.500000 0.608730 0.567880 -0.603779
O5    O     O_R   0.274830 0.499990 0.552240 -0.522860
O6    O     O_R   0.725170 0.500010 0.447760 -0.558218
O7    O     O_R   0.274840 0.500020 0.416420 -0.602605
O8    O     O_R   0.725160 0.499980 0.583580 -0.601092
C33   C     C_3   0.662218 0.731105 0.645235 -0.366264
C34   C     C_3   0.761354 0.781061 0.708217 -0.376099
C35   C     C_3   0.838183 0.733760 0.779786 -0.868402
H11   H     H_    0.748829 0.705299 0.811894 0.253594
H12   H     H_    0.914109 0.690383 0.757891 0.246497
H13   H     H_    0.909912 0.771084 0.823849 0.247292
H14   H     H_    0.853270 0.810564 0.678762 0.226626
H15   H     H_    0.687376 0.823729 0.732954 0.218537
H16   H     H_    0.568221 0.704792 0.675757 0.216649
H17   H     H_    0.738301 0.685735 0.627291 0.194813
C36   C     C_3   0.240960 0.268204 0.397753 -0.420759
C37   C     C_3   0.087247 0.232213 0.416197 -0.351222
C38   C     C_3   0.949013 0.281375 0.384520 -0.821465
H18   H     H_    0.957329 0.336705 0.416347 0.252451
H19   H     H_    0.944619 0.291060 0.317644 0.250486
H20   H     H_    0.840137 0.252534 0.396487 0.254010
H21   H     H_    0.070808 0.175896 0.386660 0.221434
H22   H     H_    0.088678 0.223789 0.483035 0.237522
H23   H     H_    0.237658 0.329616 0.410520 0.202190
H24   H     H_    0.250256 0.262164 0.331561 0.191330
O9    O     O_3   0.413094 0.880565 0.347490 -0.580358
C39   C     C_3   0.520895 0.874319 0.291025 0.059079
H25   H     H_    0.537581 0.814046 0.275208 0.151724
H26   H     H_    0.634756 0.899890 0.316015 0.145067
C40   C     C_3   0.460556 0.916574 0.212904 -0.788871
H27   H     H_    0.442765 0.977067 0.226535 0.252284
H28   H     H_    0.545593 0.912994 0.168494 0.198404
H29   H     H_    0.348919 0.891112 0.185219 0.245891
O10   O     O_3   0.747115 0.119688 0.589053 -0.578510
C41   C     C_3   0.717983 0.114041 0.671075 0.056959
H30   H     H_    0.602476 0.087471 0.675400 0.133502
H31   H     H_    0.723683 0.170880 0.700067 0.139217
C42   C     C_3   0.840625 0.064492 0.718465 -0.786936
H32   H     H_    0.957414 0.089732 0.716264 0.249542
H33   H     H_    0.819419 0.059788 0.783260 0.195754
H34   H     H_    0.836237 0.006957 0.691494 0.241977
O11   O     O_3   0.277157 0.419579 0.686556 -0.567043
C43   C     C_3   0.297250 0.340848 0.698454 0.087448
H35   H     H_    0.268541 0.322342 0.759212 0.179652
H36   H     H_    0.418048 0.323755 0.692754 0.138034
C44   C     C_3   0.187796 0.299542 0.633864 -0.785935
H37   H     H_    0.205984 0.320446 0.572226 0.255157
H38   H     H_    0.209668 0.237746 0.637922 0.197158
H39   H     H_    0.065802 0.310006 0.643058 0.243303
O12   O     O_3   0.634500 0.618575 0.306363 -0.570620
C45   C     C_3   0.795883 0.622741 0.303953 0.097199
H40   H     H_    0.821510 0.650951 0.246807 0.185464
H41   H     H_    0.849968 0.565865 0.308342 0.122120
C46   C     C_3   0.870097 0.670485 0.375253 -0.784945
H42   H     H_    0.845444 0.645298 0.434087 0.249535
H43   H     H_    0.997450 0.673353 0.374993 0.200168
H44   H     H_    0.823147 0.728762 0.369954 0.236427
O13   O     O_3   0.267757 0.424837 0.856455 -0.591519
C47   C     C_3   0.136987 0.471922 0.850141 0.077080
H45   H     H_    0.092897 0.484446 0.784998 0.160501
H46   H     H_    0.164915 0.526089 0.883322 0.134792
C48   C     C_3   0.009011 0.431543 0.888546 -0.777556
H47   H     H_    0.049118 0.418445 0.953794 0.248531
H48   H     H_    0.905972 0.468243 0.884961 0.204414
H49   H     H_    0.976060 0.378029 0.855528 0.246439
O14   O     O_3   0.619173 0.622451 0.134832 -0.593640
C49   C     C_3   0.503289 0.678094 0.123143 0.081761
H50   H     H_    0.467251 0.695818 0.182475 0.154392
H51   H     H_    0.400104 0.656705 0.082335 0.140179
C50   C     C_3   0.566696 0.747445 0.082996 -0.805276
H52   H     H_    0.603331 0.731861 0.023357 0.252144
H53   H     H_    0.475762 0.791226 0.072431 0.199694
H54   H     H_    0.667653 0.771169 0.123288 0.244021

loop_
_geom_bond_atom_site_label_1
_geom_bond_atom_site_label_2
_ccdc_geom_bond_type
C42   H32   S    
C9    N1    A    
C27   C29   A    
C44   H37   S    
Cu1   N1    S    
C19   C20   D    
C39   C40   S    
C33   C34   S    
C9    O11   S    
C44   H39   S    
C18   O6    A    
C34   C35   S    
C21   C31   A    
C22   C32   A    
C7    N1    A    
C39   H26   S    
C35   H12   S    
C28   H6    S    
C15   C16   T    
C22   H4    S    
C36   H23   S    
C47   H45   S    
C18   C20   S    
C30   O10   S    
C43   H35   S    
C2    O4    A    
C37   H22   S    
C37   H21   S    
C27   H5    S    
C33   H16   S    
C10   N2    A    
O13   C47   S    
C41   C42   S    
Cu2   N2    S    
C14   C16   S    
C7    H9    S    
C2    C25   S    
C5    C13   A    
C12   O14   S    
C23   C25   A    
C37   C38   S    
C17   O5    A    
C45   H41   S    
C50   H53   S    
C38   H18   S    
C49   C50   S    
C39   H25   S    
C48   H48   S    
O11   C43   S    
C5    C7    A    
C1    O1    A    
C35   H13   S    
C6    C8    A    
C2    O2    A    
Cu1   O4    S    
C43   C44   S    
C36   H24   S    
C38   H19   S    
C46   H44   S    
O9    C39   S    
C6    C14   A    
O10   C41   S    
C33   H17   S    
C43   H36   S    
Cu1   Cu2   S    
C46   H43   S    
C41   H30   S    
C3    C31   S    
C9    C11   A    
C4    C32   S    
C10   C12   A    
C24   C36   S    
C49   H51   S    
C12   C14   A    
C13   C15   S    
C11   O13   S    
C1    C26   S    
Cu1   O1    S    
C22   C24   A    
Cu2   O2    S    
C3    C4    T    
C17   O7    A    
C40   H28   S    
C50   H54   S    
Cu1   O8    S    
C5    H7    S    
Cu2   O3    S    
C48   H47   S    
Cu2   O6    S    
C8    H10   S    
C24   C26   A    
C40   H29   S    
C50   H52   S    
C44   H38   S    
C23   C33   S    
C29   O9    S    
Cu1   O5    S    
C26   C28   A    
C47   C48   S    
C38   H20   S    
C21   C23   A    
C29   C31   A    
C19   H1    S    
O12   C45   S    
C30   C32   A    
C11   C13   A    
C35   H11   S    
C28   C30   A    
C45   H40   S    
C17   C19   S    
C47   H46   S    
C49   H50   S    
C48   H49   S    
C34   H15   S    
C45   C46   S    
C10   O12   S    
C8    N2    A    
C18   O8    A    
C40   H27   S    
C20   H2    S    
C21   H3    S    
Cu2   O7    S    
C36   C37   S    
C6    H8    S    
C42   H34   S    
C46   H42   S    
C42   H33   S    
C34   H14   S    
C41   H31   S    
C1    O3    A    
O14   C49   S    
C25   C27   A    
