data_mof_unit_9116.cif
_audit_creation_date              2012-12-11T14:03:53-0500
_audit_creation_method            fapswitch 2.2
_symmetry_space_group_name_H-M    P1
_symmetry_Int_Tables_number       1
_space_group_crystal_system       triclinic
_cell_length_a                    18.796193
_cell_length_b                    11.007105
_cell_length_c                    18.84364
_cell_angle_alpha                 89.877168
_cell_angle_beta                  90.41512
_cell_angle_gamma                 90.050963
_cell_volume                      3898.47937592

loop_
_atom_site_label
_atom_site_type_symbol
_atom_type_description
_atom_site_fract_x
_atom_site_fract_y
_atom_site_fract_z
_atom_type_partial_charge
C1    C     C_R   0.222412 0.526246 0.640399 0.572365
C2    C     C_R   0.775455 0.519286 0.361546 0.572120
C3    C     C_R   0.722413 0.026249 0.640400 0.572406
C4    C     C_R   0.275448 0.019261 0.361549 0.572087
C5    C     C_2   0.288553 0.874041 0.543631 -0.131968
C6    C     C_2   0.725625 0.863330 0.465211 -0.149332
C7    C     C_2   0.788569 0.374155 0.543651 -0.131953
C8    C     C_2   0.225704 0.363282 0.465229 -0.149291
C9    C     C_R   0.011224 0.669007 0.423055 -0.007439
C10   C     C_R   0.996095 0.656371 0.572044 -0.006534
C11   C     C_R   0.511214 0.169003 0.423062 -0.007440
C12   C     C_R   0.496082 0.156393 0.572052 -0.006602
C13   C     C_R   0.007219 0.894522 0.432062 0.258470
C14   C     C_R   0.958810 0.872688 0.571970 0.249222
C15   C     C_R   0.507236 0.394519 0.432053 0.258470
C16   C     C_R   0.458856 0.372751 0.571975 0.249092
C17   C     C_R   0.983634 0.996376 0.468943 -0.134517
C18   C     C_R   0.956794 0.984618 0.537138 -0.132391
C19   C     C_R   0.483665 0.496390 0.468925 -0.134514
C20   C     C_R   0.456841 0.484665 0.537126 -0.132388
C21   C     C_R   0.985906 0.768755 0.536755 -0.017400
C22   C     C_R   0.001582 0.777286 0.463045 -0.010556
C23   C     C_R   0.485917 0.268784 0.536760 -0.017463
C24   C     C_R   0.501585 0.277293 0.463047 -0.010550
C25   C     C_R   0.004734 0.549111 0.530438 0.003467
C26   C     C_R   0.025115 0.559903 0.459244 0.004646
C27   C     C_R   0.504697 0.049126 0.530450 0.003459
C28   C     C_R   0.525087 0.059899 0.459257 0.004669
C29   C     C_R   0.996001 0.430219 0.558249 -0.060881
C30   C     C_R   0.053273 0.457719 0.423858 -0.057075
C31   C     C_R   0.495945 0.930243 0.558267 -0.060871
C32   C     C_R   0.553235 0.957699 0.423881 -0.057037
C33   C     C_R   0.021356 0.329086 0.521921 -0.123411
C34   C     C_R   0.052016 0.343350 0.455553 -0.104806
C35   C     C_R   0.521293 0.829095 0.521949 -0.123443
C36   C     C_R   0.551960 0.843335 0.455582 -0.104849
C37   C     C_2   0.251285 0.918477 0.920211 -0.060842
C38   C     C_2   0.789771 0.815737 0.065419 -0.062312
C39   C     C_2   0.751305 0.418523 0.920201 -0.060870
C40   C     C_2   0.289771 0.315738 0.065419 -0.062301
C41   C     C_2   0.279528 0.010109 0.066391 0.185531
C42   C     C_2   0.752401 0.894471 0.914841 0.222099
C43   C     C_2   0.779553 0.510164 0.066382 0.185476
C44   C     C_2   0.252407 0.394451 0.914833 0.222099
C45   C     C_R   0.208651 0.829641 0.640423 0.579588
C46   C     C_R   0.771209 0.880100 0.348842 0.599078
C47   C     C_R   0.708656 0.329654 0.640421 0.579579
C48   C     C_R   0.271208 0.380104 0.348839 0.599082
C49   C     C_2   0.220362 0.026800 0.027327 -0.128625
C50   C     C_2   0.816620 0.902413 0.947405 -0.109503
C51   C     C_2   0.720404 0.526927 0.027301 -0.128661
C52   C     C_2   0.316620 0.402428 0.947407 -0.109493
C53   C     C_2   0.217140 0.010420 0.950948 -0.095574
C54   C     C_2   0.830038 0.884865 0.023672 -0.124789
C55   C     C_2   0.717190 0.510521 0.950921 -0.095591
C56   C     C_2   0.330034 0.384882 0.023674 -0.124801
C57   C     C_2   0.011785 0.656826 0.926876 -0.073022
C58   C     C_2   0.010528 0.666848 0.084039 -0.078144
C59   C     C_2   0.511779 0.156833 0.926874 -0.073026
C60   C     C_2   0.510527 0.166838 0.084039 -0.078125
C61   C     C_2   0.028976 0.569005 0.047052 -0.081722
C62   C     C_2   0.041034 0.573742 0.970823 -0.102818
C63   C     C_2   0.528945 0.068982 0.047047 -0.081688
C64   C     C_2   0.540978 0.073693 0.970815 -0.102742
C65   C     C_R   0.027707 0.653815 0.645104 0.578811
C66   C     C_R   0.973842 0.656109 0.353389 0.559437
C67   C     C_R   0.527704 0.153819 0.645108 0.578813
C68   C     C_R   0.473840 0.156108 0.353391 0.559439
C69   C     C_R   0.239802 0.462734 0.849701 0.601178
C70   C     C_R   0.776976 0.523127 0.142877 0.572066
C71   C     C_R   0.739802 0.962736 0.849702 0.601209
C72   C     C_R   0.276972 0.023116 0.142878 0.572083
C73   C     C_R   0.228231 0.874246 0.852253 0.552835
C74   C     C_R   0.794632 0.819236 0.141934 0.546613
C75   C     C_R   0.728233 0.374252 0.852251 0.552815
C76   C     C_R   0.294631 0.319237 0.141934 0.546618
C77   C     C_R   0.031735 0.651686 0.852546 0.564927
C78   C     C_R   0.972387 0.653188 0.150362 0.569076
C79   C     C_R   0.531734 0.151687 0.852545 0.564946
C80   C     C_R   0.472389 0.153187 0.150364 0.569090
C81   C     C_2   0.221432 0.854645 0.566183 0.063925
C82   C     C_2   0.749224 0.937107 0.413418 0.094008
C83   C     C_2   0.721448 0.354688 0.566186 0.063952
C84   C     C_2   0.249224 0.437093 0.413420 0.093994
C85   C     C_2   0.269908 0.990061 0.436542 -0.051226
C86   C     C_2   0.720717 0.001358 0.565896 -0.023615
C87   C     C_2   0.769926 0.490135 0.436548 -0.051258
C88   C     C_2   0.220704 0.501322 0.565898 -0.023630
C89   C     C_2   0.305667 0.900126 0.469674 0.065779
C90   C     C_2   0.732529 0.889634 0.540899 0.097172
C91   C     C_2   0.805691 0.400222 0.469694 0.065758
C92   C     C_2   0.232607 0.389632 0.540911 0.097047
Cr1   Cr    Cr6+3 0.113970 0.508630 0.747920 1.069408
Cr2   Cr    Cr6+3 0.886030 0.508630 0.252080 1.075991
Cr3   Cr    Cr6+3 0.613970 0.008630 0.747920 1.069374
Cr4   Cr    Cr6+3 0.386030 0.008630 0.252080 1.075965
Cr5   Cr    Cr6+3 0.269200 0.666740 0.749850 1.056730
Cr6   Cr    Cr6+3 0.730800 0.666740 0.250150 1.053184
Cr7   Cr    Cr6+3 0.769200 0.166740 0.749850 1.056720
Cr8   Cr    Cr6+3 0.230800 0.166740 0.250150 1.053190
Cr9   Cr    Cr6+3 0.112300 0.820070 0.749800 1.083126
Cr10  Cr    Cr6+3 0.887700 0.820070 0.250200 1.083120
Cr11  Cr    Cr6+3 0.612300 0.320070 0.749800 1.083189
Cr12  Cr    Cr6+3 0.387700 0.320070 0.250200 1.083107
H1    H     H_    0.176215 0.060400 0.922260 0.198486
H2    H     H_    0.872646 0.939041 0.046684 0.152251
H3    H     H_    0.676284 0.560523 0.922216 0.198461
H4    H     H_    0.372634 0.439078 0.046690 0.152251
H5    H     H_    0.287322 0.859962 0.949581 0.177138
H6    H     H_    0.752983 0.751472 0.044214 0.174195
H7    H     H_    0.787320 0.359991 0.949584 0.177166
H8    H     H_    0.252993 0.251455 0.044213 0.174238
H9    H     H_    0.029277 0.479534 0.071552 0.199102
H10   H     H_    0.072215 0.499956 0.949510 0.216859
H11   H     H_    0.529233 0.979511 0.071549 0.199101
H12   H     H_    0.572099 0.999840 0.949496 0.216930
H13   H     H_    0.013887 0.757091 0.060840 0.099704
H14   H     H_    0.980296 0.732387 0.946034 0.108337
H15   H     H_    0.513896 0.257080 0.060841 0.099708
H16   H     H_    0.480347 0.232456 0.946039 0.108318
H17   H     H_    0.333346 0.867382 0.580174 0.134590
H18   H     H_    0.714053 0.768932 0.452694 0.102464
H19   H     H_    0.833356 0.367540 0.580207 0.134594
H20   H     H_    0.214197 0.268859 0.452726 0.102431
H21   H     H_    0.233071 0.045643 0.466345 0.059921
H22   H     H_    0.698376 0.072344 0.533059 0.035772
H23   H     H_    0.733088 0.545727 0.466345 0.059901
H24   H     H_    0.198278 0.572211 0.533062 0.035838
H25   H     H_    0.986048 0.085329 0.444524 0.141958
H26   H     H_    0.935407 0.063637 0.563618 0.138833
H27   H     H_    0.486084 0.585334 0.444495 0.141944
H28   H     H_    0.435470 0.563700 0.563603 0.138837
H29   H     H_    0.074927 0.466187 0.370938 0.133160
H30   H     H_    0.969757 0.414577 0.608375 0.139538
H31   H     H_    0.574899 0.966149 0.370964 0.133166
H32   H     H_    0.469699 0.914624 0.608395 0.139531
H33   H     H_    0.017391 0.239751 0.545515 0.104499
H34   H     H_    0.072699 0.265311 0.427618 0.127899
H35   H     H_    0.517322 0.739769 0.545550 0.104459
H36   H     H_    0.572639 0.765285 0.427655 0.127834
H37   H     H_    0.170703 0.053046 0.052098 0.153274
H38   H     H_    0.859999 0.946866 0.919708 0.130719
H39   H     H_    0.670750 0.553229 0.052060 0.153281
H40   H     H_    0.359993 0.446920 0.919720 0.130732
O1    O     O_R   0.043230 0.549300 0.667990 -0.544656
O2    O     O_R   0.956770 0.549300 0.332010 -0.515975
O3    O     O_R   0.543230 0.049300 0.667990 -0.544657
O4    O     O_R   0.456770 0.049300 0.332010 -0.515986
O5    O     O_R   0.262920 0.788600 0.824420 -0.489116
O6    O     O_R   0.737080 0.788600 0.175580 -0.502455
O7    O     O_R   0.762920 0.288600 0.824420 -0.489100
O8    O     O_R   0.237080 0.288600 0.175580 -0.502457
O9    O     O_R   0.167530 0.905110 0.830340 -0.507319
O10   O     O_R   0.832470 0.905110 0.169660 -0.490283
O11   O     O_R   0.667530 0.405110 0.830340 -0.507311
O12   O     O_R   0.332470 0.405110 0.169660 -0.490308
O13   O     O_R   0.054010 0.748440 0.822860 -0.482265
O14   O     O_R   0.945990 0.748440 0.177140 -0.509516
O15   O     O_R   0.554010 0.248440 0.822860 -0.482231
O16   O     O_R   0.445990 0.248440 0.177140 -0.509493
O17   O     O_3   0.165160 0.665150 0.749190 -0.328007
O18   O     O_3   0.834840 0.665150 0.250810 -0.349116
O19   O     O_3   0.665160 0.165150 0.749190 -0.327994
O20   O     O_3   0.334840 0.165150 0.250810 -0.349081
O21   O     O_R   0.178620 0.457600 0.674100 -0.464802
O22   O     O_R   0.821380 0.457600 0.325900 -0.459313
O23   O     O_R   0.678620 0.957600 0.674100 -0.464827
O24   O     O_R   0.321380 0.957600 0.325900 -0.459318
O25   O     O_R   0.284680 0.542100 0.669460 -0.448910
O26   O     O_R   0.715320 0.542100 0.330540 -0.457579
O27   O     O_R   0.784680 0.042100 0.669460 -0.448941
O28   O     O_R   0.215320 0.042100 0.330540 -0.457584
O29   O     O_R   0.262860 0.790390 0.676650 -0.539879
O30   O     O_R   0.737140 0.790390 0.323350 -0.542199
O31   O     O_R   0.762860 0.290390 0.676650 -0.539889
O32   O     O_R   0.237140 0.290390 0.323350 -0.542179
O33   O     O_R   0.167460 0.907030 0.670940 -0.475996
O34   O     O_R   0.832540 0.907030 0.329060 -0.463486
O35   O     O_R   0.667460 0.407030 0.670940 -0.475990
O36   O     O_R   0.332540 0.407030 0.329060 -0.463535
O37   O     O_R   0.053950 0.750220 0.675100 -0.456620
O38   O     O_R   0.946050 0.750220 0.324900 -0.451025
O39   O     O_R   0.553950 0.250220 0.675100 -0.456549
O40   O     O_R   0.446050 0.250220 0.324900 -0.451026
O41   O     O_R   0.043300 0.547370 0.827390 -0.489928
O42   O     O_R   0.956700 0.547370 0.172610 -0.486964
O43   O     O_R   0.543300 0.047370 0.827390 -0.489971
O44   O     O_R   0.456700 0.047370 0.172610 -0.486994
O45   O     O_R   0.178690 0.455820 0.821860 -0.450290
O46   O     O_R   0.821310 0.455820 0.178140 -0.438853
O47   O     O_R   0.678690 0.955820 0.821860 -0.450286
O48   O     O_R   0.321310 0.955820 0.178140 -0.438896
O49   O     O_R   0.284750 0.540170 0.828860 -0.520877
O50   O     O_R   0.715250 0.540170 0.171140 -0.516806
O51   O     O_R   0.784750 0.040170 0.828860 -0.520873
O52   O     O_R   0.215250 0.040170 0.171140 -0.516845
N1    N     N_3   0.360677 0.831042 0.435614 -0.567580
H41   H     H_    0.384806 0.773247 0.472684 0.211864
H42   H     H_    0.336068 0.773658 0.398799 0.271463
N2    N     N_3   0.750953 0.791768 0.588169 -0.529448
H43   H     H_    0.798293 0.753019 0.570218 0.250602
H44   H     H_    0.711226 0.725493 0.584102 0.226264
N3    N     N_3   0.860699 0.331119 0.435644 -0.567569
H45   H     H_    0.884831 0.273345 0.472724 0.211867
H46   H     H_    0.836086 0.273709 0.398843 0.271429
N4    N     N_3   0.251186 0.291862 0.588179 -0.529570
H47   H     H_    0.298651 0.253534 0.570296 0.250833
H48   H     H_    0.211670 0.225286 0.584015 0.226221
Cl1   Cl    Cl    0.364784 0.996072 0.028536 -0.650206
Cl2   Cl    Cl    0.674928 0.826390 0.950504 -0.688639
Cl3   Cl    Cl    0.864811 0.496020 0.028553 -0.650127
Cl4   Cl    Cl    0.174947 0.326281 0.950468 -0.688559
N5    N     N_3   0.160814 0.849616 0.519292 -0.650657
H49   H     H_    0.144618 0.937487 0.506162 0.256351
H50   H     H_    0.173232 0.801078 0.473429 0.247474
N6    N     N_3   0.774292 0.059151 0.424400 -0.637618
H51   H     H_    0.731179 0.118399 0.428134 0.226459
H52   H     H_    0.808740 0.064393 0.468065 0.235960
N7    N     N_3   0.660842 0.349623 0.519280 -0.650629
H53   H     H_    0.644650 0.437484 0.506122 0.256358
H54   H     H_    0.673276 0.301053 0.473433 0.247449
N8    N     N_3   0.274223 0.559179 0.424384 -0.637657
H55   H     H_    0.231077 0.618349 0.428141 0.226471
H56   H     H_    0.308684 0.564481 0.468037 0.235942
Cl5   Cl    Cl    0.054496 0.921007 0.352894 -0.585568
Cl6   Cl    Cl    0.917246 0.864821 0.655544 -0.568486
Cl7   Cl    Cl    0.554515 0.420969 0.352882 -0.585552
Cl8   Cl    Cl    0.417347 0.364975 0.655580 -0.568618

loop_
_geom_bond_atom_site_label_1
_geom_bond_atom_site_label_2
_ccdc_geom_bond_type
Cr2   O2    S    
C7    C83   D    
N3    H45   S    
C59   H16   S    
C6    C82   D    
C87   C91   D    
C86   H22   S    
C77   O41   A    
C14   C18   A    
C85   H21   S    
C35   C36   A    
C3    O27   A    
Cr2   O22   S    
C87   H23   S    
Cr4   O20   S    
C3    O23   A    
C57   C62   D    
C40   H8    S    
C65   O37   A    
N5    H49   S    
Cr8   O8    S    
C15   C19   A    
N3    H46   S    
C12   C23   A    
C74   O10   A    
C59   C64   D    
C50   C54   S    
C79   O43   A    
C60   C63   D    
Cr11  O39   S    
C32   C36   A    
C14   C21   A    
C16   C20   A    
N6    H52   S    
C62   H10   S    
Cr3   O19   S    
C79   O15   A    
Cr6   O30   S    
N4    H48   S    
C9    C22   A    
C80   O16   A    
Cr8   O28   S    
C76   O8    A    
C5    H17   S    
C11   C24   A    
C91   N3    S    
Cr5   O25   S    
Cr6   O50   S    
C60   H15   S    
C16   Cl8   S    
C17   H25   S    
Cr5   O49   S    
N1    H42   S    
C46   O34   A    
C9    C66   S    
C56   H4    S    
C47   O35   A    
C35   H35   S    
C5    C81   D    
C46   C82   S    
C52   C56   S    
C78   O14   A    
C69   O49   A    
C39   C55   D    
C88   C92   D    
C29   C33   A    
C75   O7    A    
N2    H43   S    
C40   C56   D    
C49   H37   S    
Cr8   O32   S    
C23   C24   A    
C46   O30   A    
Cr1   O1    S    
C78   O42   A    
C39   C75   S    
C38   H6    S    
C43   Cl3   S    
Cr10  O10   S    
C37   H5    S    
C68   O4    A    
C45   O33   A    
C63   H11   S    
C44   C52   D    
C58   C61   D    
N5    H50   S    
C29   H30   S    
C66   O38   A    
Cr1   O21   S    
C21   C22   A    
C3    C86   S    
C25   C29   A    
Cr10  O14   S    
C61   C62   S    
Cr12  O16   S    
C41   C49   D    
Cr6   O18   S    
C9    C26   A    
C17   C18   A    
Cr8   O52   S    
C10   C21   A    
C19   H27   S    
Cr4   O4    S    
C12   C67   S    
C81   N5    S    
Cr5   O29   S    
C54   H2    S    
C12   C27   A    
Cr3   O43   S    
Cr10  O38   S    
C57   C77   S    
C28   C32   A    
Cr3   O3    S    
N6    H51   S    
C86   C90   D    
C59   C79   S    
N7    H53   S    
C82   N6    S    
Cr3   O23   S    
C30   C34   A    
N4    H47   S    
C8    H20   S    
C4    C85   S    
C51   C55   S    
C25   C26   A    
C6    C90   S    
C27   C31   A    
C64   H12   S    
C76   O12   A    
C58   H13   S    
C47   C83   S    
C40   C76   S    
C15   Cl7   S    
C44   Cl4   S    
C20   H28   S    
Cr2   O46   S    
Cr7   O51   S    
C45   O29   A    
C90   N2    S    
N7    H54   S    
C48   C84   S    
C71   O51   A    
C38   C54   D    
Cr9   O9    S    
C70   O50   A    
C30   H29   S    
C7    C91   S    
Cr4   O24   S    
C33   C34   A    
C80   O44   A    
C2    C87   S    
Cr8   O20   S    
C52   H40   S    
Cr12  O12   S    
N8    H56   S    
C36   H36   S    
C67   O39   A    
C2    O26   A    
C41   C72   S    
C8    C92   S    
C10   C25   A    
Cr11  O11   S    
C15   C24   A    
Cr12  O40   S    
C42   C50   D    
Cr1   O17   S    
C26   C30   A    
C43   C70   S    
Cr5   O17   S    
C61   H9    S    
Cr10  O34   S    
Cr7   O19   S    
C18   H26   S    
C6    H18   S    
C65   O1    A    
C48   O36   A    
Cr9   O37   S    
Cr10  O18   S    
C70   O46   A    
C33   H33   S    
C73   O9    A    
Cr6   O6    S    
C10   C65   S    
Cr5   O5    S    
C2    O22   A    
C60   C80   S    
C85   C89   D    
Cr1   O45   S    
C4    O28   A    
C73   O5    A    
C1    O21   A    
C8    C84   D    
C4    O24   A    
Cr11  O19   S    
C45   C81   S    
Cr2   O42   S    
C7    H19   S    
C31   H32   S    
C69   O45   A    
C42   Cl2   S    
C72   O52   A    
C32   H31   S    
C75   O11   A    
C14   Cl6   S    
Cr3   O47   S    
C16   C23   A    
C89   N1    S    
C37   C73   S    
C13   C17   A    
Cr4   O48   S    
C19   C20   A    
Cr9   O17   S    
C68   O40   A    
C37   C53   D    
C41   Cl1   S    
C88   H24   S    
C84   N8    S    
C13   Cl5   S    
C39   H7    S    
C34   H34   S    
Cr11  O15   S    
Cr12  O20   S    
Cr12  O36   S    
Cr7   O7    S    
C11   C28   A    
C1    C88   S    
C49   C53   S    
C43   C51   D    
C31   C35   A    
C1    O25   A    
C42   C71   S    
C38   C74   S    
C13   C22   A    
Cr11  O35   S    
C51   H39   S    
N1    H41   S    
N8    H55   S    
C47   O31   A    
C66   O2    A    
C11   C68   S    
C92   N4    S    
C58   C78   S    
Cr9   O13   S    
C63   C64   S    
Cr6   O26   S    
C53   H1    S    
Cr7   O31   S    
N2    H44   S    
C83   N7    S    
C67   O3    A    
C55   H3    S    
C27   C28   A    
C44   C69   S    
C74   O6    A    
C71   O47   A    
Cr4   O44   S    
C72   O48   A    
Cr9   O33   S    
C5    C89   S    
Cr2   O18   S    
C50   H38   S    
Cr7   O27   S    
C77   O13   A    
C57   H14   S    
C48   O32   A    
Cr1   O41   S    
