data_mof_unit_52325.cif
_audit_creation_date              2012-12-10T17:07:50-0500
_audit_creation_method            fapswitch 2.2
_symmetry_space_group_name_H-M    P1
_symmetry_Int_Tables_number       1
_space_group_crystal_system       triclinic
_cell_length_a                    10.613719
_cell_length_b                    10.669042
_cell_length_c                    10.024489
_cell_angle_alpha                 89.855865
_cell_angle_beta                  89.82931
_cell_angle_gamma                 90.134509
_cell_volume                      1135.14345123

loop_
_atom_site_label
_atom_site_type_symbol
_atom_type_description
_atom_site_fract_x
_atom_site_fract_y
_atom_site_fract_z
_atom_type_partial_charge
C1    C     C_R   0.506252 0.262688 0.500268 0.943761
C2    C     C_3   0.878811 0.493915 0.500642 0.077467
C3    C     C_3   0.929331 0.628321 0.472252 0.337221
C4    C     C_3   0.927532 0.402639 0.391692 -0.522588
C5    C     C_2   0.534988 0.932642 0.399102 -0.227185
C6    C     C_2   0.473367 0.868202 0.493896 0.001652
C7    C     C_2   0.524161 0.066008 0.389794 -0.144930
C8    C     C_2   0.527118 0.131542 0.502028 -0.301527
C9    C     C_2   0.463709 0.594253 0.925670 0.483532
C10   C     C_2   0.445171 0.583238 0.074698 -0.255626
C11   C     C_R   0.257998 0.493698 0.500440 0.912167
C12   C     C_R   0.495001 0.737328 0.499353 0.908407
C13   C     C_R   0.742187 0.496063 0.499996 0.889461
C14   C     C_3   0.071241 0.442073 0.639437 0.368101
C15   C     C_3   0.926948 0.446417 0.638093 -0.445745
C16   C     C_3   0.074376 0.626020 0.478295 -0.567001
C17   C     C_3   0.071784 0.404172 0.389289 -0.379418
C18   C     C_3   0.121515 0.490616 0.501992 0.049523
H1    H     H_    0.105129 0.507162 0.718915 0.092147
H2    H     H_    0.892251 0.430175 0.291359 0.188467
H3    H     H_    0.113227 0.664092 0.383094 0.166021
H4    H     H_    0.899755 0.654174 0.368766 0.066642
H5    H     H_    0.599516 0.887127 0.330126 0.146372
H6    H     H_    0.517450 0.109525 0.292081 0.178233
H7    H     H_    0.544455 0.087036 0.598033 0.174967
H8    H     H_    0.516122 0.416568 0.898446 0.107177
H9    H     H_    0.386175 0.651990 0.123789 0.182198
H10   H     H_    0.565567 0.443513 0.102061 0.149737
H11   H     H_    0.886960 0.351791 0.659048 0.177066
H12   H     H_    0.894832 0.509437 0.719748 0.181752
H13   H     H_    0.108876 0.687642 0.560014 0.216519
H14   H     H_    0.104157 0.438837 0.290068 0.182978
H15   H     H_    0.108393 0.307165 0.401612 0.217390
H16   H     H_    0.893163 0.305821 0.412254 0.199220
N1    N     N_2   0.501360 0.501330 0.852150 -0.234962
N2    N     N_2   0.501390 0.501360 0.147810 -0.215823
O1    O     O_R   0.499980 0.319060 0.613040 -0.632527
O2    O     O_R   0.500020 0.319100 0.386900 -0.618203
O3    O     O_R   0.314770 0.499960 0.613070 -0.604522
O4    O     O_R   0.314820 0.500000 0.386930 -0.620611
O5    O     O_R   0.499980 0.680900 0.613100 -0.551506
O6    O     O_R   0.500020 0.680940 0.386960 -0.624716
O7    O     O_R   0.685180 0.500000 0.613070 -0.610712
O8    O     O_R   0.685230 0.500040 0.386930 -0.642424
Zn1   Zn    Zn3+2 0.499970 0.499970 0.650990 0.972206
Zn2   Zn    Zn3+2 0.500030 0.500030 0.349010 0.923418
I1    I     I_    0.314795 0.934360 0.606044 -0.443375
O9    O     O_3   0.427918 0.704722 0.864207 -0.594596
C19   C     C_3   0.509686 0.803820 0.902044 0.130939
H17   H     H_    0.549241 0.845542 0.809287 0.178085
H18   H     H_    0.592342 0.774462 0.963522 0.093023
C20   C     C_3   0.435732 0.905012 0.976627 -0.340591
H19   H     H_    0.349539 0.929640 0.919823 0.258980
H20   H     H_    0.406373 0.869087 0.076026 0.209246
C21   C     C_3   0.515080 0.023084 0.995579 -0.981445
H21   H     H_    0.601272 0.001249 0.053704 0.256279
H22   H     H_    0.459523 0.094066 0.050804 0.269183
H23   H     H_    0.542427 0.063281 0.897272 0.270705
O10   O     O_3   0.114334 0.317673 0.662120 -0.634595
C22   C     C_3   0.108994 0.285023 0.799208 0.075227
H24   H     H_    0.089182 0.182877 0.805660 0.183535
H25   H     H_    0.031395 0.332920 0.854188 0.107605
C23   C     C_3   0.235568 0.311358 0.866560 -0.313990
H26   H     H_    0.311845 0.261432 0.812316 0.254975
H27   H     H_    0.255499 0.413421 0.863194 0.223145
C24   C     C_3   0.234644 0.269035 0.012076 -0.985785
H28   H     H_    0.159069 0.318015 0.068196 0.262394
H29   H     H_    0.326586 0.292009 0.058677 0.269127
H30   H     H_    0.219206 0.166184 0.018680 0.272024
O11   O     O_3   0.880132 0.713390 0.567989 -0.644508
C25   C     C_3   0.881705 0.837280 0.517475 0.078765
H31   H     H_    0.817881 0.845401 0.429944 0.118253
H32   H     H_    0.978895 0.865303 0.487352 0.166957
C26   C     C_3   0.835477 0.926670 0.625875 -0.297597
H33   H     H_    0.734979 0.906070 0.648741 0.208591
H34   H     H_    0.891382 0.912177 0.718220 0.230862
C27   C     C_3   0.848307 0.063291 0.582122 -0.989739
H35   H     H_    0.949200 0.088320 0.568389 0.294726
H36   H     H_    0.807383 0.125202 0.659764 0.254870
H37   H     H_    0.797550 0.079355 0.486946 0.264948

loop_
_geom_bond_atom_site_label_1
_geom_bond_atom_site_label_2
_ccdc_geom_bond_type
C10   H9    S    
C24   H29   S    
C21   H21   S    
C23   H27   S    
C11   C18   S    
C16   H3    S    
C1    C8    S    
C14   C18   S    
C7    C8    D    
C27   H35   S    
C16   H13   S    
O4    Zn2   S    
C14   O10   S    
C26   H34   S    
C22   C23   S    
C6    C12   S    
C5    C6    D    
C24   H30   S    
C7    H6    S    
C22   H25   S    
O6    Zn2   S    
C2    C13   S    
C12   O6    A    
C20   H20   S    
C19   H18   S    
C26   C27   S    
N2    Zn2   S    
O11   C25   S    
C9    C10   S    
C20   C21   S    
C1    O1    A    
O3    Zn1   S    
C24   H28   S    
C23   C24   S    
O10   C22   S    
C8    H7    S    
C17   H15   S    
O8    Zn2   S    
C15   H11   S    
C27   H36   S    
C4    H16   S    
C6    I1    S    
C3    O11   S    
C26   H33   S    
C25   H32   S    
C22   H24   S    
C2    C4    S    
C12   O5    A    
C5    H5    S    
C19   C20   S    
C17   C18   S    
C11   O3    A    
C2    C15   S    
O7    Zn1   S    
C1    O2    A    
C4    C17   S    
O9    C19   S    
C21   H22   S    
O1    Zn1   S    
N1    Zn1   S    
C13   O7    A    
C20   H19   S    
C15   H12   S    
C5    C7    S    
C27   H37   S    
C14   H1    S    
C25   C26   S    
C2    C3    S    
C25   H31   S    
C11   O4    A    
O2    Zn2   S    
C23   H26   S    
C4    H2    S    
H8    N1    S    
H10   N2    S    
C9    O9    S    
C16   C18   S    
C19   H17   S    
C21   H23   S    
C9    N1    D    
C17   H14   S    
O5    Zn1   S    
C14   C15   S    
C3    H4    S    
C10   N2    D    
C13   O8    A    
C3    C16   S    
