data_mof_unit_39606.cif
_audit_creation_date              2012-12-10T18:43:48-0500
_audit_creation_method            fapswitch 2.2
_symmetry_space_group_name_H-M    P1
_symmetry_Int_Tables_number       1
_space_group_crystal_system       triclinic
_cell_length_a                    10.843018
_cell_length_b                    10.68597
_cell_length_c                    9.846237
_cell_angle_alpha                 89.876859
_cell_angle_beta                  105.015699
_cell_angle_gamma                 89.915209
_cell_volume                      1101.90542554

loop_
_atom_site_label
_atom_site_type_symbol
_atom_type_description
_atom_site_fract_x
_atom_site_fract_y
_atom_site_fract_z
_atom_type_partial_charge
C1    C     C_R   0.500421 0.259943 0.500132 0.860889
C2    C     C_2   0.878500 0.509009 0.597455 0.286349
C3    C     C_2   0.066499 0.498605 0.511849 -0.265078
C4    C     C_2   0.934168 0.527626 0.493425 -0.259198
C5    C     C_R   0.457916 0.064430 0.372769 -0.207724
C6    C     C_R   0.545629 0.935543 0.627465 -0.205351
C7    C     C_R   0.457836 0.936245 0.372671 -0.201953
C8    C     C_R   0.546149 0.063800 0.627420 -0.196589
C9    C     C_R   0.501274 0.872470 0.500068 -0.003825
C10   C     C_R   0.501421 0.127529 0.500215 -0.003640
C11   C     C_3   0.673418 0.776544 0.145791 0.042259
C12   C     C_R   0.500363 0.740060 0.500037 0.855504
C13   C     C_3   0.807418 0.796469 0.125633 -0.331620
C14   C     C_3   0.821889 0.927884 0.071148 -0.982392
C15   C     C_3   0.273796 0.249850 0.852540 0.058509
C16   C     C_3   0.358732 0.138620 0.917731 -0.373410
C17   C     C_3   0.282399 0.038508 0.970635 -0.982256
C18   C     C_3   0.958960 0.582271 0.821586 0.102631
C19   C     C_3   0.097245 0.628473 0.860734 -0.349986
C20   C     C_3   0.118967 0.728227 0.975024 -0.937839
C21   C     C_3   0.981985 0.424212 0.205043 0.079016
C22   C     C_3   0.059589 0.345080 0.127374 -0.364476
C23   C     C_R   0.258588 0.498640 0.440368 0.841515
C24   C     C_3   0.975928 0.246244 0.036207 -0.945356
C25   C     C_R   0.741021 0.504162 0.559803 0.820976
C26   C     C_R   0.578121 0.579894 0.094941 0.561114
C27   C     C_R   0.420943 0.419999 0.903887 0.567950
C28   C     C_R   0.579210 0.577260 0.950141 -0.334735
C29   C     C_R   0.421676 0.421488 0.050329 -0.354038
C30   C     C_2   0.120839 0.501986 0.404386 0.287117
H1    H     H_    0.878983 0.557580 0.389914 0.215427
H2    H     H_    0.598312 0.803508 0.049335 0.115471
H3    H     H_    0.879280 0.782464 0.227920 0.245499
H4    H     H_    0.827206 0.727019 0.050241 0.211505
H5    H     H_    0.754437 0.942096 0.966148 0.261131
H6    H     H_    0.920793 0.940681 0.061298 0.272627
H7    H     H_    0.802781 0.999006 0.145298 0.265091
H8    H     H_    0.200662 0.214220 0.759835 0.181006
H9    H     H_    0.217738 0.289009 0.921905 0.132803
H10   H     H_    0.400902 0.096663 0.836955 0.236879
H11   H     H_    0.438266 0.169643 0.006680 0.211607
H12   H     H_    0.121824 0.474571 0.617381 0.221591
H13   H     H_    0.242631 0.076772 0.055164 0.266355
H14   H     H_    0.346087 0.958571 0.013939 0.258707
H15   H     H_    0.203158 0.004094 0.883186 0.274795
H16   H     H_    0.933029 0.552001 0.918347 0.168183
H17   H     H_    0.893623 0.661869 0.777420 0.108290
H18   H     H_    0.162946 0.548648 0.898717 0.227962
H19   H     H_    0.120388 0.668496 0.766064 0.222663
H20   H     H_    0.058726 0.811654 0.936657 0.260334
H21   H     H_    0.220832 0.756695 0.003422 0.263898
H22   H     H_    0.095529 0.691031 0.070663 0.304089
H23   H     H_    0.643630 0.636029 0.911390 0.158322
H24   H     H_    0.894765 0.459515 0.128391 0.166573
H25   H     H_    0.947932 0.364057 0.280689 0.140545
H26   H     H_    0.101076 0.406473 0.059841 0.240816
H27   H     H_    0.139255 0.298118 0.204837 0.205512
H28   H     H_    0.932886 0.184667 0.102313 0.263792
H29   H     H_    0.034210 0.187931 0.983320 0.264792
H30   H     H_    0.898643 0.291582 0.954289 0.286810
H31   H     H_    0.362127 0.360464 0.093193 0.163113
H32   H     H_    0.422901 0.113993 0.274164 0.159614
H33   H     H_    0.580783 0.886000 0.726155 0.146168
H34   H     H_    0.422633 0.887282 0.273968 0.152642
H35   H     H_    0.582259 0.112866 0.725909 0.152208
H36   H     H_    0.660898 0.841247 0.229402 0.176477
N1    N     N_R   0.499970 0.499970 0.857200 -0.117165
N2    N     N_R   0.500030 0.500030 0.142800 -0.115439
O1    O     O_R   0.499990 0.316750 0.614620 -0.574515
O2    O     O_3   0.344289 0.342218 0.802457 -0.618919
O3    O     O_3   0.947770 0.476872 0.732168 -0.649152
O4    O     O_3   0.053107 0.529807 0.267596 -0.657340
O5    O     O_R   0.500010 0.683250 0.385380 -0.592828
O6    O     O_R   0.499990 0.316780 0.385290 -0.633518
O7    O     O_R   0.500010 0.683220 0.614710 -0.629460
O8    O     O_R   0.317810 0.500000 0.571850 -0.603698
O9    O     O_R   0.682190 0.500000 0.428150 -0.594578
O10   O     O_R   0.317810 0.500030 0.342520 -0.594931
O11   O     O_R   0.682190 0.499970 0.657480 -0.609907
O12   O     O_3   0.662547 0.652873 0.193260 -0.626791
Zn1   Zn    Zn3+2 0.500000 0.499980 0.653120 0.975928
Zn2   Zn    Zn3+2 0.500000 0.500020 0.346880 0.974651

loop_
_geom_bond_atom_site_label_1
_geom_bond_atom_site_label_2
_ccdc_geom_bond_type
C3    H12   S    
C27   C29   A    
C19   C20   S    
C23   O8    A    
C18   H17   S    
C6    C9    A    
C21   H25   S    
C25   O9    A    
C1    O6    A    
C17   H15   S    
C20   H21   S    
C14   H6    S    
C21   H24   S    
C15   C16   S    
C18   C19   S    
C19   H19   S    
C20   H20   S    
C16   C17   S    
C13   C14   S    
C11   H36   S    
C8    H35   S    
C21   C22   S    
O6    Zn2   S    
C18   H16   S    
C29   H31   S    
C21   O4    S    
C23   C30   S    
C28   N1    A    
O1    Zn1   S    
C14   H5    S    
O11   Zn1   S    
C19   H18   S    
O7    Zn1   S    
C22   H26   S    
C1    O1    A    
C6    H33   S    
C3    C30   D    
C2    C4    D    
C17   H13   S    
C15   H8    S    
C13   H3    S    
C29   N2    A    
O10   Zn2   S    
C30   O4    S    
C24   H30   S    
C15   H9    S    
C27   O2    S    
C16   H10   S    
C24   H28   S    
C11   H2    S    
N1    Zn1   S    
C22   C24   S    
C3    C4    S    
O5    Zn2   S    
C5    C7    A    
C18   O3    S    
C7    C9    A    
C15   O2    S    
C25   O11   A    
C1    C10   S    
O8    Zn1   S    
C6    C8    A    
C28   H23   S    
C26   C28   A    
N2    Zn2   S    
C17   H14   S    
C26   N2    A    
C5    C10   A    
C20   H22   S    
C14   H7    S    
C11   C13   S    
O9    Zn2   S    
C24   H29   S    
C22   H27   S    
C5    H32   S    
C2    C25   S    
C23   O10   A    
C9    C12   S    
C26   O12   S    
C7    H34   S    
C4    H1    S    
C27   N1    A    
C11   O12   S    
C13   H4    S    
C8    C10   A    
C12   O7    A    
C12   O5    A    
C16   H11   S    
C2    O3    S    
