data_mof_unit_36812.cif
_audit_creation_date              2013-03-05T16:48:13-0500
_audit_creation_method            fapswitch 2.2
_symmetry_space_group_name_H-M    P1
_symmetry_Int_Tables_number       1
_space_group_crystal_system       triclinic
_cell_length_a                    23.345604
_cell_length_b                    8.917076
_cell_length_c                    8.090903
_cell_angle_alpha                 89.868623
_cell_angle_beta                  89.749587
_cell_angle_gamma                 89.780548
_cell_volume                      1684.28708548

loop_
_atom_site_label
_atom_site_type_symbol
_atom_site_description
_atom_site_fract_x
_atom_site_fract_y
_atom_site_fract_z
_atom_type_partial_charge
O1    O     O_R   0.500000 0.285350 0.636850 -0.622843
O2    O     O_R   0.500000 0.714650 0.363150 -0.616860
O3    O     O_R   0.500000 0.714650 0.636850 -0.609806
O4    O     O_R   0.500000 0.285350 0.363150 -0.619361
H1    H     H_    0.948131 0.303044 0.118967 0.196069
H2    H     H_    0.052274 0.522234 0.917696 0.196596
H3    H     H_    0.948249 0.526468 0.918012 0.198860
H4    H     H_    0.052159 0.294932 0.119815 0.195243
C1    C     C_R   0.499433 0.217964 0.500130 0.914316
C2    C     C_R   0.499935 0.782058 0.499878 0.938628
O5    O     O_R   0.416160 0.500000 0.636910 -0.613982
O6    O     O_R   0.583840 0.500000 0.363090 -0.618928
O7    O     O_R   0.583840 0.500000 0.636910 -0.621661
O8    O     O_R   0.416160 0.500000 0.363090 -0.625819
C3    C     C_R   0.208904 0.436510 0.506803 0.256369
C4    C     C_R   0.791208 0.451217 0.509156 0.249095
C5    C     C_R   0.389016 0.499431 0.500616 0.854983
C6    C     C_R   0.610768 0.499453 0.499628 0.870304
Zn1   Zn    Zn3+2 0.500000 0.500000 0.682780 0.962476
Zn2   Zn    Zn3+2 0.500000 0.500000 0.317220 0.956337
H5    H     H_    0.203557 0.629164 0.349088 0.150139
H6    H     H_    0.777107 0.220787 0.446291 0.147615
H7    H     H_    0.224885 0.248620 0.665379 0.152887
H8    H     H_    0.793539 0.685084 0.572112 0.152076
C7    C     C_R   0.291026 0.580384 0.414762 0.037815
C8    C     C_R   0.697749 0.343408 0.461245 0.087646
C9    C     C_R   0.303165 0.358918 0.594695 0.022499
C10   C     C_R   0.706989 0.608624 0.539909 0.025699
C11   C     C_R   0.327098 0.480121 0.503071 -0.089154
C12   C     C_R   0.672560 0.484139 0.499006 -0.090134
C13   C     C_R   0.880375 0.463371 0.657778 0.507600
C14   C     C_R   0.120108 0.374094 0.374578 0.507606
C15   C     C_R   0.880507 0.391644 0.372927 0.506418
C16   C     C_R   0.120095 0.454064 0.656738 0.510645
N1    N     N_R   0.852029 0.434253 0.513661 -0.349620
N2    N     N_R   0.148387 0.418526 0.513621 -0.351904
C17   C     C_R   0.940132 0.378259 0.373146 -0.015241
C18   C     C_R   0.060330 0.450520 0.662313 -0.014886
C19   C     C_R   0.940124 0.456286 0.662396 -0.014713
C20   C     C_R   0.060312 0.369365 0.373915 -0.015682
C21   C     C_R   0.970121 0.413906 0.518379 -0.019060
C22   C     C_R   0.030301 0.410172 0.518572 -0.019939
C23   C     C_R   0.970369 0.333301 0.231175 -0.176238
C24   C     C_R   0.030049 0.490521 0.805947 -0.176215
C25   C     C_R   0.970430 0.492961 0.806119 -0.175261
C26   C     C_R   0.029976 0.328461 0.231704 -0.174989
C27   C     C_1   0.499488 0.065226 0.500173 -0.220695
C28   C     C_1   0.499671 0.934813 0.499807 -0.213502
C29   C     C_R   0.232071 0.554921 0.416234 -0.128142
C30   C     C_R   0.757080 0.328546 0.469869 -0.131643
C31   C     C_R   0.244007 0.339729 0.595734 -0.138298
C32   C     C_R   0.766342 0.590660 0.542774 -0.129403
N3    N     N_1   0.500000 0.500000 0.073640 -0.046101
N4    N     N_1   0.500000 0.500000 0.926360 -0.043246
O9    O     O_2   0.850723 0.499164 0.795878 -0.540378
O10   O     O_2   0.149889 0.336318 0.237368 -0.545720
O11   O     O_2   0.851223 0.365175 0.232519 -0.541903
O12   O     O_2   0.149789 0.495803 0.791750 -0.545388
C33   C     C_3   0.312764 0.716947 0.321097 -0.417760
C34   C     C_3   0.293686 0.863207 0.405134 -0.357012
C35   C     C_3   0.315769 0.999812 0.310719 -0.869616
H9    H     H_    0.363368 0.002608 0.313299 0.258609
H10   H     H_    0.300956 0.996806 0.180419 0.275132
H11   H     H_    0.298990 0.103787 0.368670 0.261673
H12   H     H_    0.246157 0.869657 0.410685 0.234430
H13   H     H_    0.310424 0.866317 0.533595 0.221474
H14   H     H_    0.359994 0.719058 0.310262 0.222349
H15   H     H_    0.295837 0.713351 0.192861 0.215382
C36   C     C_3   0.663149 0.205403 0.417082 -0.423438
C37   C     C_3   0.671758 0.158009 0.236180 -0.358106
C38   C     C_3   0.645785 0.270363 0.114616 -0.720857
H16   H     H_    0.598832 0.279556 0.134737 0.265462
H17   H     H_    0.665734 0.382389 0.129039 0.269228
H18   H     H_    0.653515 0.231745 0.986135 0.227471
H19   H     H_    0.718078 0.143301 0.208188 0.238355
H20   H     H_    0.650786 0.047651 0.218024 0.202621
H21   H     H_    0.677046 0.111555 0.497917 0.167912
H22   H     H_    0.616836 0.220119 0.441764 0.200881
C39   C     C_3   0.338950 0.245491 0.689439 -0.414815
C40   C     C_3   0.343106 0.288463 0.872624 -0.283520
C41   C     C_3   0.386029 0.188860 0.963369 -0.851741
H23   H     H_    0.373350 0.069258 0.954147 0.253847
H24   H     H_    0.429564 0.202909 0.909812 0.278442
H25   H     H_    0.387367 0.221064 0.095813 0.257980
H26   H     H_    0.356648 0.407161 0.885386 0.244585
H27   H     H_    0.300331 0.276669 0.932133 0.231780
H28   H     H_    0.319167 0.132569 0.680001 0.189288
H29   H     H_    0.382154 0.233177 0.633605 0.211911
C42   C     C_3   0.681910 0.761188 0.580476 -0.436262
C43   C     C_3   0.671473 0.776400 0.766957 -0.295493
C44   C     C_3   0.644821 0.928010 0.809335 -0.889054
H30   H     H_    0.675328 0.019627 0.780250 0.256077
H31   H     H_    0.604570 0.945664 0.739099 0.270456
H32   H     H_    0.634620 0.931683 0.943322 0.253855
H33   H     H_    0.642292 0.686534 0.810746 0.245901
H34   H     H_    0.712742 0.764528 0.833919 0.235301
H35   H     H_    0.711895 0.850377 0.538825 0.195723
H36   H     H_    0.641341 0.780228 0.512043 0.190344

loop_
_geom_bond_atom_site_label_1
_geom_bond_atom_site_label_2
_geom_bond_distance
_ccdc_geom_bond_type
H8    C32   1.083855 S    
C9    C11   1.423773 A    
C5    C11   1.456422 S    
C21   C22   1.405201 A    
C36   H21   1.109317 S    
H5    C29   1.083832 S    
C41   H23   1.110670 S    
C43   H33   1.110200 S    
C19   C21   1.408490 A    
N3    N4    1.191627 T    
C3    C29   1.393455 A    
C20   C26   1.403411 A    
O5    Zn1   1.993766 S    
O7    C6    1.273916 A    
C14   N2    1.367092 A    
C4    C30   1.393867 A    
C18   C22   1.408708 A    
C9    C39   1.517923 S    
C8    C30   1.392985 A    
C4    N1    1.427979 S    
C35   H10   1.111361 S    
C40   H27   1.111964 S    
C33   H14   1.105941 S    
O3    Zn1   1.948954 S    
C37   C38   1.528021 S    
C6    C12   1.448469 S    
C3    C31   1.389585 A    
C19   C25   1.403723 A    
C20   C22   1.409251 A    
H1    C23   1.082981 S    
C34   H13   1.112434 S    
C33   C34   1.535780 S    
H2    C24   1.083089 S    
O8    C5    1.278103 A    
C36   H22   1.106009 S    
C35   H9    1.111902 S    
C39   H28   1.112323 S    
C39   H29   1.108540 S    
C41   H24   1.110534 S    
C9    C31   1.392292 A    
C7    C29   1.395797 A    
C7    C11   1.419720 A    
O1    Zn1   1.950628 S    
O7    Zn1   1.990576 S    
O2    Zn2   1.950627 S    
O8    Zn2   1.990579 S    
O1    C1    1.260214 A    
C44   H30   1.110023 S    
C38   H17   1.110397 S    
Zn2   N3    1.970782 S    
C15   C17   1.396661 A    
C42   H35   1.112230 S    
C34   C35   1.526508 S    
C17   C23   1.404031 A    
C35   H11   1.109276 S    
C18   C24   1.403676 A    
C40   H26   1.110961 S    
C33   H15   1.112436 S    
C44   H31   1.110777 S    
H7    C31   1.084117 S    
C27   C28   1.162900 T    
O6    Zn2   1.993764 S    
C10   C42   1.515107 S    
Zn1   N4    1.970782 S    
C34   H12   1.111582 S    
C1    C27   1.361971 S    
C2    C28   1.362114 S    
C13   N1    1.369099 A    
O2    C2    1.260208 A    
H3    C25   1.083044 S    
C3    N2    1.423322 S    
C41   H25   1.110641 S    
C24   C25   1.391921 A    
O5    C5    1.274284 A    
C15   O11   1.350141 S    
C16   C18   1.396251 A    
C4    C32   1.397044 A    
C40   C41   1.525996 S    
C38   H18   1.109638 S    
C43   H34   1.111968 S    
H6    C30   1.083939 S    
C42   H36   1.111446 S    
C10   C12   1.413728 A    
C42   C43   1.533532 S    
C38   H16   1.110213 S    
O3    C2    1.259537 A    
C44   H32   1.109437 S    
C37   H20   1.111154 S    
C10   C32   1.394531 A    
C43   C44   1.525200 S    
C15   N1    1.369793 A    
C13   C19   1.396726 A    
C16   N2    1.367805 A    
C14   C20   1.396804 A    
C17   C21   1.408039 A    
C36   C37   1.536533 S    
C23   C26   1.392095 A    
H4    C26   1.083086 S    
C39   C40   1.535290 S    
O4    Zn2   1.948955 S    
O6    C6    1.273444 A    
C37   H19   1.111189 S    
C16   O12   1.350118 S    
C8    C36   1.518775 S    
C7    C33   1.520489 S    
C13   O9    1.350092 S    
O4    C1    1.259535 A    
C14   O10   1.349982 S    
C8    C12   1.417208 A    
