data_mof_unit_20755.cif
_audit_creation_date              2013-03-05T15:56:47-0500
_audit_creation_method            fapswitch 2.2
_symmetry_space_group_name_H-M    P1
_symmetry_Int_Tables_number       1
_space_group_crystal_system       triclinic
_cell_length_a                    21.20138
_cell_length_b                    21.326211
_cell_length_c                    13.710103
_cell_angle_alpha                 89.881132
_cell_angle_beta                  89.851158
_cell_angle_gamma                 89.734176
_cell_volume                      6198.85511935

loop_
_atom_site_label
_atom_site_type_symbol
_atom_site_description
_atom_site_fract_x
_atom_site_fract_y
_atom_site_fract_z
_atom_type_partial_charge
O1    O     O_R   0.064880 0.435140 0.582280 -0.588751
O2    O     O_R   0.935120 0.564860 0.417720 -0.588688
O3    O     O_R   0.935120 0.564860 0.582280 -0.587923
O4    O     O_R   0.064880 0.435140 0.417720 -0.585333
O5    O     O_R   0.935120 0.435140 0.417720 -0.585598
O6    O     O_R   0.064880 0.564860 0.582280 -0.589147
O7    O     O_R   0.064880 0.564860 0.417720 -0.581706
O8    O     O_R   0.935120 0.435140 0.582280 -0.589061
O9    O     O_R   0.564880 0.935140 0.582280 -0.584016
O10   O     O_R   0.435120 0.064860 0.417720 -0.581814
O11   O     O_R   0.435120 0.064860 0.582280 -0.582963
O12   O     O_R   0.564880 0.935140 0.417720 -0.585824
O13   O     O_R   0.435120 0.935140 0.417720 -0.591389
O14   O     O_R   0.564880 0.064860 0.582280 -0.591964
O15   O     O_R   0.564880 0.064860 0.417720 -0.588610
O16   O     O_R   0.435120 0.935140 0.582280 -0.591933
C1    C     C_R   0.085922 0.414864 0.499834 0.802160
C2    C     C_R   0.913772 0.584884 0.500121 0.803767
C3    C     C_R   0.913484 0.415034 0.500195 0.803583
C4    C     C_R   0.086119 0.585295 0.499939 0.802212
C5    C     C_R   0.585745 0.914582 0.500053 0.806643
C6    C     C_R   0.414127 0.085320 0.499853 0.802216
C7    C     C_R   0.414239 0.914394 0.500189 0.804547
C8    C     C_R   0.584876 0.086707 0.499883 0.804403
Cu1   Cu    Cu3+1 1.000000 0.500000 0.597420 0.928144
Cu2   Cu    Cu3+1 1.000000 0.500000 0.402580 0.938600
Cu3   Cu    Cu3+1 0.500000 0.000000 0.597420 0.932455
Cu4   Cu    Cu3+1 0.500000 0.000000 0.402580 0.930445
C9    C     C_R   0.144359 0.669172 0.583601 -0.215597
C10   C     C_R   0.844463 0.341044 0.588530 -0.213642
C11   C     C_R   0.877436 0.689741 0.545337 -0.209639
C12   C     C_R   0.118007 0.305992 0.526265 -0.209560
C13   C     C_R   0.642952 0.171571 0.414220 -0.216666
C14   C     C_R   0.357773 0.828880 0.417754 -0.215043
C15   C     C_R   0.381153 0.193509 0.467035 -0.209916
C16   C     C_R   0.620986 0.808676 0.456629 -0.213245
C17   C     C_R   0.135445 0.632709 0.500455 -0.098020
C18   C     C_R   0.861878 0.369899 0.501147 -0.097614
C19   C     C_R   0.865226 0.632615 0.500969 -0.077048
C20   C     C_R   0.133814 0.366605 0.498779 -0.075783
C21   C     C_R   0.629694 0.138756 0.500194 -0.096321
C22   C     C_R   0.366521 0.865475 0.500661 -0.095014
C23   C     C_R   0.365867 0.133475 0.498679 -0.075377
C24   C     C_R   0.633433 0.865927 0.500671 -0.080346
C25   C     C_R   0.174013 0.640739 0.419017 -0.198053
C26   C     C_R   0.828565 0.357637 0.415842 -0.199519
C27   C     C_R   0.806757 0.620254 0.460009 -0.209033
C28   C     C_R   0.194155 0.380862 0.466309 -0.217515
C29   C     C_R   0.657292 0.157068 0.587742 -0.200134
C30   C     C_R   0.330571 0.854925 0.584223 -0.196766
C31   C     C_R   0.304432 0.118443 0.524722 -0.208920
C32   C     C_R   0.690144 0.876299 0.548287 -0.206053
C33   C     C_R   0.221755 0.685665 0.419406 0.004377
C34   C     C_R   0.777861 0.316039 0.416497 0.001970
C35   C     C_R   0.759285 0.666038 0.460870 0.012634
C36   C     C_R   0.241284 0.334780 0.466099 0.013270
C37   C     C_R   0.699732 0.206817 0.590466 0.002686
C38   C     C_R   0.285416 0.807496 0.586198 0.006311
C39   C     C_R   0.256987 0.164246 0.522042 0.011876
C40   C     C_R   0.736700 0.829718 0.549948 0.008815
C41   C     C_R   0.229675 0.723956 0.502647 -0.051497
C42   C     C_R   0.762130 0.284524 0.504036 -0.048505
C43   C     C_R   0.771772 0.724957 0.504286 -0.055696
C44   C     C_R   0.225643 0.272713 0.493724 -0.056470
C45   C     C_R   0.715261 0.238345 0.502917 -0.048812
C46   C     C_R   0.276031 0.770622 0.501802 -0.051215
C47   C     C_R   0.272587 0.226140 0.493347 -0.056146
C48   C     C_R   0.724718 0.771387 0.504547 -0.055543
C49   C     C_R   0.190912 0.715587 0.586348 0.049416
C50   C     C_R   0.794749 0.297996 0.591926 0.045913
C51   C     C_R   0.831567 0.737295 0.547025 0.054426
C52   C     C_R   0.162775 0.257446 0.521115 0.056691
C53   C     C_R   0.685059 0.222338 0.413999 0.043407
C54   C     C_R   0.312776 0.780979 0.416419 0.049605
C55   C     C_R   0.335136 0.241077 0.463787 0.054925
C56   C     C_R   0.665336 0.759623 0.460304 0.054507
C57   C     C_R   0.261311 0.692740 0.337421 0.445232
C58   C     C_R   0.743233 0.305368 0.330501 0.452354
C59   C     C_R   0.699617 0.653284 0.420107 0.445600
C60   C     C_R   0.303349 0.350085 0.437927 0.444608
C61   C     C_R   0.727353 0.224589 0.679597 0.448318
C62   C     C_R   0.249484 0.797047 0.671310 0.448062
C63   C     C_R   0.194308 0.148561 0.546439 0.443000
C64   C     C_R   0.794833 0.841081 0.596164 0.447287
C65   C     C_R   0.776944 0.268260 0.680604 0.045338
C66   C     C_R   0.199844 0.753294 0.670564 0.044238
C67   C     C_R   0.146231 0.194420 0.542276 0.042734
C68   C     C_R   0.843843 0.796314 0.590847 0.044745
C69   C     C_R   0.304503 0.742693 0.332792 0.046621
C70   C     C_R   0.697952 0.257193 0.327644 0.045699
C71   C     C_R   0.651649 0.699407 0.421754 0.046099
C72   C     C_R   0.350112 0.302880 0.432479 0.045562
H1    H     H_    0.113897 0.660918 0.645435 0.165572
H2    H     H_    0.870933 0.352244 0.653229 0.166787
H3    H     H_    0.923449 0.696002 0.577480 0.143176
H4    H     H_    0.070077 0.297729 0.549856 0.138901
H5    H     H_    0.620145 0.156579 0.348014 0.166674
H6    H     H_    0.387455 0.837920 0.355281 0.164313
H7    H     H_    0.429612 0.202056 0.446566 0.138393
H8    H     H_    0.575760 0.803219 0.421582 0.142578
H9    H     H_    0.166718 0.611555 0.355443 0.189147
H10   H     H_    0.842323 0.380862 0.348789 0.193478
H11   H     H_    0.798593 0.574276 0.429152 0.165498
H12   H     H_    0.204058 0.428410 0.442897 0.167259
H13   H     H_    0.646375 0.131470 0.653848 0.187728
H14   H     H_    0.337517 0.884529 0.647403 0.184593
H15   H     H_    0.294046 0.070568 0.545827 0.171663
H16   H     H_    0.698010 0.921529 0.582016 0.175676
C73   C     C_R   0.054819 0.490121 0.792553 0.017666
C74   C     C_R   0.945914 0.513188 0.207141 0.029682
C75   C     C_R   0.945200 0.509698 0.792900 0.016075
C76   C     C_R   0.054067 0.486724 0.206911 0.027098
C77   C     C_R   0.555643 0.998019 0.792648 0.015743
C78   C     C_R   0.444363 0.001280 0.207634 0.017109
C79   C     C_R   0.444333 0.998790 0.793151 0.021815
C80   C     C_R   0.555459 0.995026 0.207056 0.019471
N1    N     N_R   1.000000 0.500000 0.743810 -0.193758
N2    N     N_R   1.000000 0.500000 0.256190 -0.192841
N3    N     N_R   0.500000 0.000000 0.743810 -0.191128
N4    N     N_R   0.500000 0.000000 0.256190 -0.194482
C81   C     C_R   0.943142 0.510492 0.896364 -0.045600
C82   C     C_R   0.055793 0.484727 0.103380 -0.044721
C83   C     C_R   0.056968 0.489273 0.896053 -0.037025
C84   C     C_R   0.944204 0.515020 0.103608 -0.029052
C85   C     C_R   0.442233 0.995711 0.896697 -0.048223
C86   C     C_R   0.557349 0.991609 0.103719 -0.052799
C87   C     C_R   0.557860 0.995895 0.896329 -0.041583
C88   C     C_R   0.442034 0.999856 0.104127 -0.036317
C89   C     C_R   0.000036 0.499810 0.948155 0.000535
C90   C     C_R   0.999993 0.499768 0.051531 -0.001584
C91   C     C_R   0.499964 0.996097 0.948468 -0.000444
C92   C     C_R   0.499791 0.996109 0.051895 -0.001687
C93   C     C_R   0.886239 0.523021 0.948416 0.122339
C94   C     C_R   0.111883 0.469001 0.051324 0.124243
C95   C     C_R   0.114060 0.477166 0.947804 0.131251
C96   C     C_R   0.888313 0.531434 0.051721 0.136257
C97   C     C_R   0.384176 0.992198 0.949006 0.106715
C98   C     C_R   0.615029 0.983502 0.051845 0.125374
C99   C     C_R   0.616031 0.991369 0.948248 0.133381
C100  C     C_R   0.383717 0.999952 0.052635 0.127464
H17   H     H_    0.096398 0.482305 0.748905 0.149383
H18   H     H_    0.904251 0.521785 0.250281 0.140015
H19   H     H_    0.903769 0.518080 0.749465 0.150002
H20   H     H_    0.095822 0.478856 0.249912 0.146306
H21   H     H_    0.597872 0.997355 0.748790 0.145688
H22   H     H_    0.402237 0.002579 0.251663 0.150691
H23   H     H_    0.401869 0.001223 0.750173 0.141492
H24   H     H_    0.597936 0.994373 0.250078 0.147950
O17   O     O_3   0.256432 0.651708 0.259740 -0.586602
C101  C     C_3   0.298359 0.601112 0.276188 -0.392763
H25   H     H_    0.303838 0.574545 0.207343 0.205874
H26   H     H_    0.279172 0.568814 0.332581 0.187269
H27   H     H_    0.346472 0.616847 0.297448 0.152811
O18   O     O_3   0.757118 0.338738 0.246341 -0.579262
C102  C     C_3   0.723360 0.395988 0.248427 -0.394874
H28   H     H_    0.738830 0.426367 0.309634 0.176596
H29   H     H_    0.671565 0.388197 0.253241 0.160110
H30   H     H_    0.732835 0.421751 0.179589 0.189008
O19   O     O_3   0.686181 0.593589 0.386510 -0.578454
C103  C     C_3   0.701872 0.590334 0.286610 -0.421681
H31   H     H_    0.677921 0.627538 0.243061 0.160134
H32   H     H_    0.686451 0.544305 0.257937 0.192506
H33   H     H_    0.753548 0.593332 0.276227 0.182985
O20   O     O_3   0.317334 0.410798 0.409200 -0.588683
C104  C     C_3   0.335518 0.445211 0.492315 -0.404028
H34   H     H_    0.377852 0.424319 0.527831 0.162003
H35   H     H_    0.296381 0.449012 0.546211 0.168844
H36   H     H_    0.347896 0.493466 0.469012 0.193864
O21   O     O_3   0.709131 0.195690 0.765602 -0.593563
C105  C     C_3   0.656548 0.228341 0.803821 -0.403320
H37   H     H_    0.643698 0.207074 0.875013 0.199905
H38   H     H_    0.614884 0.224388 0.755119 0.173970
H39   H     H_    0.667444 0.278629 0.817062 0.162028
O22   O     O_3   0.260257 0.832741 0.753887 -0.587886
C106  C     C_3   0.306394 0.802010 0.810970 -0.410731
H40   H     H_    0.312396 0.828352 0.879956 0.192181
H41   H     H_    0.352859 0.800971 0.773147 0.173392
H42   H     H_    0.291933 0.753473 0.830716 0.166035
O23   O     O_3   0.179255 0.086923 0.567599 -0.576043
C107  C     C_3   0.184189 0.078117 0.669236 -0.381918
H43   H     H_    0.148598 0.106529 0.709533 0.159046
H44   H     H_    0.232170 0.089809 0.695792 0.166723
H45   H     H_    0.175266 0.028021 0.685888 0.210332
O24   O     O_3   0.805128 0.898047 0.641587 -0.576737
C108  C     C_3   0.786149 0.892615 0.740003 -0.393225
H46   H     H_    0.793724 0.938331 0.776470 0.203105
H47   H     H_    0.814664 0.856800 0.779535 0.159079
H48   H     H_    0.735192 0.881009 0.746330 0.161060
C109  C     C_3   0.810690 0.281106 0.776537 -0.367746
C110  C     C_3   0.872657 0.244485 0.782761 -0.809701
H49   H     H_    0.863152 0.193322 0.780539 0.264398
H50   H     H_    0.904783 0.256700 0.721675 0.242627
H51   H     H_    0.896634 0.255514 0.852517 0.237334
H52   H     H_    0.818759 0.332060 0.786570 0.173249
H53   H     H_    0.781581 0.267427 0.840383 0.242428
C111  C     C_3   0.156712 0.748542 0.759502 -0.365272
C112  C     C_3   0.093041 0.780190 0.740613 -0.824751
H54   H     H_    0.099973 0.830776 0.724563 0.263852
H55   H     H_    0.068169 0.758358 0.678345 0.246873
H56   H     H_    0.062737 0.775860 0.806434 0.237334
H57   H     H_    0.150374 0.698915 0.781842 0.178995
H58   H     H_    0.177405 0.771493 0.824395 0.244748
C113  C     C_3   0.077745 0.174776 0.557405 -0.377123
C114  C     C_3   0.041027 0.176264 0.461601 -0.798675
H59   H     H_    0.040105 0.223962 0.429268 0.248069
H60   H     H_    0.062867 0.143407 0.408426 0.262216
H61   H     H_    0.991629 0.161426 0.475127 0.240334
H62   H     H_    0.073915 0.126367 0.586263 0.245302
H63   H     H_    0.054448 0.204656 0.613147 0.176944
C115  C     C_3   0.908831 0.813123 0.630350 -0.380001
C116  C     C_3   0.955070 0.827436 0.547627 -0.804741
H64   H     H_    0.961759 0.786361 0.499150 0.246471
H65   H     H_    0.937354 0.867535 0.503516 0.266114
H66   H     H_    0.001571 0.840268 0.578627 0.240283
H67   H     H_    0.907159 0.855212 0.677613 0.244957
H68   H     H_    0.927386 0.775310 0.678190 0.178377
C117  C     C_3   0.340771 0.754099 0.238116 -0.368805
C118  C     C_3   0.314342 0.810627 0.182597 -0.831232
H69   H     H_    0.264454 0.801977 0.162265 0.264566
H70   H     H_    0.316549 0.854001 0.226916 0.245632
H71   H     H_    0.342139 0.818100 0.114815 0.229460
H72   H     H_    0.391877 0.759910 0.252607 0.173263
H73   H     H_    0.338275 0.713318 0.188247 0.242017
C119  C     C_3   0.665238 0.243322 0.231371 -0.373191
C120  C     C_3   0.698128 0.189612 0.178023 -0.808635
H74   H     H_    0.746062 0.204245 0.154623 0.270723
H75   H     H_    0.702589 0.148136 0.226308 0.245515
H76   H     H_    0.670575 0.176477 0.112438 0.234459
H77   H     H_    0.614537 0.232891 0.242857 0.176570
H78   H     H_    0.665193 0.284719 0.182274 0.233406
C121  C     C_3   0.585923 0.682733 0.385064 -0.372927
C122  C     C_3   0.539393 0.674590 0.469457 -0.824937
H79   H     H_    0.555386 0.635913 0.517976 0.262787
H80   H     H_    0.534815 0.718106 0.513102 0.247837
H81   H     H_    0.492177 0.662592 0.440183 0.229764
H82   H     H_    0.568580 0.718508 0.332604 0.172443
H83   H     H_    0.585866 0.638237 0.343456 0.240280
C123  C     C_3   0.414971 0.319289 0.391638 -0.371784
C124  C     C_3   0.423698 0.293694 0.288407 -0.823559
H84   H     H_    0.418789 0.241955 0.286541 0.251204
H85   H     H_    0.388061 0.314886 0.238883 0.261347
H86   H     H_    0.471458 0.305947 0.261148 0.229656
H87   H     H_    0.422279 0.370670 0.387597 0.241165
H88   H     H_    0.452892 0.301975 0.440539 0.175945
C125  C     C_3   0.823433 0.525141 0.894277 -0.418090
C126  C     C_3   0.808843 0.590746 0.854789 -0.826482
H89   H     H_    0.805618 0.625281 0.915005 0.254105
H90   H     H_    0.846011 0.606310 0.803114 0.250304
H91   H     H_    0.763064 0.590149 0.815675 0.241692
H92   H     H_    0.822817 0.490634 0.833867 0.183812
H93   H     H_    0.784147 0.508332 0.940822 0.187891
C127  C     C_3   0.167239 0.439243 0.105537 -0.422192
C128  C     C_3   0.213682 0.488359 0.141898 -0.814939
H94   H     H_    0.234836 0.514481 0.080028 0.256113
H95   H     H_    0.189804 0.522397 0.190907 0.259856
H96   H     H_    0.252105 0.464815 0.183163 0.251496
H97   H     H_    0.150550 0.410525 0.167973 0.197002
H98   H     H_    0.191807 0.403802 0.060018 0.191347
C129  C     C_3   0.177001 0.475519 0.892698 -0.412462
C130  C     C_3   0.196128 0.541179 0.858638 -0.844796
H99   H     H_    0.160639 0.562214 0.808973 0.245871
H100  H     H_    0.201843 0.572545 0.922559 0.259134
H101  H     H_    0.241831 0.538497 0.819084 0.236136
H102  H     H_    0.216813 0.457840 0.936550 0.215121
H103  H     H_    0.174754 0.442643 0.830221 0.181594
C131  C     C_3   0.833628 0.563193 0.105665 -0.434254
C132  C     C_3   0.852097 0.629268 0.138308 -0.834301
H104  H     H_    0.887725 0.627768 0.197337 0.257692
H105  H     H_    0.871547 0.656122 0.075640 0.258251
H106  H     H_    0.810012 0.654891 0.165771 0.230000
H107  H     H_    0.790792 0.569199 0.061188 0.215249
H108  H     H_    0.818004 0.534151 0.168261 0.172759
C133  C     C_3   0.323878 0.974966 0.895385 -0.391849
C134  C     C_3   0.286541 0.032955 0.864825 -0.845869
H109  H     H_    0.276297 0.063813 0.927856 0.259127
H110  H     H_    0.313329 0.060230 0.809682 0.240921
H111  H     H_    0.241052 0.017846 0.833179 0.243338
H112  H     H_    0.333940 0.945813 0.830243 0.208186
H113  H     H_    0.294220 0.943200 0.940046 0.198089
C135  C     C_3   0.673525 0.960311 0.105998 -0.414991
C136  C     C_3   0.714917 0.014209 0.140518 -0.831003
H114  H     H_    0.729277 0.044613 0.078743 0.260852
H115  H     H_    0.689120 0.042954 0.194817 0.241411
H116  H     H_    0.758030 0.995034 0.175631 0.246030
H117  H     H_    0.660311 0.930802 0.169546 0.191927
H118  H     H_    0.701272 0.926983 0.060951 0.189264
C137  C     C_3   0.678597 0.996239 0.893029 -0.477816
C138  C     C_3   0.691059 0.063579 0.860373 -0.735298
H119  H     H_    0.652045 0.082091 0.814954 0.253466
H120  H     H_    0.696325 0.094457 0.924929 0.253861
H121  H     H_    0.735313 0.065261 0.816948 0.256848
H122  H     H_    0.720141 0.981827 0.935918 0.217922
H123  H     H_    0.678945 0.964046 0.829770 0.181954
C139  C     C_3   0.321688 0.009498 0.108513 -0.418311
C140  C     C_3   0.314299 0.077367 0.143181 -0.816331
H124  H     H_    0.352878 0.091393 0.192867 0.250752
H125  H     H_    0.314136 0.109776 0.079706 0.249297
H126  H     H_    0.268878 0.082712 0.182888 0.245416
H127  H     H_    0.279194 0.999244 0.065344 0.220289
H128  H     H_    0.318519 0.976387 0.170829 0.183652

loop_
_geom_bond_atom_site_label_1
_geom_bond_atom_site_label_2
_geom_bond_distance
_ccdc_geom_bond_type
C117  H73   1.108922 S    
C63   C67   1.410507 A    
C125  H92   1.109213 S    
C104  H34   1.113031 S    
C8    C21   1.464546 S    
C79   H23   1.078264 S    
O5    Cu2   1.965576 S    
O2    C2    1.288811 A    
C134  H111  1.108083 S    
C132  H105  1.111095 S    
O21   C105  1.411945 S    
C124  H84   1.109140 S    
C14   C22   1.393406 A    
C94   C127  1.525868 S    
C113  C114  1.528774 S    
C23   C31   1.388455 A    
C119  C120  1.525325 S    
C74   N2    1.358853 A    
C118  H69   1.110858 S    
C98   C99   1.429978 A    
C73   N1    1.357562 A    
C12   C52   1.403047 A    
C137  H123  1.107235 S    
O10   C6    1.286122 A    
C136  H116  1.110160 S    
C139  H128  1.109371 S    
C26   H10   1.083320 S    
O13   C7    1.291223 A    
C110  H49   1.110983 S    
C7    C22   1.456589 S    
O12   Cu4   1.957330 S    
C54   C69   1.420654 A    
C27   C35   1.399049 A    
O20   C104  1.412146 S    
C39   C63   1.411028 A    
C53   C70   1.423212 A    
C78   N4    1.356116 A    
C131  H107  1.102064 S    
C38   C62   1.409789 A    
C59   O19   1.385819 S    
C128  H94   1.108784 S    
O22   C106  1.412346 S    
C132  H106  1.109536 S    
C115  H68   1.109710 S    
C108  H47   1.112802 S    
O6    Cu1   1.965573 S    
C75   C81   1.419203 A    
C105  H37   1.109298 S    
C65   C109  1.524814 S    
C115  H67   1.108500 S    
C46   C54   1.421905 A    
C123  H88   1.109606 S    
C111  C112  1.528889 S    
C120  H76   1.110639 S    
C29   C37   1.394921 A    
O24   C108  1.411698 S    
C42   C50   1.421407 A    
O3    C2    1.286418 A    
C96   C131  1.529778 S    
C134  H109  1.107735 S    
O14   C8    1.292334 A    
C74   H18   1.076985 S    
C109  H53   1.109040 S    
C135  H117  1.109822 S    
C60   O20   1.385755 S    
C32   C40   1.397326 A    
C110  H51   1.110366 S    
C74   C84   1.420455 A    
C77   N3    1.358439 A    
C33   C41   1.415489 A    
C109  H52   1.109715 S    
C38   C46   1.415357 A    
C82   C94   1.424377 A    
C62   O22   1.385609 S    
C101  H27   1.114982 S    
C35   C43   1.417822 A    
O11   Cu3   1.957330 S    
C93   C96   1.428832 A    
C36   C44   1.416627 A    
O13   Cu4   1.965576 S    
C121  H82   1.109544 S    
C61   O21   1.384301 S    
O14   Cu3   1.965573 S    
C106  H42   1.113607 S    
C16   C56   1.404255 A    
C81   C89   1.418550 A    
C13   H5    1.079281 S    
C107  H45   1.109040 S    
C75   H19   1.076552 S    
Cu3   Cu4   2.671275 S    
C66   C111  1.525736 S    
O16   C7    1.290319 A    
C24   C32   1.388482 A    
O16   Cu3   1.966936 S    
C11   C51   1.401990 A    
C133  H112  1.108955 S    
C125  H93   1.108391 S    
C25   C33   1.396983 A    
C104  H35   1.112445 S    
C68   C115  1.526286 S    
C125  C126  1.529695 S    
C83   C89   1.418229 A    
C102  H30   1.109430 S    
O1    Cu1   1.957181 S    
O8    Cu1   1.966936 S    
C28   H12   1.084272 S    
C126  H91   1.110221 S    
C109  C110  1.527764 S    
C87   C99   1.428344 A    
C130  H101  1.110471 S    
C15   H7    1.080533 S    
C41   C46   1.401957 A    
C67   C113  1.526628 S    
C10   C50   1.401591 A    
C107  H44   1.110932 S    
C127  H97   1.109628 S    
C120  H74   1.110830 S    
C140  H126  1.110511 S    
C9    C49   1.401706 A    
C95   C129  1.532044 S    
C120  H75   1.107558 S    
C97   C100  1.430699 A    
C126  H90   1.109783 S    
O8    C3    1.291237 A    
C27   H11   1.083539 S    
C78   C88   1.420463 A    
C84   C96   1.425566 A    
C127  H98   1.108446 S    
C59   C71   1.411742 A    
C30   C38   1.396091 A    
C138  H121  1.110556 S    
Cu2   N2    2.007022 S    
C64   O24   1.384817 S    
C135  C136  1.526146 S    
C78   H22   1.076967 S    
C130  H100  1.110803 S    
C129  H102  1.102191 S    
Cu4   N4    2.007022 S    
C45   C53   1.421445 A    
C57   O17   1.384178 S    
C140  H124  1.108379 S    
C80   H24   1.077835 S    
C73   C83   1.419909 A    
C108  H48   1.112604 S    
C29   H13   1.082149 S    
C34   C42   1.414218 A    
C85   C97   1.425169 A    
C136  H114  1.108445 S    
C62   C66   1.409826 A    
C69   C117  1.526602 S    
C123  H87   1.108618 S    
C122  H81   1.110639 S    
C58   C70   1.410046 A    
C80   N4    1.357418 A    
C83   C95   1.426898 A    
C1    C20   1.442446 S    
C138  H120  1.110432 S    
C73   H17   1.076700 S    
C60   C72   1.411598 A    
C112  H56   1.110334 S    
C33   C57   1.408926 A    
C2    C19   1.444269 S    
C44   C47   1.402816 A    
C116  H64   1.109023 S    
C70   C119  1.522828 S    
C129  H103  1.109304 S    
C3    C18   1.460625 S    
C119  H78   1.109060 S    
C76   N2    1.358079 A    
C5    C24   1.445427 S    
C35   C59   1.412145 A    
C85   C91   1.416538 A    
C39   C47   1.416934 A    
C118  H70   1.109012 S    
O19   C103  1.410392 S    
C114  H61   1.110497 S    
C86   C92   1.416455 A    
C72   C123  1.525285 S    
C26   C34   1.396944 A    
C122  H80   1.109003 S    
C133  C134  1.523836 S    
C47   C55   1.422992 A    
C84   C90   1.416906 A    
C124  H85   1.111012 S    
C133  H113  1.108812 S    
C76   H20   1.077188 S    
C102  H29   1.113157 S    
O7    Cu2   1.966933 S    
C40   C48   1.416489 A    
O18   C102  1.412685 S    
C25   H9    1.083895 S    
C55   C72   1.422356 A    
C22   C30   1.392861 A    
C77   C87   1.423003 A    
O4    C1    1.285388 A    
C13   C53   1.406433 A    
C140  H125  1.110206 S    
C116  H65   1.110936 S    
C43   C51   1.423862 A    
O7    C4    1.292219 A    
C106  H41   1.112219 S    
C77   H21   1.077253 S    
C12   C20   1.388017 A    
C111  H57   1.109834 S    
C137  C138  1.527388 S    
C9    C17   1.395010 A    
C101  H26   1.111962 S    
C15   C55   1.404920 A    
C48   C56   1.422475 A    
C99   C137  1.529459 S    
C17   C25   1.392958 A    
C129  C130  1.531282 S    
C102  H28   1.112273 S    
C52   C67   1.419873 A    
C15   C23   1.390403 A    
C107  H43   1.112084 S    
O9    Cu3   1.957181 S    
C118  H71   1.110735 S    
C19   C27   1.388818 A    
C89   C90   1.417291 A    
C113  H62   1.108072 S    
O10   Cu4   1.957181 S    
C117  H72   1.109652 S    
C28   C36   1.398243 A    
C126  H89   1.109260 S    
C88   C92   1.418966 A    
C110  H50   1.109485 S    
C97   C133  1.523197 S    
C42   C45   1.402410 A    
C12   H4    1.080733 S    
C101  H25   1.107448 S    
C57   C69   1.409224 A    
O1    C1    1.288915 A    
C103  H32   1.109168 S    
C58   O18   1.386088 S    
C64   C68   1.409659 A    
C14   H6    1.079086 S    
C114  H60   1.110969 S    
C130  H99   1.108722 S    
C79   C85   1.421591 A    
O2    Cu2   1.957181 S    
C128  H96   1.110503 S    
O4    Cu2   1.957330 S    
C132  H104  1.108781 S    
C16   H8    1.080506 S    
C94   C95   1.430207 A    
O5    C3    1.292268 A    
Cu3   N3    2.007022 S    
O23   C107  1.409756 S    
C136  H115  1.107153 S    
C21   C29   1.394011 A    
O6    C4    1.290060 A    
C76   C82   1.420516 A    
C43   C48   1.402327 A    
O11   C6    1.290095 A    
C79   N3    1.359133 A    
C104  H36   1.109368 S    
C36   C60   1.409982 A    
C63   O23   1.384115 S    
C121  H83   1.108211 S    
C41   C49   1.421177 A    
C103  H31   1.113430 S    
C98   C135  1.526925 S    
C87   C91   1.418847 A    
C112  H55   1.109020 S    
Cu1   Cu2   2.671275 S    
C13   C21   1.398148 A    
C139  H127  1.102229 S    
C10   H2    1.078678 S    
C106  H40   1.108982 S    
C131  H108  1.108164 S    
O17   C101  1.412966 S    
C138  H119  1.107453 S    
O15   C8    1.293133 A    
C9    H1    1.079054 S    
C4    C17   1.458085 S    
C40   C64   1.409527 A    
O9    C5    1.287036 A    
C108  H46   1.109146 S    
C139  C140  1.531588 S    
C105  H38   1.112293 S    
C11   H3    1.080477 S    
O12   C5    1.288725 A    
C117  C118  1.529306 S    
C123  C124  1.528452 S    
C122  H79   1.110910 S    
C86   C98   1.423078 A    
C34   C58   1.409967 A    
C11   C19   1.388538 A    
C88   C100  1.425339 A    
C124  H86   1.110579 S    
C134  H110  1.109713 S    
C44   C52   1.422868 A    
Cu1   N1    2.007022 S    
C112  H54   1.110922 S    
C37   C61   1.409806 A    
C135  H118  1.108474 S    
C18   C26   1.393669 A    
C100  C139  1.533213 S    
C16   C24   1.389896 A    
C131  C132  1.532290 S    
C56   C71   1.421174 A    
C75   N1    1.356420 A    
C51   C68   1.421217 A    
O15   Cu4   1.966933 S    
C14   C54   1.401154 A    
O3    Cu1   1.957330 S    
C31   C39   1.399386 A    
C114  H59   1.108890 S    
C32   H16   1.084362 S    
C31   H15   1.084051 S    
C115  C116  1.528418 S    
C128  H95   1.109733 S    
C71   C121  1.526521 S    
C121  C122  1.528684 S    
C30   H14   1.083699 S    
C137  H122  1.102463 S    
C113  H63   1.109607 S    
C80   C86   1.419239 A    
C10   C18   1.395365 A    
C81   C93   1.424581 A    
C116  H66   1.110253 S    
C119  H77   1.109481 S    
C50   C65   1.421061 A    
C111  H58   1.108797 S    
C20   C28   1.388299 A    
C82   C90   1.416928 A    
C6    C23   1.446390 S    
C61   C65   1.407906 A    
C49   C66   1.421977 A    
C91   C92   1.417992 A    
C93   C125  1.526612 S    
C127  C128  1.526282 S    
C37   C45   1.413459 A    
C105  H39   1.113454 S    
C103  H33   1.106582 S    
