data_mof_unit_66221.cif
_audit_creation_date              2012-12-10T19:27:20-0500
_audit_creation_method            fapswitch 2.2
_symmetry_space_group_name_H-M    P1
_symmetry_Int_Tables_number       1
_space_group_crystal_system       triclinic
_cell_length_a                    18.677665
_cell_length_b                    18.844408
_cell_length_c                    18.703414
_cell_angle_alpha                 109.758007
_cell_angle_beta                  109.047771
_cell_angle_gamma                 109.662
_cell_volume                      5064.0616258

loop_
_atom_site_label
_atom_site_type_symbol
_atom_type_description
_atom_site_fract_x
_atom_site_fract_y
_atom_site_fract_z
_atom_type_partial_charge
C1    C     C_R   0.379278 0.380030 0.499812 0.866646
C2    C     C_R   0.759846 0.580698 0.757629 0.035061
C3    C     C_R   0.813390 0.499965 0.814397 -0.183270
C4    C     C_R   0.743657 0.419553 0.739563 0.073045
C5    C     C_R   0.675076 0.419520 0.679469 0.078860
C6    C     C_R   0.685910 0.500128 0.686659 -0.177927
C7    C     C_R   0.740185 0.338850 0.723233 -0.143986
C8    C     C_R   0.665728 0.260107 0.654877 -0.130962
C9    C     C_R   0.593605 0.259929 0.601646 -0.139704
C10   C     C_R   0.597746 0.338560 0.613474 -0.143585
C11   C     C_R   0.319728 0.241682 0.497515 0.032641
C12   C     C_R   0.620021 0.500119 0.620153 0.871033
C13   C     C_R   0.315211 0.315553 0.503321 -0.058288
C14   C     C_R   0.251924 0.330168 0.520017 -0.183628
C15   C     C_R   0.186975 0.265289 0.518894 -0.202095
C16   C     C_R   0.187162 0.187318 0.503243 -0.030892
C17   C     C_R   0.256590 0.178382 0.498040 0.053868
C18   C     C_3   0.257106 0.106383 0.432194 0.069437
C19   C     C_3   0.326777 0.176785 0.431509 -0.460010
C20   C     C_R   0.248525 0.425802 0.238231 0.072164
C21   C     C_R   0.316136 0.501976 0.314579 -0.079184
C22   C     C_R   0.318811 0.581077 0.327018 -0.203833
C23   C     C_R   0.621732 0.620097 0.501270 0.873581
C24   C     C_R   0.254413 0.580964 0.262010 -0.202206
C25   C     C_R   0.185946 0.501471 0.186239 -0.088044
C26   C     C_R   0.184726 0.425192 0.177793 0.085199
C27   C     C_3   0.138156 0.328934 0.118751 -0.016289
C28   C     C_3   0.211096 0.329757 0.188816 -0.474684
C29   C     C_R   0.686289 0.675230 0.423283 0.043896
C30   C     C_R   0.687752 0.686611 0.501492 -0.078221
C31   C     C_R   0.747604 0.767638 0.578728 -0.172450
C32   C     C_R   0.811521 0.832335 0.578666 -0.195096
C33   C     C_R   0.812793 0.816719 0.500577 -0.053941
C34   C     C_R   0.380381 0.500359 0.379893 0.879934
C35   C     C_R   0.746058 0.741037 0.422272 0.082156
C36   C     C_3   0.752297 0.679462 0.352628 -0.538051
C37   C     C_3   0.688163 0.606224 0.355259 0.040575
C38   C     C_R   0.999683 0.380114 0.879313 0.861233
C39   C     C_R   0.879849 0.499973 0.880186 0.860144
C40   C     C_R   0.999959 0.619789 0.120394 0.861166
C41   C     C_R   0.120069 0.499858 0.119668 0.878047
C42   C     C_R   0.000058 0.119934 0.620354 0.857699
C43   C     C_R   0.120208 0.119710 0.499990 0.900822
C44   C     C_R   0.001095 0.881194 0.379762 0.900336
C45   C     C_R   0.775679 0.661800 0.762386 -0.185945
C46   C     C_R   0.879806 0.880258 0.499916 0.863535
C47   C     C_R   0.010038 0.248737 0.825783 0.084622
C48   C     C_R   0.002633 0.315838 0.814732 -0.088462
C49   C     C_R   0.007252 0.325486 0.744938 -0.205353
C50   C     C_R   0.006668 0.260820 0.680257 -0.211791
C51   C     C_R   0.004180 0.188550 0.687490 -0.081053
C52   C     C_R   0.011954 0.186167 0.763141 0.135696
C53   C     C_3   0.956678 0.114767 0.771994 -0.493378
C54   C     C_3   0.954315 0.183891 0.841015 -0.417778
C55   C     C_R   0.922550 0.675319 0.184003 0.092868
C56   C     C_R   0.842846 0.740409 0.838036 0.321332
C57   C     C_R   0.001274 0.684027 0.188978 -0.056697
C58   C     C_R   0.081084 0.753496 0.262653 -0.195670
C59   C     C_R   0.081054 0.818359 0.326542 -0.149999
C60   C     C_R   0.001545 0.815251 0.314123 -0.041357
C61   C     C_R   0.922729 0.742114 0.243880 0.014593
C62   C     C_3   0.844426 0.732033 0.175013 0.037560
C63   C     C_3   0.842790 0.655919 0.109651 -0.518992
C64   C     C_R   0.895543 0.739851 0.909910 -0.133500
C65   C     C_R   0.884570 0.660971 0.904325 -0.214892
C66   C     C_R   0.819638 0.580438 0.826134 0.074651
H1    H     H_    0.534781 0.198677 0.550198 0.131183
H2    H     H_    0.135908 0.274904 0.528088 0.148343
H3    H     H_    0.281880 0.070560 0.460218 0.126374
H4    H     H_    0.391685 0.181508 0.459318 0.163013
H5    H     H_    0.305296 0.176716 0.368582 0.246688
H6    H     H_    0.370783 0.642336 0.385719 0.161788
H7    H     H_    0.257319 0.642024 0.271266 0.152482
H8    H     H_    0.139483 0.311197 0.056332 0.126966
H9    H     H_    0.188973 0.297678 0.223669 0.231299
H10   H     H_    0.737190 0.665618 0.707897 0.167589
H11   H     H_    0.254193 0.312219 0.166554 0.196244
H12   H     H_    0.747281 0.779353 0.639417 0.193028
H13   H     H_    0.860498 0.893279 0.639144 0.161807
H14   H     H_    0.724208 0.679500 0.290304 0.184378
H15   H     H_    0.819096 0.687938 0.375400 0.222032
H16   H     H_    0.624057 0.563038 0.293536 0.139541
H17   H     H_    0.006650 0.380230 0.738243 0.164055
H18   H     H_    0.006051 0.266019 0.624129 0.159543
H19   H     H_    0.891747 0.066855 0.711843 0.197268
H20   H     H_    0.993386 0.085755 0.798924 0.224542
H21   H     H_    0.887966 0.176231 0.820947 0.219381
H22   H     H_    0.989518 0.194534 0.907668 0.222957
H23   H     H_    0.142721 0.758271 0.269688 0.151393
H24   H     H_    0.142810 0.872703 0.383094 0.159270
H25   H     H_    0.786881 0.711655 0.184841 0.129135
H26   H     H_    0.785700 0.591749 0.083998 0.196345
H27   H     H_    0.855575 0.665835 0.058797 0.211185
H28   H     H_    0.946176 0.800601 0.969774 0.193321
H29   H     H_    0.927224 0.664297 0.962175 0.168228
H30   H     H_    0.794647 0.335238 0.762236 0.147826
H31   H     H_    0.663551 0.199062 0.644097 0.139585
H32   H     H_    0.539488 0.334683 0.570779 0.147490
H33   H     H_    0.250099 0.389363 0.529326 0.164431
O1    O     O_R   0.408400 0.356680 0.448290 -0.628142
O2    O     O_R   0.051700 0.460090 0.908430 -0.618221
O3    O     O_R   0.856640 0.448300 0.908430 -0.625054
O4    O     O_R   0.960090 0.551710 0.908400 -0.618281
O5    O     O_R   0.948250 0.539920 0.091630 -0.609317
O6    O     O_R   0.051690 0.643330 0.091610 -0.625109
O7    O     O_R   0.039870 0.448310 0.091660 -0.587204
O8    O     O_R   0.143310 0.551720 0.091640 -0.627007
O9    O     O_R   0.051740 0.091620 0.643380 -0.619038
O10   O     O_R   0.948300 0.091670 0.539990 -0.624837
O11   O     O_R   0.143340 0.091640 0.551750 -0.635029
O12   O     O_R   0.408370 0.460100 0.551700 -0.621826
O13   O     O_R   0.039900 0.091690 0.448360 -0.588984
O14   O     O_R   0.051700 0.908430 0.460110 -0.633828
O15   O     O_R   0.948260 0.908480 0.356720 -0.582849
O16   O     O_R   0.960100 0.908410 0.551740 -0.613071
O17   O     O_R   0.856660 0.908460 0.448350 -0.622111
O18   O     O_R   0.591630 0.448290 0.539910 -0.611402
O19   O     O_R   0.591590 0.551710 0.643320 -0.618920
O20   O     O_R   0.591630 0.539900 0.448300 -0.593298
O21   O     O_R   0.591600 0.643320 0.551710 -0.631394
O22   O     O_R   0.408410 0.448290 0.356680 -0.621060
O23   O     O_R   0.408370 0.551710 0.460090 -0.622226
O24   O     O_R   0.948260 0.356680 0.908450 -0.624516
Zn1   Zn    Zn3+2 0.500020 0.430950 0.430950 0.992975
Zn2   Zn    Zn3+2 0.499980 0.569050 0.569050 0.984764
Zn3   Zn    Zn3+2 0.930910 0.430960 0.000050 1.001978
Zn4   Zn    Zn3+2 0.069050 0.569060 0.000020 0.975271
Zn5   Zn    Zn3+2 0.069070 0.000020 0.569080 0.977265
Zn6   Zn    Zn3+2 0.930930 0.000080 0.431020 1.022383
Br1   Br    Br    0.148372 0.031798 0.320380 -0.474785
I1    I     I_    0.012324 0.263954 0.106234 -0.295499
I2    I     I_    0.747695 0.539772 0.402552 -0.324353
Br2   Br    Br    0.861253 0.848705 0.843727 -0.511205
I3    I     I_    0.871394 0.836945 0.147125 -0.245966

loop_
_geom_bond_atom_site_label_1
_geom_bond_atom_site_label_2
_ccdc_geom_bond_type
C54   H22   S    
C27   I1    S    
C19   H5    S    
C35   C36   S    
C56   Br2   S    
C50   H18   S    
C7    C8    A    
O14   Zn5   S    
C53   C54   S    
C7    H30   S    
C11   C19   S    
C26   C27   S    
C62   C63   S    
C46   O16   A    
C39   O3    A    
C45   H10   S    
C5    C6    A    
C36   C37   S    
C42   O10   A    
C38   O2    A    
C6    C12   S    
C54   H21   S    
C24   H7    S    
C15   C16   A    
C18   C19   S    
C10   H32   S    
O22   Zn1   S    
O2    Zn4   S    
O17   Zn6   S    
C47   C48   A    
C45   C56   A    
C8    C9    A    
C55   C63   S    
C63   H26   S    
O12   Zn2   S    
C56   C64   A    
C53   H20   S    
C43   O11   A    
O13   Zn6   S    
C27   H8    S    
O4    Zn4   S    
C9    C10   A    
C38   C48   S    
C38   O24   A    
C42   C51   S    
C18   H3    S    
C3    C39   S    
C59   C60   A    
C34   O23   A    
C21   C22   A    
C33   C46   S    
C64   H28   S    
C2    C6    A    
C4    C7    A    
C1    O1    A    
C22   H6    S    
C17   C18   S    
C2    C45   A    
C41   O7    A    
O6    Zn4   S    
C51   C52   A    
C23   C30   S    
C14   H33   S    
C24   C25   A    
C36   H14   S    
C25   C41   S    
C23   O21   A    
O21   Zn2   S    
C16   C17   A    
O24   Zn3   S    
C21   C34   S    
C20   C28   S    
O3    Zn3   S    
C58   C59   A    
O20   Zn1   S    
O16   Zn5   S    
C60   C61   A    
O1    Zn1   S    
C59   H24   S    
C8    H31   S    
C9    H1    S    
C29   C30   A    
C40   O5    A    
C31   C32   A    
C36   H15   S    
C62   H25   S    
C50   C51   A    
O9    Zn5   S    
C28   H11   S    
C16   C43   S    
C47   C54   S    
C12   O19   A    
C48   C49   A    
O19   Zn2   S    
C44   O14   A    
C49   C50   A    
C34   O22   A    
C55   C57   A    
O10   Zn6   S    
O15   Zn6   S    
C22   C24   A    
C37   H16   S    
C18   Br1   S    
C3    C66   A    
C1    C13   S    
C43   O13   A    
C3    C4    A    
C52   C53   S    
C31   H12   S    
C29   C35   A    
C11   C17   A    
C40   C57   S    
C41   O8    A    
O18   Zn1   S    
C4    C5    A    
C2    C66   A    
C39   O4    A    
C47   C52   A    
O7    Zn3   S    
C37   I2    S    
C46   O17   A    
C64   C65   A    
C49   H17   S    
O23   Zn2   S    
C25   C26   A    
O8    Zn4   S    
C5    C10   A    
C32   C33   A    
C32   H13   S    
C23   O20   A    
C11   C13   A    
C62   I3    S    
C57   C58   A    
C30   C31   A    
C20   C26   A    
C44   C60   S    
C15   H2    S    
C55   C61   A    
C33   C35   A    
C61   C62   S    
C58   H23   S    
C44   O15   A    
C12   O18   A    
C65   H29   S    
O5    Zn3   S    
C20   C21   A    
C65   C66   A    
C29   C37   S    
C27   C28   S    
C14   C15   A    
C19   H4    S    
C53   H19   S    
C63   H27   S    
C13   C14   A    
C28   H9    S    
C42   O9    A    
C1    O12   A    
O11   Zn5   S    
C40   O6    A    
