data_mof_unit_65466.cif
_audit_creation_date              2013-03-05T16:15:21-0500
_audit_creation_method            fapswitch 2.2
_symmetry_space_group_name_H-M    P1
_symmetry_Int_Tables_number       1
_space_group_crystal_system       triclinic
_cell_length_a                    23.587379
_cell_length_b                    14.255622
_cell_length_c                    13.358634
_cell_angle_alpha                 90.005216
_cell_angle_beta                  89.999919
_cell_angle_gamma                 90.000061
_cell_volume                      4491.87752028

loop_
_atom_site_label
_atom_site_type_symbol
_atom_site_description
_atom_site_fract_x
_atom_site_fract_y
_atom_site_fract_z
_atom_type_partial_charge
O1    O     O_R   0.500000 0.373710 0.576470 -0.605420
O2    O     O_R   0.500000 0.626290 0.423530 -0.605420
O3    O     O_R   0.500000 0.626290 0.576470 -0.603162
O4    O     O_R   0.500000 0.373710 0.423530 -0.603162
C1    C     C_R   0.500000 0.326531 0.499996 0.915543
C2    C     C_R   0.500000 0.673469 0.500004 0.915543
O5    O     O_R   0.416150 0.500000 0.576470 -0.566804
O6    O     O_R   0.583850 0.500000 0.423530 -0.566785
O7    O     O_R   0.583850 0.500000 0.576470 -0.566786
O8    O     O_R   0.416150 0.500000 0.423530 -0.566803
C3    C     C_R   0.387658 0.500000 0.500000 1.085131
C4    C     C_R   0.612343 0.500000 0.500000 1.085093
Zn1   Zn    Zn3+2 0.500000 0.500000 0.602090 1.066523
Zn2   Zn    Zn3+2 0.500000 0.500000 0.397910 1.066525
C5    C     C_R   0.880139 0.582940 0.488768 0.642611
C6    C     C_R   0.119867 0.417057 0.511272 0.642592
C7    C     C_R   0.880140 0.417045 0.511208 0.642613
C8    C     C_R   0.119866 0.582937 0.488708 0.642595
N1    N     N_R   0.852605 0.499993 0.499992 -0.284522
N2    N     N_R   0.147400 0.499997 0.499994 -0.284484
C9    C     C_R   0.939939 0.414139 0.512153 -0.085742
C10   C     C_R   0.060067 0.585846 0.487788 -0.085715
C11   C     C_R   0.939938 0.585846 0.487807 -0.085740
C12   C     C_R   0.060068 0.414143 0.512175 -0.085714
C13   C     C_R   0.969999 0.499993 0.499980 -0.009005
C14   C     C_R   0.030006 0.499994 0.499981 -0.008978
C15   C     C_R   0.970246 0.328853 0.524785 -0.064737
C16   C     C_R   0.029759 0.671131 0.475152 -0.064743
C17   C     C_R   0.970244 0.671130 0.475157 -0.064738
C18   C     C_R   0.029761 0.328855 0.524792 -0.064742
O9    O     O_2   0.848947 0.661729 0.478892 -0.521531
O10   O     O_2   0.151060 0.338284 0.521279 -0.521602
O11   O     O_2   0.848949 0.338257 0.521098 -0.521527
O12   O     O_2   0.151058 0.661712 0.478715 -0.521602
C19   C     C_R   0.236974 0.503229 0.590813 0.578780
C20   C     C_R   0.763026 0.497355 0.409158 0.578810
C21   C     C_R   0.236976 0.496769 0.409181 0.578761
C22   C     C_R   0.763027 0.502632 0.590833 0.578827
C23   C     C_R   0.295841 0.503215 0.591169 0.482924
C24   C     C_R   0.704159 0.497372 0.408806 0.482919
C25   C     C_R   0.295842 0.496784 0.408828 0.482931
C26   C     C_R   0.704161 0.502620 0.591189 0.482913
C27   C     C_R   0.325755 0.500000 0.499999 -0.562588
C28   C     C_R   0.674246 0.499998 0.499998 -0.562613
C29   C     C_R   0.207737 0.499999 0.499996 -0.147921
C30   C     C_R   0.792266 0.499993 0.499995 -0.148063
C31   C     C_1   0.500000 0.225894 0.499984 -0.167200
C32   C     C_1   0.500000 0.774106 0.500016 -0.167201
C33   C     C_1   0.500000 0.141328 0.499979 0.028751
C34   C     C_1   0.500000 0.858672 0.500020 0.028751
C35   C     C_1   0.500000 0.042280 0.499992 0.048263
C36   C     C_1   0.500000 0.957720 0.500008 0.048263
N3    N     N_1   0.500000 0.500000 0.261870 -0.041066
N4    N     N_1   0.500000 0.500000 0.738130 -0.041068
C37   C     C_1   0.500000 0.500000 0.169399 0.183109
C38   C     C_1   0.500000 0.500000 0.830601 0.183106
C39   C     C_1   0.500000 0.500000 0.049526 0.009716
C40   C     C_1   0.500000 0.500000 0.950473 0.009717
C41   C     C_1   0.941397 0.239442 0.538426 0.314278
N5    N     N_1   0.918816 0.168052 0.549336 -0.108910
C42   C     C_1   0.058608 0.760543 0.461514 0.314256
N6    N     N_1   0.081188 0.831934 0.450607 -0.108914
C43   C     C_1   0.941395 0.760537 0.461488 0.314281
N7    N     N_1   0.918813 0.831924 0.450555 -0.108909
C44   C     C_1   0.058610 0.239441 0.538406 0.314255
N8    N     N_1   0.081191 0.168047 0.549293 -0.108914
F1    F     F_    0.208110 0.506542 0.678642 -0.561233
F2    F     F_    0.791886 0.494613 0.321304 -0.561204
F3    F     F_    0.208114 0.493455 0.321351 -0.561242
F4    F     F_    0.791890 0.505372 0.678685 -0.561195
F5    F     F_    0.323327 0.506567 0.680433 -0.567674
F6    F     F_    0.676673 0.494634 0.319519 -0.567662
F7    F     F_    0.323330 0.493432 0.319565 -0.567675
F8    F     F_    0.676676 0.505361 0.680478 -0.567661

loop_
_geom_bond_atom_site_label_1
_geom_bond_atom_site_label_2
_geom_bond_distance
_ccdc_geom_bond_type
O5    Zn1   2.007198 S    
C34   C36   1.411989 S    
C22   F4    1.357311 S    
C20   C30   1.396266 A    
C21   C29   1.396254 A    
C21   F3    1.357312 S    
C22   C30   1.396268 A    
C6    O10   1.349174 S    
C25   C27   1.408276 A    
C6    C12   1.411165 A    
C24   C28   1.408274 A    
C19   C23   1.388512 A    
N2    C29   1.423196 S    
O3    Zn1   1.832614 S    
C19   F1    1.357313 S    
O6    C4    1.222782 A    
O3    C2    1.223072 A    
C16   C42   1.456334 S    
Zn2   N3    1.817309 S    
C20   F2    1.357309 S    
C9    C15   1.420465 A    
N1    C30   1.423227 S    
C41   N5    1.157888 T    
C31   C33   1.205537 T    
C37   C39   1.601330 S    
C10   C16   1.420464 A    
Zn1   N4    1.817309 S    
C13   C14   1.415408 A    
C15   C18   1.403810 A    
C5    N1    1.357403 A    
C8    O12   1.349174 S    
C39   C40   1.323211 T    
O2    C2    1.223049 A    
C26   C28   1.408274 A    
C17   C43   1.456333 S    
O1    C1    1.223049 A    
C11   C17   1.420466 A    
C32   C34   1.205537 T    
C6    N2    1.357388 A    
C1    C31   1.434646 S    
C12   C14   1.423790 A    
C22   C26   1.388519 A    
C24   F6    1.358132 S    
C12   C18   1.420463 A    
N3    C37   1.235289 T    
O4    Zn2   1.832616 S    
C42   N6    1.157887 T    
O2    Zn2   1.832553 S    
O7    C4    1.222786 A    
N4    C38   1.235289 T    
C3    C27   1.460125 S    
C26   F8    1.358131 S    
C18   C44   1.456333 S    
O1    Zn1   1.832554 S    
O8    C3    1.222779 A    
C5    C11   1.411161 A    
C25   F7    1.358137 S    
C35   C36   1.205463 T    
C19   C29   1.396256 A    
C9    C13   1.423786 A    
C20   C24   1.388517 A    
C11   C13   1.423784 A    
C23   C27   1.408278 A    
C8    N2    1.357389 A    
C4    C28   1.460144 S    
C44   N8    1.157887 T    
C10   C14   1.423791 A    
O7    Zn1   2.007195 S    
C16   C17   1.403810 A    
O5    C3    1.222782 A    
O6    Zn2   2.007196 S    
C15   C41   1.456332 S    
C7    O11   1.349175 S    
C7    N1    1.357404 A    
C23   F5    1.358137 S    
C8    C10   1.411163 A    
C38   C40   1.601330 S    
C21   C25   1.388510 A    
C5    O9    1.349174 S    
C7    C9    1.411162 A    
C43   N7    1.157888 T    
O8    Zn2   2.007198 S    
O4    C1    1.223072 A    
C33   C35   1.411989 S    
C2    C32   1.434646 S    
