data_mof_unit_18747.cif
_audit_creation_date              2012-12-10T17:36:19-0500
_audit_creation_method            fapswitch 2.2
_symmetry_space_group_name_H-M    P1
_symmetry_Int_Tables_number       1
_space_group_crystal_system       triclinic
_cell_length_a                    12.324472
_cell_length_b                    13.165815
_cell_length_c                    15.854876
_cell_angle_alpha                 78.095287
_cell_angle_beta                  100.887484
_cell_angle_gamma                 116.513699
_cell_volume                      2238.74987243

loop_
_atom_site_label
_atom_site_type_symbol
_atom_type_description
_atom_site_fract_x
_atom_site_fract_y
_atom_site_fract_z
_atom_type_partial_charge
C1    C     C_R   0.854881 0.286555 0.507473 0.768815
C2    C     C_3   0.093469 0.453654 0.069911 -0.386961
C3    C     C_3   0.002023 0.498687 0.083169 0.265910
C4    C     C_3   0.039241 0.621840 0.033841 -0.385674
C5    C     C_3   0.037604 0.622008 0.935942 -0.347969
C6    C     C_1   0.002143 0.498811 0.175444 -0.093267
C7    C     C_1   0.998399 0.499582 0.824651 -0.101243
C8    C     C_1   0.998036 0.499836 0.748958 -0.195950
C9    C     C_R   0.276037 0.021081 0.385166 -0.193810
C10   C     C_R   0.228062 0.834498 0.469888 -0.047036
C11   C     C_R   0.814978 0.085387 0.564312 -0.192487
C12   C     C_R   0.999313 0.499819 0.659495 0.824774
C13   C     C_R   0.736032 0.970659 0.581649 -0.148416
C14   C     C_R   0.612847 0.932903 0.551430 -0.183286
C15   C     C_R   0.566360 0.009381 0.499761 0.078504
C16   C     C_R   0.649986 0.123563 0.473848 0.082560
C17   C     C_R   0.439880 0.976018 0.472097 0.072229
C18   C     C_R   0.400521 0.053003 0.412964 0.167884
C19   C     C_R   0.485919 0.159834 0.380456 -0.243263
C20   C     C_R   0.608851 0.193951 0.409257 -0.201036
C21   C     C_R   0.350893 0.868505 0.501878 -0.253437
C22   C     C_R   0.190123 0.911897 0.413045 -0.198390
C23   C     C_R   0.145068 0.713386 0.487508 0.794901
C24   C     C_R   0.772891 0.163489 0.512508 -0.101078
C25   C     C_R   0.346772 0.330207 0.638626 -0.305162
C26   C     C_R   0.760158 0.645460 0.383799 0.077900
C27   C     C_R   0.663931 0.677182 0.358405 -0.258312
C28   C     C_R   0.560175 0.622274 0.402118 -0.191567
C29   C     C_R   0.551595 0.534579 0.472375 -0.007313
C30   C     C_R   0.652944 0.505380 0.496300 0.287112
C31   C     C_R   0.447100 0.475296 0.519966 -0.038407
C32   C     C_R   0.446797 0.389132 0.590469 0.177376
C33   C     C_R   0.546401 0.362352 0.612833 -0.282727
C34   C     C_R   0.000544 0.499968 0.340454 0.819412
C35   C     C_R   0.647082 0.419212 0.566932 -0.177324
C36   C     C_R   0.342081 0.497417 0.501112 0.021059
C37   C     C_R   0.246813 0.356309 0.616881 0.069908
C38   C     C_3   0.093151 0.452854 0.971808 0.354065
C39   C     C_3   0.872301 0.420971 0.946202 -0.475944
C40   C     C_3   0.873039 0.420729 0.044003 -0.393762
C41   C     C_1   0.001578 0.499289 0.250938 -0.183921
C42   C     C_3   0.000913 0.499053 0.917311 0.260922
Cu1   Cu    Cu3+1 0.098280 0.475420 0.519630 0.930243
Cu2   Cu    Cu3+1 0.901720 0.524580 0.480370 0.921796
H1    H     H_    0.068755 0.365276 0.105264 0.118955
H2    H     H_    0.186640 0.508097 0.098480 0.190022
H3    H     H_    0.975373 0.656582 0.042780 0.163875
H4    H     H_    0.095169 0.886539 0.387454 0.146270
H5    H     H_    0.457628 0.217431 0.332347 0.144277
H6    H     H_    0.245590 0.079453 0.339895 0.131459
H7    H     H_    0.374509 0.808289 0.549471 0.147596
H8    H     H_    0.908799 0.113463 0.593397 0.150396
H9    H     H_    0.557293 0.842795 0.568113 0.129243
H10   H     H_    0.769829 0.911020 0.621126 0.140985
H11   H     H_    0.060579 0.361331 0.962771 0.042639
H12   H     H_    0.671007 0.275099 0.378167 0.175785
H13   H     H_    0.169236 0.311323 0.653805 0.117977
H14   H     H_    0.546814 0.296654 0.666762 0.150880
H15   H     H_    0.346021 0.264529 0.692802 0.137347
H16   H     H_    0.334128 0.561129 0.448689 0.124207
H17   H     H_    0.840406 0.688558 0.349546 0.123128
H18   H     H_    0.488582 0.650448 0.379752 0.135769
H19   H     H_    0.669787 0.744556 0.304679 0.142230
H20   H     H_    0.718655 0.392779 0.589748 0.206235
H21   H     H_    0.804437 0.451725 0.908046 0.189762
H22   H     H_    0.843054 0.331854 0.933539 0.162103
H23   H     H_    0.844410 0.331527 0.078354 0.167153
H24   H     H_    0.805552 0.451348 0.052730 0.177941
H25   H     H_    0.129180 0.680980 0.915119 0.194877
H26   H     H_    0.971742 0.655462 0.898070 0.155900
H27   H     H_    0.132248 0.679307 0.060461 0.170512
N1    N     N_R   0.246300 0.438200 0.549400 -0.178864
N2    N     N_R   0.754300 0.561180 0.451130 -0.206199
O1    O     O_R   0.972520 0.318130 0.524690 -0.579630
O2    O     O_R   0.806530 0.359650 0.491530 -0.604110
O3    O     O_R   0.083030 0.479240 0.637150 -0.582313
O4    O     O_R   0.917040 0.520750 0.603990 -0.589519
O5    O     O_R   0.193470 0.640350 0.508470 -0.587087
O6    O     O_R   0.027480 0.681870 0.475310 -0.586478
O7    O     O_R   0.082960 0.479250 0.396010 -0.575041
O8    O     O_R   0.916970 0.520760 0.362850 -0.588205
O9    O     O_3   0.213004 0.523283 0.948071 -0.615679
C43   C     C_3   0.250296 0.470422 0.897089 0.064480
H28   H     H_    0.317105 0.539623 0.855306 0.172371
H29   H     H_    0.174191 0.417221 0.852302 0.131187
C44   C     C_3   0.312931 0.399102 0.955007 -0.363800
H30   H     H_    0.390963 0.454604 0.997099 0.227547
H31   H     H_    0.247519 0.329132 0.997302 0.204465
C45   C     C_3   0.359608 0.346702 0.900804 -0.931934
H32   H     H_    0.282709 0.289582 0.859028 0.250065
H33   H     H_    0.404310 0.295406 0.944379 0.254970
H34   H     H_    0.427342 0.415177 0.859254 0.258623

loop_
_geom_bond_atom_site_label_1
_geom_bond_atom_site_label_2
_ccdc_geom_bond_type
C22   H4    S    
C5    C42   S    
C33   H14   S    
C19   C20   A    
C20   H12   S    
C3    C6    S    
C7    C8    T    
C10   C22   A    
Cu1   O5    S    
C26   C27   A    
Cu1   N1    S    
C30   C35   A    
C1    O1    A    
C28   C29   A    
C26   H17   S    
C38   C42   S    
C44   H31   S    
C9    C22   A    
C15   C16   A    
C11   C24   A    
C26   N2    A    
C18   C19   A    
C7    C42   S    
C2    C38   S    
C5    H25   S    
C11   H8    S    
C34   O7    A    
C38   H11   S    
C43   H28   S    
C6    C41   T    
C35   H20   S    
C34   O8    A    
C45   H33   S    
C16   C20   A    
C25   C37   A    
Cu1   O1    S    
C16   C24   A    
C13   C14   A    
C38   O9    S    
C39   H21   S    
C34   C41   S    
C39   C42   S    
C10   C21   A    
C1    O2    A    
Cu2   O8    S    
C39   C40   S    
C30   N2    A    
C44   H30   S    
Cu1   O7    S    
C44   C45   S    
C2    H2    S    
Cu2   O2    S    
Cu1   Cu2   S    
C29   C30   A    
C19   H5    S    
C31   C32   A    
C8    C12   S    
C12   O4    A    
C43   C44   S    
C17   C18   A    
C45   H34   S    
C27   H19   S    
C43   H29   S    
C3    C40   S    
C12   O3    A    
C39   H22   S    
C3    C4    S    
C21   H7    S    
C40   H23   S    
C13   H10   S    
Cu1   O3    S    
C15   C17   A    
Cu2   O4    S    
C14   C15   A    
Cu2   O6    S    
C9    H6    S    
C4    C5    S    
C36   H16   S    
C5    H26   S    
C10   C23   S    
C32   C33   A    
C2    C3    S    
C29   C31   A    
C11   C13   A    
C25   C32   A    
C33   C35   A    
C23   O5    A    
Cu2   N2    S    
C17   C21   A    
C2    H1    S    
C9    C18   A    
C14   H9    S    
C1    C24   S    
O9    C43   S    
C40   H24   S    
C37   N1    A    
C27   C28   A    
C31   C36   A    
C25   H15   S    
C23   O6    A    
C45   H32   S    
C4    H27   S    
C37   H13   S    
C36   N1    A    
C4    H3    S    
C28   H18   S    
