data_mof_unit_64184.cif
_audit_creation_date              2012-12-10T18:30:41-0500
_audit_creation_method            fapswitch 2.2
_symmetry_space_group_name_H-M    P1
_symmetry_Int_Tables_number       1
_space_group_crystal_system       triclinic
_cell_length_a                    18.562439
_cell_length_b                    18.708325
_cell_length_c                    42.590534
_cell_angle_alpha                 90.064399
_cell_angle_beta                  89.983316
_cell_angle_gamma                 89.984754
_cell_volume                      14790.4954597

loop_
_atom_site_label
_atom_site_type_symbol
_atom_type_description
_atom_site_fract_x
_atom_site_fract_y
_atom_site_fract_z
_atom_type_partial_charge
C1    C     C_R   0.000044 0.499976 0.666041 0.804251
C2    C     C_R   0.499969 0.000112 0.334028 0.817816
C3    C     C_R   0.999823 0.499999 0.333953 0.806994
C4    C     C_R   0.499995 0.000052 0.665979 0.789232
C5    C     C_R   0.499309 0.000040 0.166055 0.796733
C6    C     C_R   0.999982 0.499971 0.834026 0.811241
C7    C     C_R   0.499694 0.999990 0.833968 0.803375
C8    C     C_R   0.000002 0.499913 0.165981 0.802197
C9    C     C_R   0.999905 0.499873 0.868417 -0.104439
C10   C     C_R   0.496565 0.000438 0.131676 -0.092022
C11   C     C_R   0.999952 0.499614 0.131601 -0.103879
C12   C     C_R   0.498096 0.999835 0.868396 -0.095558
C13   C     C_R   0.499838 0.000770 0.368424 -0.106456
C14   C     C_R   0.000208 0.499964 0.631624 -0.091718
C15   C     C_R   0.499922 0.000362 0.631596 -0.103001
C16   C     C_R   0.999277 0.499858 0.368358 -0.095594
C17   C     C_R   0.499593 0.001453 0.531656 0.375967
C18   C     C_R   0.999364 0.499630 0.468281 0.377772
C19   C     C_R   0.499496 0.001934 0.468359 0.376640
C20   C     C_R   0.999994 0.499837 0.531589 0.376517
C21   C     C_R   0.999624 0.499217 0.031658 0.375337
C22   C     C_R   0.494032 0.999864 0.968225 0.382715
C23   C     C_R   0.999640 0.499488 0.968357 0.377240
C24   C     C_R   0.492823 0.000950 0.031542 0.377033
C25   C     C_R   0.142471 0.640281 0.749402 0.948800
C26   C     C_R   0.641010 0.857713 0.250299 0.955716
C27   C     C_R   0.856520 0.361005 0.748674 0.949985
C28   C     C_R   0.359603 0.142598 0.250569 0.988958
C29   C     C_R   0.857359 0.639633 0.250795 0.886424
C30   C     C_R   0.359911 0.857424 0.749369 0.971046
C31   C     C_R   0.142154 0.359462 0.250261 0.872130
C32   C     C_R   0.639650 0.143041 0.749113 0.955967
C33   C     C_R   0.641790 0.140608 0.249543 0.934908
C34   C     C_R   0.140006 0.357434 0.750731 0.977573
C35   C     C_R   0.355448 0.861967 0.248063 0.915932
C36   C     C_R   0.860035 0.642661 0.750815 0.984645
C37   C     C_R   0.357166 0.140109 0.750494 0.887581
C38   C     C_R   0.859422 0.357575 0.249475 0.985100
C39   C     C_R   0.642022 0.859095 0.750114 0.865786
C40   C     C_R   0.140195 0.642324 0.249593 0.962209
C41   C     C_3   0.157577 0.221078 0.743434 0.769820
C42   C     C_3   0.217477 0.839578 0.260251 0.734351
C43   C     C_3   0.841659 0.780758 0.746901 0.756772
C44   C     C_3   0.779644 0.159963 0.242225 0.720423
C45   C     C_3   0.840379 0.219223 0.250197 0.770127
C46   C     C_3   0.781276 0.841369 0.754564 0.734863
C47   C     C_3   0.157501 0.776643 0.261729 0.795984
C48   C     C_3   0.217601 0.158912 0.748904 0.734911
C49   C     C_3   0.668576 0.728428 0.231307 0.827116
C50   C     C_3   0.717392 0.341393 0.754274 0.702864
C51   C     C_3   0.340926 0.281251 0.246360 0.767819
C52   C     C_3   0.282060 0.659030 0.748927 0.709816
C53   C     C_3   0.342343 0.720004 0.754246 0.787935
C54   C     C_3   0.281290 0.341601 0.254187 0.742113
C55   C     C_3   0.658350 0.279006 0.759482 0.781480
C56   C     C_3   0.723651 0.663544 0.237382 0.757465
C57   C     C_3   0.251909 0.311522 0.724476 0.186233
C58   C     C_3   0.318409 0.740205 0.265470 0.172695
C59   C     C_3   0.751563 0.691953 0.722983 0.198100
C60   C     C_3   0.698512 0.242237 0.278928 0.149739
C61   C     C_3   0.753354 0.305280 0.278410 0.158041
C62   C     C_3   0.701413 0.759039 0.719564 0.182412
C63   C     C_3   0.258636 0.683733 0.270466 0.127208
C64   C     C_3   0.304573 0.246141 0.721272 0.166507
C65   C     C_3   0.769445 0.822899 0.234530 0.188018
C66   C     C_3   0.813864 0.245316 0.771200 0.139108
C67   C     C_3   0.250558 0.192912 0.222845 0.195453
C68   C     C_3   0.192420 0.750289 0.776354 0.142372
C69   C     C_3   0.250991 0.809906 0.776989 0.156067
C70   C     C_3   0.200814 0.259965 0.219436 0.183873
C71   C     C_3   0.756512 0.184899 0.771672 0.139561
C72   C     C_3   0.821735 0.758080 0.229386 0.181418
C73   C     C_3   0.233752 0.292360 0.785112 0.405521
C74   C     C_3   0.275895 0.781442 0.210558 0.454795
C75   C     C_3   0.759757 0.700880 0.783760 0.423482
C76   C     C_3   0.688255 0.250734 0.218886 0.506973
C77   C     C_3   0.755734 0.303057 0.216987 0.419458
C78   C     C_3   0.691762 0.751589 0.780278 0.491801
C79   C     C_3   0.222126 0.714239 0.212998 0.433428
C80   C     C_3   0.301889 0.241432 0.782214 0.491432
C81   C     C_3   0.714800 0.772674 0.286301 0.397984
C82   C     C_3   0.791945 0.269139 0.712871 0.492521
C83   C     C_3   0.259550 0.201524 0.283483 0.421567
C84   C     C_3   0.197348 0.741379 0.716227 0.493099
C85   C     C_3   0.263227 0.796411 0.715252 0.413013
C86   C     C_3   0.191741 0.252379 0.280193 0.488987
C87   C     C_3   0.725919 0.213482 0.712829 0.404427
C88   C     C_3   0.786651 0.726102 0.286000 0.482946
C89   C     C_3   0.195410 0.296795 0.751229 -0.292344
C90   C     C_3   0.292652 0.808068 0.246040 -0.363214
C91   C     C_3   0.804206 0.702995 0.751427 -0.297748
C92   C     C_3   0.701606 0.196130 0.247496 -0.352829
C93   C     C_3   0.803018 0.297261 0.248796 -0.281124
C94   C     C_3   0.703453 0.804073 0.751317 -0.290893
C95   C     C_3   0.194109 0.703944 0.248659 -0.279769
C96   C     C_3   0.295974 0.195643 0.750887 -0.281004
C97   C     C_3   0.697282 0.796987 0.250738 -0.318926
C98   C     C_3   0.795428 0.306129 0.746999 -0.333356
C99   C     C_3   0.303623 0.203388 0.250990 -0.290131
C100  C     C_3   0.203042 0.695839 0.747984 -0.336634
C101  C     C_3   0.304356 0.796855 0.748872 -0.288040
C102  C     C_3   0.203378 0.304571 0.251307 -0.301329
C103  C     C_3   0.694398 0.204393 0.748147 -0.281049
C104  C     C_3   0.797701 0.695334 0.251300 -0.307267
C105  C     C_R   0.064896 0.505607 0.884972 -0.241564
C106  C     C_R   0.479143 0.937988 0.115203 -0.242207
C107  C     C_R   0.934815 0.494036 0.884910 -0.240918
C108  C     C_R   0.510317 0.063673 0.115139 -0.247306
C109  C     C_R   0.934817 0.494322 0.115128 -0.247863
C110  C     C_R   0.502014 0.935126 0.884934 -0.250987
C111  C     C_R   0.064995 0.504595 0.115038 -0.256629
C112  C     C_R   0.491897 0.064325 0.884971 -0.241101
C113  C     C_R   0.564895 0.996389 0.385004 -0.225869
C114  C     C_R   0.001958 0.435220 0.615058 -0.239267
C115  C     C_R   0.434651 0.006057 0.384897 -0.241645
C116  C     C_R   0.998651 0.564715 0.615108 -0.243939
C117  C     C_R   0.434794 0.005947 0.615134 -0.247859
C118  C     C_R   0.006365 0.435377 0.384828 -0.250903
C119  C     C_R   0.564940 0.995181 0.615017 -0.244989
C120  C     C_R   0.991515 0.564115 0.384965 -0.239170
C121  C     C_R   0.065180 0.505670 0.917640 0.259478
C122  C     C_R   0.477669 0.937687 0.082530 0.258548
C123  C     C_R   0.934345 0.493822 0.917577 0.256656
C124  C     C_R   0.508353 0.064463 0.082477 0.262030
C125  C     C_R   0.934328 0.494003 0.082468 0.258655
C126  C     C_R   0.500138 0.934727 0.917612 0.260416
C127  C     C_R   0.065281 0.504502 0.082372 0.261363
C128  C     C_R   0.490531 0.064630 0.917627 0.257371
C129  C     C_R   0.565168 0.997103 0.417667 0.259332
C130  C     C_R   0.002160 0.434786 0.582393 0.257471
C131  C     C_R   0.434149 0.006789 0.417567 0.257548
C132  C     C_R   0.998582 0.565096 0.582436 0.258149
C133  C     C_R   0.434303 0.006454 0.582471 0.259094
C134  C     C_R   0.006272 0.434900 0.417499 0.261742
C135  C     C_R   0.565219 0.995454 0.582350 0.259053
C136  C     C_R   0.991472 0.564400 0.417630 0.257715
C137  C     C_R   0.999718 0.499676 0.934146 -0.071066
C138  C     C_R   0.492614 0.001095 0.065869 -0.072165
C139  C     C_R   0.999748 0.499191 0.065876 -0.071506
C140  C     C_R   0.494688 0.999681 0.934087 -0.065223
C141  C     C_R   0.499596 0.002137 0.434152 -0.074014
C142  C     C_R   0.000314 0.499920 0.565842 -0.070881
C143  C     C_R   0.499707 0.001170 0.565870 -0.074861
C144  C     C_R   0.998990 0.499626 0.434086 -0.069381
H1    H     H_    0.283398 0.359197 0.731750 0.099530
H2    H     H_    0.352861 0.712508 0.248330 0.163030
H3    H     H_    0.718164 0.644488 0.728515 0.105568
H4    H     H_    0.648393 0.272437 0.277180 0.169945
H5    H     H_    0.724334 0.356508 0.274649 0.106551
H6    H     H_    0.646918 0.736689 0.715464 0.084178
H7    H     H_    0.279721 0.630530 0.262769 0.095991
H8    H     H_    0.359109 0.269964 0.720779 0.085684
H9    H     H_    0.795483 0.861249 0.250753 0.099378
H10   H     H_    0.858637 0.217117 0.760112 0.168347
H11   H     H_    0.216310 0.147145 0.229070 0.106089
H12   H     H_    0.145578 0.782024 0.769496 0.169201
H13   H     H_    0.225843 0.862984 0.772677 0.101969
H14   H     H_    0.146176 0.237935 0.215369 0.085443
H15   H     H_    0.781062 0.134257 0.762583 0.095815
H16   H     H_    0.876802 0.776644 0.235877 0.073623
H17   H     H_    0.115634 0.510695 0.872601 0.197146
H18   H     H_    0.466542 0.889164 0.127671 0.199547
H19   H     H_    0.884142 0.488996 0.872489 0.192222
H20   H     H_    0.522656 0.112747 0.127546 0.186052
H21   H     H_    0.884096 0.489848 0.127562 0.188672
H22   H     H_    0.506835 0.884721 0.872573 0.186380
H23   H     H_    0.115772 0.509225 0.127406 0.194692
H24   H     H_    0.487521 0.114623 0.872650 0.184567
H25   H     H_    0.615779 0.992578 0.372656 0.208863
H26   H     H_    0.003607 0.384698 0.627408 0.187390
H27   H     H_    0.383853 0.009411 0.372464 0.189382
H28   H     H_    0.996927 0.615278 0.627506 0.186801
H29   H     H_    0.384026 0.009789 0.627575 0.193854
H30   H     H_    0.012605 0.385202 0.372397 0.186427
H31   H     H_    0.615772 0.991029 0.627371 0.197645
H32   H     H_    0.984815 0.614244 0.372650 0.185468
N1    N     N_R   0.961763 0.549442 0.984474 -0.105142
N2    N     N_R   0.550458 0.026623 0.015568 -0.104404
N3    N     N_R   0.037486 0.449379 0.984338 -0.105072
N4    N     N_R   0.435777 0.974715 0.015318 -0.104395
N5    N     N_R   0.037474 0.449243 0.015538 -0.105686
N6    N     N_R   0.550983 0.026289 0.984368 -0.107792
N7    N     N_R   0.961765 0.549314 0.015674 -0.104431
N8    N     N_R   0.436414 0.974039 0.984107 -0.107489
N9    N     N_R   0.470661 0.057449 0.484522 -0.105579
N10   N     N_R   0.050965 0.536362 0.515418 -0.105019
N11   N     N_R   0.528342 0.946174 0.484290 -0.104820
N12   N     N_R   0.948708 0.463203 0.515627 -0.105013
N13   N     N_R   0.528380 0.945930 0.515487 -0.105984
N14   N     N_R   0.050619 0.536317 0.484216 -0.106191
N15   N     N_R   0.470718 0.057212 0.515725 -0.105040
N16   N     N_R   0.948425 0.463047 0.484425 -0.104881
O1    O     O_3   1.000000 0.500000 0.750000 -0.512046
O2    O     O_3   0.500000 0.000000 0.250000 -0.508125
O3    O     O_3   1.000000 0.500000 0.250000 -0.500393
O4    O     O_3   0.500000 0.000000 0.750000 -0.504714
O5    O     O_R   0.000020 0.438710 0.680680 -0.656574
O6    O     O_R   0.438710 0.999980 0.319320 -0.664488
O7    O     O_R   0.999980 0.561290 0.680680 -0.653788
O8    O     O_R   0.561290 0.000020 0.319320 -0.626855
O9    O     O_R   0.999980 0.438710 0.319320 -0.660978
O10   O     O_R   0.561290 0.999980 0.680680 -0.661417
O11   O     O_R   0.000020 0.561290 0.319320 -0.656379
O12   O     O_R   0.438710 0.000020 0.680680 -0.666031
O13   O     O_R   0.500020 0.938710 0.180680 -0.652461
O14   O     O_R   0.938710 0.499980 0.819320 -0.652343
O15   O     O_R   0.499980 0.061290 0.180680 -0.658497
O16   O     O_R   0.061290 0.500020 0.819320 -0.647026
O17   O     O_R   0.499980 0.938710 0.819320 -0.660484
O18   O     O_R   0.061290 0.499980 0.180680 -0.669434
O19   O     O_R   0.500020 0.061290 0.819320 -0.659843
O20   O     O_R   0.938710 0.500020 0.180680 -0.658968
O21   O     O_R   0.086240 0.647480 0.731820 -0.614164
O22   O     O_R   0.647480 0.913760 0.268180 -0.637578
O23   O     O_R   0.913760 0.352520 0.731820 -0.615199
O24   O     O_R   0.352520 0.086240 0.268180 -0.662118
O25   O     O_R   0.913760 0.647480 0.268180 -0.627197
O26   O     O_R   0.352520 0.913760 0.731820 -0.650177
O27   O     O_R   0.086240 0.352520 0.268180 -0.617910
O28   O     O_R   0.647480 0.086240 0.731820 -0.639278
O29   O     O_R   0.586240 0.147480 0.231820 -0.627699
O30   O     O_R   0.147480 0.413760 0.768180 -0.650178
O31   O     O_R   0.413760 0.852520 0.231820 -0.607396
O32   O     O_R   0.852520 0.586240 0.768180 -0.652296
O33   O     O_R   0.413760 0.147480 0.768180 -0.608182
O34   O     O_R   0.852520 0.413760 0.231820 -0.665269
O35   O     O_R   0.586240 0.852520 0.768180 -0.618115
O36   O     O_R   0.147480 0.586240 0.231820 -0.642522
O37   O     O_R   0.852520 0.413810 0.768170 -0.631796
O38   O     O_R   0.413810 0.147480 0.231830 -0.619160
O39   O     O_R   0.147480 0.586190 0.768170 -0.631608
O40   O     O_R   0.586190 0.852520 0.231830 -0.629721
O41   O     O_R   0.147480 0.413810 0.231830 -0.618943
O42   O     O_R   0.586190 0.147480 0.768170 -0.628538
O43   O     O_R   0.852520 0.586190 0.231830 -0.641999
O44   O     O_R   0.413810 0.852520 0.768170 -0.619865
O45   O     O_R   0.352520 0.913810 0.268170 -0.659157
O46   O     O_R   0.913810 0.647480 0.731830 -0.613407
O47   O     O_R   0.647480 0.086190 0.268170 -0.607898
O48   O     O_R   0.086190 0.352520 0.731830 -0.615546
O49   O     O_R   0.647480 0.913810 0.731830 -0.616969
O50   O     O_R   0.086190 0.647480 0.268170 -0.629695
O51   O     O_R   0.352520 0.086190 0.731830 -0.633458
O52   O     O_R   0.913810 0.352520 0.268170 -0.623940
Zn1   Zn    Zn3+2 0.087550 0.500010 0.775970 0.971184
Zn2   Zn    Zn3+2 0.500010 0.912450 0.224030 0.968708
Zn3   Zn    Zn3+2 0.912450 0.499990 0.775970 0.965415
Zn4   Zn    Zn3+2 0.499990 0.087550 0.224030 0.959206
Zn5   Zn    Zn3+2 0.912450 0.500010 0.224030 0.930776
Zn6   Zn    Zn3+2 0.499990 0.912450 0.775970 0.947005
Zn7   Zn    Zn3+2 0.087550 0.499990 0.224030 0.950651
Zn8   Zn    Zn3+2 0.500010 0.087550 0.775970 0.950058
Zn9   Zn    Zn3+2 0.587550 0.000010 0.275970 0.991932
Zn10  Zn    Zn3+2 0.000010 0.412450 0.724030 0.967172
Zn11  Zn    Zn3+2 0.412450 0.999990 0.275970 0.941214
Zn12  Zn    Zn3+2 0.999990 0.587550 0.724030 0.970333
Zn13  Zn    Zn3+2 0.412450 0.000010 0.724030 0.942912
Zn14  Zn    Zn3+2 0.999990 0.412450 0.275970 0.947158
Zn15  Zn    Zn3+2 0.587550 0.999990 0.724030 0.956245
Zn16  Zn    Zn3+2 0.000010 0.587550 0.275970 0.951996
O53   O     O_3   0.140658 0.219497 0.710412 -0.576090
C145  C     C_3   0.067374 0.222577 0.700799 0.221478
H33   H     H_    0.030645 0.248716 0.717598 0.240025
H34   H     H_    0.045501 0.168514 0.696557 0.127398
C146  C     C_3   0.063456 0.261824 0.669494 -0.684020
H35   H     H_    0.079936 0.318337 0.672437 0.282411
H36   H     H_    0.099826 0.235945 0.652166 0.244261
H37   H     H_    0.007733 0.260624 0.660114 0.222348
O54   O     O_3   0.234002 0.865007 0.291095 -0.660282
C147  C     C_3   0.185224 0.911849 0.306294 0.103018
H38   H     H_    0.141746 0.882291 0.317775 0.174686
H39   H     H_    0.160986 0.952769 0.290855 0.184789
C148  C     C_3   0.225556 0.948241 0.333022 -0.753967
H40   H     H_    0.274851 0.974833 0.324016 0.289470
H41   H     H_    0.190325 0.988342 0.344617 0.247477
H42   H     H_    0.242113 0.907906 0.350742 0.236376
O55   O     O_3   0.857145 0.789320 0.714001 -0.567458
C149  C     C_3   0.929826 0.786879 0.704027 0.238515
H43   H     H_    0.964128 0.752305 0.718427 0.247877
H44   H     H_    0.953769 0.840958 0.704296 0.138540
C150  C     C_3   0.932979 0.759430 0.670354 -0.713298
H45   H     H_    0.894857 0.789702 0.655307 0.256493
H46   H     H_    0.988246 0.765957 0.660826 0.209143
H47   H     H_    0.918922 0.701840 0.669574 0.276593
O56   O     O_3   0.783873 0.100563 0.263256 -0.643691
C151  C     C_3   0.844596 0.055246 0.260951 0.009315
H48   H     H_    0.892461 0.079909 0.271196 0.166368
H49   H     H_    0.856191 0.037279 0.236778 0.122818
C152  C     C_3   0.830209 0.989677 0.280690 -0.736223
H50   H     H_    0.777548 0.967025 0.273758 0.295689
H51   H     H_    0.873543 0.949534 0.277105 0.220377
H52   H     H_    0.827917 0.004423 0.305948 0.274079
O57   O     O_3   0.861814 0.204904 0.281977 -0.661172
C153  C     C_3   0.934092 0.213071 0.291449 0.180441
H53   H     H_    0.966577 0.245396 0.275276 0.239288
H54   H     H_    0.959081 0.159575 0.293397 0.144615
C154  C     C_3   0.936984 0.244575 0.324573 -0.693854
H55   H     H_    0.890628 0.226782 0.338918 0.250340
H56   H     H_    0.985596 0.225321 0.336973 0.181626
H57   H     H_    0.937669 0.303776 0.323806 0.274464
O58   O     O_3   0.781189 0.898614 0.732057 -0.583918
C155  C     C_3   0.844617 0.939073 0.727634 0.128921
H58   H     H_    0.894243 0.911587 0.733963 0.107947
H59   H     H_    0.841493 0.989646 0.741138 0.141670
C156  C     C_3   0.850368 0.957921 0.692914 -0.644709
H60   H     H_    0.797925 0.977708 0.684069 0.292405
H61   H     H_    0.892481 0.999284 0.689341 0.216522
H62   H     H_    0.864292 0.910136 0.678801 0.243986
O59   O     O_3   0.138351 0.766074 0.294267 -0.604940
C157  C     C_3   0.065096 0.769042 0.303989 0.157484
H63   H     H_    0.027233 0.742162 0.287909 0.225991
H64   H     H_    0.046381 0.824785 0.306986 0.097226
C158  C     C_3   0.058806 0.733144 0.335871 -0.683323
H65   H     H_    0.093458 0.761096 0.353236 0.244858
H66   H     H_    0.002081 0.734883 0.344117 0.223157
H67   H     H_    0.076275 0.676605 0.334105 0.264140
O60   O     O_3   0.221754 0.110965 0.722468 -0.581001
C159  C     C_3   0.161280 0.069172 0.714317 0.155376
H68   H     H_    0.109837 0.093828 0.719168 0.096642
H69   H     H_    0.162395 0.017517 0.726693 0.182004
C160  C     C_3   0.163404 0.055767 0.679049 -0.650198
H70   H     H_    0.216138 0.032561 0.672138 0.274755
H71   H     H_    0.119605 0.018408 0.672246 0.215425
H72   H     H_    0.156106 0.106859 0.666193 0.254634
O61   O     O_3   0.671948 0.745262 0.198237 -0.562252
C161  C     C_3   0.608143 0.759806 0.181015 0.192468
H73   H     H_    0.558831 0.768878 0.194923 0.206032
H74   H     H_    0.596555 0.714112 0.165352 0.128842
C162  C     C_3   0.621345 0.823434 0.159587 -0.687973
H75   H     H_    0.668743 0.812859 0.144365 0.251499
H76   H     H_    0.573758 0.831914 0.144357 0.204336
H77   H     H_    0.631292 0.872528 0.173550 0.263558
O62   O     O_3   0.725071 0.384147 0.782065 -0.661326
C163  C     C_3   0.665958 0.425879 0.792361 0.137607
H78   H     H_    0.614377 0.399591 0.790497 0.106530
H79   H     H_    0.661265 0.475944 0.779043 0.193148
C164  C     C_3   0.676112 0.442927 0.827046 -0.739942
H80   H     H_    0.729739 0.467533 0.831100 0.276462
H81   H     H_    0.633508 0.480461 0.835042 0.235479
H82   H     H_    0.672416 0.393099 0.841108 0.234214
O63   O     O_3   0.357168 0.290650 0.213651 -0.584568
C165  C     C_3   0.428380 0.284611 0.202742 0.171389
H83   H     H_    0.463010 0.252317 0.217938 0.237870
H84   H     H_    0.451957 0.338708 0.200405 0.137144
C166  C     C_3   0.427013 0.252250 0.169847 -0.687891
H85   H     H_    0.379780 0.272402 0.156497 0.271332
H86   H     H_    0.475954 0.267607 0.156633 0.179065
H87   H     H_    0.424138 0.193116 0.171184 0.273352
O64   O     O_3   0.280686 0.610020 0.774904 -0.659151
C167  C     C_3   0.339477 0.562990 0.779360 0.155029
H88   H     H_    0.389997 0.581984 0.769596 0.095551
H89   H     H_    0.327485 0.510335 0.768837 0.200286
C168  C     C_3   0.350164 0.550922 0.814455 -0.757171
H90   H     H_    0.299707 0.530648 0.825203 0.279230
H91   H     H_    0.393905 0.511383 0.818312 0.237221
H92   H     H_    0.364574 0.601396 0.826499 0.242194
O65   O     O_3   0.362362 0.713218 0.786635 -0.631655
C169  C     C_3   0.434483 0.717488 0.796529 0.173101
H93   H     H_    0.469025 0.748895 0.780807 0.240058
H94   H     H_    0.456721 0.662810 0.798768 0.141046
C170  C     C_3   0.435620 0.749716 0.829488 -0.726615
H95   H     H_    0.387123 0.733234 0.842930 0.258610
H96   H     H_    0.482865 0.730233 0.842821 0.185314
H97   H     H_    0.436977 0.808879 0.828209 0.273710
O66   O     O_3   0.278916 0.399038 0.231691 -0.592661
C171  C     C_3   0.340288 0.440686 0.225022 0.136887
H98   H     H_    0.390966 0.415801 0.230650 0.080849
H99   H     H_    0.337093 0.492571 0.237506 0.146099
C172  C     C_3   0.341527 0.455619 0.189857 -0.642928
H100  H     H_    0.288928 0.477583 0.182143 0.280629
H101  H     H_    0.385004 0.494344 0.184261 0.210686
H102  H     H_    0.351163 0.405629 0.176490 0.255976
O67   O     O_3   0.644802 0.275060 0.792822 -0.632081
C173  C     C_3   0.573534 0.268139 0.804576 0.160526
H103  H     H_    0.534326 0.246260 0.787764 0.235451
H104  H     H_    0.552722 0.320436 0.812641 0.125652
C174  C     C_3   0.574873 0.221494 0.833778 -0.681937
H105  H     H_    0.612515 0.244374 0.851389 0.239973
H106  H     H_    0.520198 0.219226 0.844208 0.187494
H107  H     H_    0.592573 0.166599 0.827856 0.286525
O68   O     O_3   0.740579 0.633080 0.207251 -0.581900
C175  C     C_3   0.701339 0.574821 0.195327 0.125441
H108  H     H_    0.656194 0.556078 0.210048 0.145482
H109  H     H_    0.741503 0.531797 0.193257 0.222547
C176  C     C_3   0.676742 0.588942 0.161635 -0.790668
H110  H     H_    0.702969 0.637451 0.151877 0.296651
H111  H     H_    0.691055 0.542926 0.146319 0.239358
H112  H     H_    0.617414 0.594754 0.160545 0.213766
O69   O     O_3   0.092898 0.220691 0.762478 -0.653559
C177  C     C_3   0.067158 0.157087 0.776432 0.151286
H113  H     H_    0.088149 0.152819 0.800718 0.244546
H114  H     H_    0.079911 0.108375 0.763784 0.138282
C178  C     C_3   0.986018 0.159853 0.778520 -0.932277
H115  H     H_    0.963005 0.153682 0.754672 0.271027
H116  H     H_    0.965797 0.115678 0.793531 0.212950
H117  H     H_    0.969530 0.211647 0.788820 0.314695
O70   O     O_3   0.186976 0.894305 0.241134 -0.624721
C179  C     C_3   0.226587 0.957270 0.235993 0.209141
H118  H     H_    0.271638 0.948284 0.219391 0.146377
H119  H     H_    0.247627 0.981258 0.257784 0.217679
C180  C     C_3   0.175848 0.010191 0.220775 -0.884952
H120  H     H_    0.142263 0.037807 0.238625 0.281520
H121  H     H_    0.208341 0.047914 0.207494 0.215295
H122  H     H_    0.140239 0.984391 0.203407 0.268858
O71   O     O_3   0.908007 0.778974 0.764990 -0.662743
C181  C     C_3   0.926824 0.833021 0.786889 0.150011
H123  H     H_    0.899705 0.823600 0.809579 0.247688
H124  H     H_    0.915279 0.887999 0.779485 0.135216
C182  C     C_3   0.007303 0.829578 0.793024 -0.878073
H125  H     H_    0.036775 0.848245 0.771942 0.275037
H126  H     H_    0.021595 0.864949 0.813037 0.215939
H127  H     H_    0.023582 0.773958 0.798710 0.297567
O72   O     O_3   0.788378 0.137887 0.210302 -0.596974
C183  C     C_3   0.745592 0.079206 0.200182 0.183288
H128  H     H_    0.687733 0.091484 0.198800 0.173173
H129  H     H_    0.749070 0.032212 0.215696 0.124933
C184  C     C_3   0.768594 0.060888 0.166883 -0.829417
H130  H     H_    0.824619 0.040371 0.166602 0.232009
H131  H     H_    0.730801 0.021421 0.156642 0.205106
H132  H     H_    0.767680 0.109468 0.152081 0.291854
O73   O     O_3   0.899130 0.223118 0.228002 -0.617675
C185  C     C_3   0.940607 0.161255 0.221467 0.144725
H133  H     H_    0.909873 0.119372 0.209275 0.179862
H134  H     H_    0.966703 0.139226 0.242471 0.128057
C186  C     C_3   0.000844 0.181735 0.198970 -0.827860
H135  H     H_    0.024266 0.233899 0.205959 0.262531
H136  H     H_    0.043735 0.140281 0.199174 0.214391
H137  H     H_    0.979660 0.186085 0.174698 0.245821
O74   O     O_3   0.791541 0.866000 0.785825 -0.651385
C187  C     C_3   0.754644 0.928111 0.795377 0.189729
H138  H     H_    0.695704 0.921154 0.795419 0.173144
H139  H     H_    0.768180 0.974583 0.780633 0.113391
C188  C     C_3   0.776463 0.942257 0.829314 -0.869140
H140  H     H_    0.829914 0.968861 0.830136 0.220421
H141  H     H_    0.735410 0.975811 0.841122 0.215941
H142  H     H_    0.780354 0.891331 0.842526 0.301949
O75   O     O_3   0.095898 0.787194 0.241472 -0.608374
C189  C     C_3   0.050665 0.847609 0.245986 0.165450
H143  H     H_    0.072609 0.888824 0.261986 0.137703
H144  H     H_    0.998300 0.830303 0.255851 0.128999
C190  C     C_3   0.032693 0.879426 0.214125 -0.766398
H145  H     H_    0.994740 0.843926 0.201532 0.203750
H146  H     H_    0.007780 0.933026 0.216978 0.179133
H147  H     H_    0.081748 0.883175 0.199573 0.312198
O76   O     O_3   0.203332 0.124200 0.777935 -0.636916
C191  C     C_3   0.230008 0.054418 0.782236 0.141825
H148  H     H_    0.273605 0.056745 0.799986 0.183923
H149  H     H_    0.252746 0.027994 0.761220 0.186195
C192  C     C_3   0.168750 0.009431 0.795311 -0.942680
H150  H     H_    0.187674 0.955420 0.799726 0.230138
H151  H     H_    0.148490 0.032757 0.817622 0.270764
H152  H     H_    0.123926 0.004473 0.778342 0.237126
O77   O     O_3   0.596850 0.713683 0.242603 -0.603838
C193  C     C_3   0.561446 0.651906 0.230895 0.094629
H153  H     H_    0.574918 0.603354 0.244354 0.210908
H154  H     H_    0.571331 0.642331 0.205816 0.119080
C194  C     C_3   0.481425 0.661254 0.235628 -0.811155
H155  H     H_    0.467504 0.717580 0.230844 0.318368
H156  H     H_    0.450912 0.625162 0.219737 0.245254
H157  H     H_    0.466495 0.648860 0.260266 0.246341
O78   O     O_3   0.695246 0.382169 0.727734 -0.594563
C195  C     C_3   0.726021 0.450629 0.723572 0.167898
H158  H     H_    0.770969 0.447535 0.706521 0.168148
H159  H     H_    0.747935 0.476161 0.744923 0.193248
C196  C     C_3   0.667840 0.498176 0.709732 -0.903991
H160  H     H_    0.625973 0.510998 0.727444 0.243973
H161  H     H_    0.691820 0.548249 0.701964 0.223690
H162  H     H_    0.642454 0.471797 0.689137 0.280231
O79   O     O_3   0.402848 0.279863 0.267048 -0.623271
C197  C     C_3   0.443608 0.342893 0.272410 0.129453
H163  H     H_    0.411923 0.389846 0.279685 0.167016
H164  H     H_    0.475391 0.357248 0.251668 0.151466
C198  C     C_3   0.497230 0.329345 0.298763 -0.759197
H165  H     H_    0.539797 0.371101 0.298529 0.205088
H166  H     H_    0.469370 0.331893 0.321765 0.246031
H167  H     H_    0.522947 0.276128 0.295892 0.277329
O80   O     O_3   0.296919 0.624783 0.719723 -0.596300
C199  C     C_3   0.264680 0.557356 0.714579 0.164011
H168  H     H_    0.222178 0.562384 0.696430 0.176773
H169  H     H_    0.238826 0.532555 0.735225 0.166563
C200  C     C_3   0.322139 0.507097 0.702204 -0.945207
H170  H     H_    0.369579 0.504593 0.717878 0.227989
H171  H     H_    0.299544 0.453535 0.701834 0.233119
H172  H     H_    0.339270 0.523097 0.678234 0.277860
O81   O     O_3   0.402367 0.720168 0.732496 -0.613795
C201  C     C_3   0.445760 0.658558 0.728130 0.156260
H173  H     H_    0.416318 0.611800 0.719913 0.191114
H174  H     H_    0.475579 0.643797 0.749285 0.139516
C202  C     C_3   0.501276 0.673783 0.702722 -0.808718
H175  H     H_    0.524203 0.728036 0.705952 0.257837
H176  H     H_    0.545437 0.633738 0.703769 0.215957
H177  H     H_    0.475832 0.670164 0.679219 0.250639
O82   O     O_3   0.294428 0.365534 0.285444 -0.607165
C203  C     C_3   0.259986 0.429023 0.295093 0.191920
H178  H     H_    0.200743 0.424833 0.294106 0.158827
H179  H     H_    0.277515 0.475503 0.281103 0.097017
C204  C     C_3   0.280392 0.441725 0.329326 -0.836697
H180  H     H_    0.332693 0.470366 0.330751 0.217972
H181  H     H_    0.237931 0.473151 0.341365 0.202374
H182  H     H_    0.285788 0.390184 0.341978 0.306195
O83   O     O_3   0.593799 0.286884 0.740680 -0.606350
C205  C     C_3   0.552695 0.351131 0.742434 0.165957
H183  H     H_    0.583069 0.400957 0.742229 0.161840
H184  H     H_    0.519406 0.353090 0.763607 0.141421
C206  C     C_3   0.502829 0.355422 0.714262 -0.779504
H185  H     H_    0.471888 0.305210 0.712070 0.249137
H186  H     H_    0.464612 0.400651 0.717144 0.201087
H187  H     H_    0.534791 0.364118 0.692576 0.263582
O84   O     O_3   0.690390 0.615994 0.259338 -0.631547
C207  C     C_3   0.723512 0.550083 0.266688 0.169635
H188  H     H_    0.769170 0.556332 0.283014 0.180107
H189  H     H_    0.743592 0.520702 0.246212 0.183818
C208  C     C_3   0.667009 0.504731 0.283114 -0.851276
H190  H     H_    0.626432 0.485320 0.265950 0.259859
H191  H     H_    0.692566 0.458830 0.294669 0.208734
H192  H     H_    0.639449 0.536480 0.301581 0.274268
O85   O     O_3   0.212943 0.327645 0.696359 -0.540424
C209  C     C_3   0.255439 0.344004 0.669823 0.210690
H193  H     H_    0.254856 0.297429 0.653828 0.220509
H194  H     H_    0.312475 0.356664 0.675492 0.105484
C210  C     C_3   0.220093 0.404722 0.651543 -0.903423
H195  H     H_    0.203614 0.448748 0.667428 0.250340
H196  H     H_    0.258141 0.425681 0.633669 0.234594
H197  H     H_    0.171025 0.384907 0.639409 0.260723
O86   O     O_3   0.368713 0.748922 0.290771 -0.616165
C211  C     C_3   0.344848 0.787791 0.317379 0.262593
H198  H     H_    0.288206 0.778305 0.323815 0.245961
H199  H     H_    0.353313 0.845561 0.313991 0.203113
C212  C     C_3   0.390485 0.767884 0.345623 -0.948719
H200  H     H_    0.445415 0.790295 0.342754 0.255702
H201  H     H_    0.366560 0.791037 0.367275 0.236554
H202  H     H_    0.393450 0.708901 0.348159 0.274953
O87   O     O_3   0.793169 0.678348 0.695458 -0.531499
C213  C     C_3   0.752626 0.655545 0.669279 0.190943
H203  H     H_    0.755568 0.697820 0.651190 0.205956
H204  H     H_    0.694688 0.645764 0.674332 0.097413
C214  C     C_3   0.787879 0.589370 0.655079 -0.893199
H205  H     H_    0.798394 0.548675 0.673398 0.242758
H206  H     H_    0.752322 0.566131 0.636767 0.230302
H207  H     H_    0.840219 0.603949 0.644178 0.261866
O88   O     O_3   0.679514 0.209414 0.308130 -0.614789
C215  C     C_3   0.729790 0.163590 0.322454 0.231857
H208  H     H_    0.783899 0.186373 0.323392 0.223903
H209  H     H_    0.729871 0.110583 0.311298 0.236968
C216  C     C_3   0.706087 0.150587 0.356187 -0.862351
H210  H     H_    0.651697 0.125824 0.356518 0.271164
H211  H     H_    0.744621 0.113965 0.367976 0.241647
H212  H     H_    0.704082 0.201680 0.369410 0.254793
O89   O     O_3   0.794801 0.309174 0.306333 -0.553152
C217  C     C_3   0.758820 0.345207 0.330993 0.163817
H213  H     H_    0.758687 0.309839 0.351857 0.171461
H214  H     H_    0.701398 0.358444 0.326082 0.128087
C218  C     C_3   0.800619 0.412387 0.339603 -0.877726
H215  H     H_    0.806837 0.447480 0.318790 0.235793
H216  H     H_    0.771580 0.441738 0.358395 0.223179
H217  H     H_    0.855021 0.397814 0.348348 0.266466
O90   O     O_3   0.722477 0.800676 0.692979 -0.505078
C219  C     C_3   0.663407 0.832663 0.676900 0.211478
H218  H     H_    0.675369 0.890484 0.674166 0.210342
H219  H     H_    0.610607 0.828485 0.689160 0.086362
C220  C     C_3   0.654571 0.801704 0.644108 -0.920323
H220  H     H_    0.636502 0.745286 0.645520 0.233433
H221  H     H_    0.612911 0.832535 0.631190 0.240261
H222  H     H_    0.706092 0.805397 0.630960 0.281256
O91   O     O_3   0.235924 0.680972 0.302238 -0.538258
C221  C     C_3   0.261135 0.619760 0.317841 0.115926
H223  H     H_    0.320447 0.613452 0.314933 0.154474
H224  H     H_    0.232338 0.572600 0.308422 0.120092
C222  C     C_3   0.244113 0.626459 0.352708 -0.794364
H225  H     H_    0.185092 0.622700 0.356546 0.250360
H226  H     H_    0.271094 0.583049 0.365979 0.210903
H227  H     H_    0.263474 0.678484 0.361942 0.264621
O92   O     O_3   0.291665 0.208619 0.692586 -0.520561
C223  C     C_3   0.354949 0.178324 0.679088 0.196101
H228  H     H_    0.344908 0.120445 0.675356 0.216725
H229  H     H_    0.404410 0.183143 0.693716 0.085217
C224  C     C_3   0.370609 0.210321 0.646991 -0.943045
H230  H     H_    0.385906 0.267386 0.649368 0.240451
H231  H     H_    0.416159 0.181162 0.635944 0.239834
H232  H     H_    0.322871 0.204912 0.631474 0.280595
O93   O     O_3   0.754679 0.858305 0.205748 -0.546325
C225  C     C_3   0.817101 0.891472 0.193217 0.176128
H233  H     H_    0.868919 0.868999 0.201477 0.105351
H234  H     H_    0.818586 0.947499 0.200575 0.108520
C226  C     C_3   0.815581 0.886212 0.157509 -0.784941
H235  H     H_    0.861524 0.916384 0.147382 0.195692
H236  H     H_    0.819526 0.829683 0.149921 0.277019
H237  H     H_    0.764427 0.907893 0.148158 0.244764
O94   O     O_3   0.849643 0.263500 0.799904 -0.633080
C227  C     C_3   0.811089 0.303488 0.822367 0.242696
H238  H     H_    0.753799 0.288451 0.824090 0.246766
H239  H     H_    0.816923 0.361098 0.817553 0.222160
C228  C     C_3   0.846082 0.292931 0.854366 -0.907343
H240  H     H_    0.901937 0.314316 0.854053 0.261362
H241  H     H_    0.814755 0.321916 0.872597 0.241086
H242  H     H_    0.848390 0.235480 0.860570 0.268824
O95   O     O_3   0.291207 0.177927 0.195210 -0.530557
C229  C     C_3   0.249650 0.153302 0.169635 0.173439
H243  H     H_    0.248570 0.195836 0.151676 0.203283
H244  H     H_    0.192920 0.139743 0.175643 0.100665
C230  C     C_3   0.287370 0.089498 0.154521 -0.890532
H245  H     H_    0.299323 0.047538 0.172147 0.242341
H246  H     H_    0.252741 0.066618 0.135792 0.227729
H247  H     H_    0.339114 0.106790 0.143854 0.265835
O96   O     O_3   0.163758 0.725587 0.805615 -0.620170
C231  C     C_3   0.206780 0.679391 0.823824 0.224852
H248  H     H_    0.264278 0.693873 0.823893 0.231630
H249  H     H_    0.199756 0.623631 0.816124 0.231490
C232  C     C_3   0.179246 0.680308 0.857521 -0.890773
H250  H     H_    0.178362 0.735444 0.867035 0.257515
H251  H     H_    0.123564 0.658582 0.858395 0.265815
H252  H     H_    0.214462 0.646626 0.872527 0.243764
O97   O     O_3   0.290137 0.811002 0.805713 -0.546074
C233  C     C_3   0.257367 0.850192 0.830101 0.160925
H253  H     H_    0.261209 0.818025 0.851851 0.168073
H254  H     H_    0.198955 0.860007 0.826471 0.141826
C234  C     C_3   0.300318 0.918321 0.835998 -0.880592
H255  H     H_    0.314364 0.944119 0.813398 0.237622
H256  H     H_    0.268636 0.955871 0.850746 0.227899
H257  H     H_    0.351352 0.905345 0.848348 0.259202
O98   O     O_3   0.222000 0.301381 0.192803 -0.508239
C235  C     C_3   0.163035 0.333767 0.176795 0.216234
H258  H     H_    0.175532 0.391425 0.173887 0.207139
H259  H     H_    0.110385 0.330299 0.189202 0.090974
C236  C     C_3   0.153270 0.302458 0.144125 -0.928227
H260  H     H_    0.134000 0.246445 0.145785 0.234167
H261  H     H_    0.112138 0.333926 0.131179 0.241638
H262  H     H_    0.204739 0.304879 0.130877 0.277764
O99   O     O_3   0.728379 0.173909 0.802261 -0.543698
C237  C     C_3   0.771149 0.126316 0.819762 0.111292
H263  H     H_    0.828234 0.143708 0.821009 0.188688
H264  H     H_    0.769385 0.073308 0.808758 0.121798
C238  C     C_3   0.741027 0.121058 0.852935 -0.834099
H265  H     H_    0.687213 0.095183 0.852491 0.245119
H266  H     H_    0.777781 0.088777 0.867812 0.221235
H267  H     H_    0.735337 0.175068 0.863434 0.269312
O100  O     O_3   0.820204 0.736886 0.197215 -0.484184
C239  C     C_3   0.888754 0.717987 0.185202 0.131606
H268  H     H_    0.924523 0.692199 0.202765 0.115813
H269  H     H_    0.916181 0.766436 0.176273 0.112654
C240  C     C_3   0.878587 0.666541 0.157840 -0.719288
H270  H     H_    0.844745 0.691712 0.139416 0.247410
H271  H     H_    0.931514 0.652242 0.147506 0.187272
H272  H     H_    0.851885 0.616882 0.166012 0.288583
Br1   Br    Br    0.268639 0.387874 0.801453 -0.608606
Br2   Br    Br    0.367529 0.756190 0.187088 -0.578885
Br3   Br    Br    0.722225 0.602839 0.794906 -0.639578
Br4   Br    Br    0.594071 0.301060 0.226059 -0.697260
Br5   Br    Br    0.715795 0.400883 0.209777 -0.690114
Br6   Br    Br    0.601107 0.697754 0.771374 -0.717062
Br7   Br    Br    0.274452 0.623966 0.200066 -0.631866
Br8   Br    Br    0.394636 0.295413 0.780343 -0.684165
Br9   Br    Br    0.729082 0.855685 0.316017 -0.563637
Br10  Br    Br    0.887415 0.223094 0.702040 -0.645433
Br11  Br    Br    0.221276 0.103788 0.294866 -0.665672
Br12  Br    Br    0.100870 0.790524 0.714098 -0.663754
Br13  Br    Br    0.223483 0.893593 0.704192 -0.628648
Br14  Br    Br    0.100492 0.198675 0.271307 -0.713915
Br15  Br    Br    0.762704 0.119773 0.695420 -0.593969
Br16  Br    Br    0.874874 0.782908 0.297985 -0.670271
O101  O     O_3   0.184458 0.258433 0.806503 -0.558251
C241  C     C_3   0.150986 0.303858 0.828798 0.202638
H273  H     H_    0.125511 0.350891 0.817573 0.181661
H274  H     H_    0.190691 0.321167 0.846774 0.176490
C242  C     C_3   0.092061 0.263567 0.846161 -0.869641
H275  H     H_    0.113071 0.211986 0.855226 0.263210
H276  H     H_    0.072578 0.296220 0.866242 0.225031
H277  H     H_    0.045820 0.253556 0.830325 0.258968
O102  O     O_3   0.239524 0.838352 0.194488 -0.564292
C243  C     C_3   0.251708 0.843664 0.161749 0.246186
H278  H     H_    0.247833 0.791001 0.149906 0.181978
H279  H     H_    0.305362 0.868033 0.157270 0.163497
C244  C     C_3   0.196290 0.893366 0.147160 -0.872439
H280  H     H_    0.202010 0.947872 0.157069 0.248574
H281  H     H_    0.204903 0.896179 0.121391 0.228640
H282  H     H_    0.141058 0.873586 0.151687 0.262835
O103  O     O_3   0.805539 0.730372 0.807745 -0.567635
C245  C     C_3   0.826784 0.682946 0.831950 0.191434
H283  H     H_    0.853346 0.634496 0.822369 0.196205
H284  H     H_    0.779613 0.668089 0.846615 0.178975
C246  C     C_3   0.880896 0.719097 0.853569 -0.883338
H285  H     H_    0.859828 0.771536 0.861665 0.261629
H286  H     H_    0.890840 0.684714 0.874369 0.236872
H287  H     H_    0.932905 0.726823 0.841179 0.251781
O104  O     O_3   0.683284 0.211491 0.190099 -0.553725
C247  C     C_3   0.646326 0.246351 0.165407 0.201263
H288  H     H_    0.655907 0.304820 0.164952 0.185746
H289  H     H_    0.588020 0.235732 0.167898 0.174064
C248  C     C_3   0.669268 0.215345 0.133958 -0.827448
H290  H     H_    0.656081 0.157499 0.132973 0.252316
H291  H     H_    0.639986 0.242907 0.114731 0.248399
H292  H     H_    0.727946 0.222911 0.130402 0.265104
O105  O     O_3   0.801010 0.278446 0.191736 -0.520406
C249  C     C_3   0.819232 0.328908 0.168287 0.206184
H293  H     H_    0.842246 0.378530 0.178233 0.193835
H294  H     H_    0.771497 0.341911 0.153704 0.159900
C250  C     C_3   0.876517 0.297402 0.146853 -0.823725
H295  H     H_    0.860507 0.243155 0.138876 0.269572
H296  H     H_    0.883898 0.332316 0.126023 0.222188
H297  H     H_    0.928527 0.294330 0.159587 0.248256
O106  O     O_3   0.684789 0.794230 0.808014 -0.547640
C251  C     C_3   0.645757 0.761948 0.832616 0.202514
H298  H     H_    0.656869 0.703953 0.834920 0.185353
H299  H     H_    0.587809 0.770996 0.828414 0.178389
C252  C     C_3   0.664615 0.798011 0.863532 -0.832126
H300  H     H_    0.653298 0.856227 0.862103 0.257514
H301  H     H_    0.631616 0.774778 0.882727 0.244014
H302  H     H_    0.722419 0.789591 0.869035 0.261514
O107  O     O_3   0.159892 0.729588 0.194133 -0.543013
C253  C     C_3   0.147494 0.683212 0.168470 0.186178
H303  H     H_    0.134121 0.628665 0.176779 0.199695
H304  H     H_    0.194479 0.681330 0.152332 0.182758
C254  C     C_3   0.083177 0.710047 0.149891 -0.870671
H305  H     H_    0.096628 0.760851 0.137894 0.259463
H306  H     H_    0.067691 0.669889 0.131893 0.226346
H307  H     H_    0.037148 0.719136 0.165965 0.250652
O108  O     O_3   0.303439 0.191630 0.807697 -0.556686
C255  C     C_3   0.330265 0.219442 0.836253 0.232055
H308  H     H_    0.311286 0.274564 0.840994 0.184226
H309  H     H_    0.390052 0.218486 0.836024 0.168868
C256  C     C_3   0.305362 0.171730 0.863011 -0.816810
H310  H     H_    0.325227 0.116311 0.859324 0.248600
H311  H     H_    0.326855 0.192166 0.885634 0.238918
H312  H     H_    0.245600 0.171111 0.864102 0.268508
O109  O     O_3   0.658447 0.725348 0.296120 -0.530461
C257  C     C_3   0.613326 0.749184 0.320564 0.233567
H313  H     H_    0.585527 0.799714 0.314016 0.147580
H314  H     H_    0.644369 0.755795 0.342662 0.162621
C258  C     C_3   0.557123 0.691830 0.326835 -0.818711
H315  H     H_    0.582710 0.638259 0.327475 0.258751
H316  H     H_    0.531323 0.701273 0.349955 0.205278
H317  H     H_    0.515572 0.692499 0.308143 0.283411
O110  O     O_3   0.779942 0.324802 0.690533 -0.568787
C259  C     C_3   0.793771 0.306482 0.658861 0.243703
H318  H     H_    0.779513 0.250296 0.653310 0.181096
H319  H     H_    0.851702 0.315244 0.653486 0.172134
C260  C     C_3   0.750625 0.355920 0.637697 -0.819580
H320  H     H_    0.767532 0.412216 0.641549 0.245431
H321  H     H_    0.759957 0.341593 0.612719 0.225649
H322  H     H_    0.692350 0.351135 0.643001 0.273692
O111  O     O_3   0.305970 0.231065 0.307227 -0.523660
C261  C     C_3   0.325934 0.184278 0.331811 0.207962
H323  H     H_    0.350505 0.134304 0.322715 0.185916
H324  H     H_    0.278519 0.171974 0.346782 0.167297
C262  C     C_3   0.382041 0.219855 0.352541 -0.827234
H325  H     H_    0.364907 0.274921 0.358833 0.265624
H326  H     H_    0.389213 0.188294 0.374395 0.223276
H327  H     H_    0.434452 0.221469 0.340087 0.252520
O112  O     O_3   0.202107 0.691881 0.690672 -0.560456
C263  C     C_3   0.174894 0.716740 0.661654 0.222945
H328  H     H_    0.185123 0.774515 0.657882 0.177291
H329  H     H_    0.115962 0.706578 0.660502 0.171296
C264  C     C_3   0.209757 0.674624 0.635153 -0.807109
H330  H     H_    0.197232 0.616850 0.637714 0.245723
H331  H     H_    0.188776 0.693545 0.612206 0.231308
H332  H     H_    0.269022 0.681908 0.635669 0.272280
O113  O     O_3   0.313685 0.770162 0.692245 -0.529085
C265  C     C_3   0.336724 0.819523 0.669068 0.209565
H333  H     H_    0.356385 0.870173 0.679346 0.196171
H334  H     H_    0.292520 0.830675 0.652240 0.161501
C266  C     C_3   0.399462 0.788564 0.650588 -0.843422
H335  H     H_    0.387434 0.733122 0.642944 0.267195
H336  H     H_    0.409827 0.821983 0.629522 0.220884
H337  H     H_    0.448744 0.789089 0.665285 0.244970
O114  O     O_3   0.185694 0.295556 0.307812 -0.549003
C267  C     C_3   0.145912 0.264505 0.332459 0.196973
H338  H     H_    0.154502 0.206011 0.334527 0.187402
H339  H     H_    0.088382 0.276379 0.328544 0.179772
C268  C     C_3   0.167088 0.299187 0.363402 -0.828341
H340  H     H_    0.157503 0.357744 0.362333 0.256288
H341  H     H_    0.134149 0.276457 0.382730 0.247464
H342  H     H_    0.224820 0.288997 0.368444 0.262255
O115  O     O_3   0.669654 0.243957 0.693807 -0.533191
C269  C     C_3   0.636662 0.196918 0.671993 0.205633
H343  H     H_    0.618375 0.146719 0.683177 0.178397
H344  H     H_    0.674151 0.184800 0.652374 0.170291
C270  C     C_3   0.570394 0.231628 0.657715 -0.864623
H345  H     H_    0.582880 0.286308 0.649301 0.264425
H346  H     H_    0.551346 0.199083 0.637538 0.217080
H347  H     H_    0.526683 0.233750 0.675351 0.249964
O116  O     O_3   0.778884 0.666311 0.306519 -0.586280
C271  C     C_3   0.793352 0.680332 0.338521 0.224070
H348  H     H_    0.771384 0.732298 0.346469 0.194303
H349  H     H_    0.852407 0.678729 0.342786 0.183654
C272  C     C_3   0.759472 0.621848 0.358331 -0.854589
H350  H     H_    0.782455 0.569318 0.351583 0.250373
H351  H     H_    0.770811 0.631725 0.383564 0.237920
H352  H     H_    0.700301 0.620791 0.354673 0.264358
Br17  Br    Br    0.156161 0.517477 0.938494 -0.426398
Br18  Br    Br    0.458826 0.848022 0.062075 -0.413814
Br19  Br    Br    0.843229 0.482052 0.938334 -0.434788
Br20  Br    Br    0.524512 0.154496 0.061980 -0.446966
Br21  Br    Br    0.843065 0.483000 0.061766 -0.438063
Br22  Br    Br    0.507570 0.844422 0.938735 -0.447500
Br23  Br    Br    0.156416 0.515174 0.061518 -0.414465
Br24  Br    Br    0.480686 0.154898 0.938700 -0.445108
Br25  Br    Br    0.656852 0.994229 0.438545 -0.405637
Br26  Br    Br    0.008479 0.343715 0.561678 -0.427481
Br27  Br    Br    0.342342 0.010970 0.438316 -0.432492
Br28  Br    Br    0.992524 0.656142 0.561782 -0.433504
Br29  Br    Br    0.342515 0.011213 0.561755 -0.424042
Br30  Br    Br    0.019524 0.344801 0.438291 -0.444618
Br31  Br    Br    0.656871 0.991039 0.561476 -0.413848
Br32  Br    Br    0.977910 0.654358 0.438598 -0.426390

loop_
_geom_bond_atom_site_label_1
_geom_bond_atom_site_label_2
_ccdc_geom_bond_type
C28   O24   A    
C217  H213  S    
O102  C243  S    
C79   O107  S    
C57   H1    S    
C154  H56   S    
C218  H215  S    
C84   O112  S    
C179  C180  S    
C117  C133  A    
C164  H82   S    
C269  C270  S    
C244  H280  S    
C76   Br4   S    
C13   C113  A    
O106  C251  S    
C32   O42   A    
O90   C219  S    
C17   N15   A    
C198  H167  S    
C14   C116  A    
C108  H20   S    
C263  C264  S    
C18   N16   A    
O65   C169  S    
C64   H8    S    
C176  H110  S    
C61   O89   S    
C59   O87   S    
O91   C221  S    
C215  H208  S    
C195  H159  S    
C84   Br12  S    
C255  H309  S    
O99   C237  S    
C82   C87   S    
C254  H305  S    
O84   C207  S    
C148  H42   S    
C3    O11   A    
O2    Zn11  S    
C169  C170  S    
C26   O22   A    
C186  H135  S    
C257  H314  S    
C249  H293  S    
C174  H107  S    
C227  H238  S    
C183  C184  S    
C228  H241  S    
C219  H218  S    
C27   O37   A    
C220  H221  S    
C241  C242  S    
C251  H299  S    
C225  H233  S    
C51   C54   S    
C34   O48   A    
C36   O32   A    
C23   N3    A    
C44   C92   S    
C162  H75   S    
C38   O34   A    
C240  H272  S    
O89   C217  S    
C81   Br9   S    
C64   O92   S    
C180  H121  S    
C19   C141  S    
O2    Zn4   S    
O116  C271  S    
O22   Zn9   S    
C243  H279  S    
C82   C98   S    
C43   C91   S    
C108  C124  A    
C151  C152  S    
C78   Br6   S    
C168  H91   S    
O45   Zn11  S    
C164  H80   S    
C203  H179  S    
O31   Zn2   S    
C170  H97   S    
C157  H64   S    
C67   O95   S    
C71   O99   S    
C84   C100  S    
O28   Zn15  S    
O52   Zn14  S    
C33   C92   S    
C165  H83   S    
C265  C266  S    
C190  H147  S    
C177  H114  S    
C239  C240  S    
O79   C197  S    
C45   O73   S    
C165  C166  S    
O23   Zn10  S    
C37   C96   S    
C53   O81   S    
C258  H317  S    
C249  C250  S    
N10   N14   A    
O76   C191  S    
C39   C94   S    
C223  H228  S    
C196  H161  S    
C16   C118  A    
C5    O15   A    
C31   O41   A    
O12   Zn13  S    
O32   Zn3   S    
C219  C220  S    
C232  H250  S    
C188  H142  S    
C225  C226  S    
C199  C200  S    
C166  H85   S    
C226  H235  S    
C59   C91   S    
C242  H277  S    
C261  H324  S    
C238  H265  S    
N2    N6    A    
C57   C89   S    
C87   C103  S    
O11   Zn16  S    
C212  H201  S    
C36   C91   S    
C125  Br21  S    
O24   Zn11  S    
C74   C79   S    
C24   N2    A    
O100  C239  S    
C226  H237  S    
C147  H39   S    
O88   C215  S    
C111  H23   S    
C21   C139  S    
C40   C95   S    
O42   Zn8   S    
C28   O38   A    
C244  H282  S    
C38   O52   A    
C178  H115  S    
C117  H29   S    
C263  H328  S    
C18   N14   A    
C191  H149  S    
C48   C96   S    
C159  C160  S    
C197  H163  S    
O26   Zn13  S    
C150  H47   S    
O44   Zn6   S    
C250  H297  S    
C229  C230  S    
O98   C235  S    
C209  H193  S    
C69   C101  S    
C13   C115  A    
C234  H255  S    
O48   Zn10  S    
C43   O71   S    
O2    Zn9   S    
C47   O59   S    
C26   O40   A    
C51   O79   S    
C25   O21   A    
C150  H45   S    
C266  H336  S    
O71   C181  S    
C151  H49   S    
C186  H136  S    
C163  C164  S    
C74   C90   S    
C132  Br28  S    
C78   C94   S    
C228  H240  S    
C235  H258  S    
C18   C144  S    
C186  H137  S    
O69   C177  S    
O40   Zn2   S    
C155  H58   S    
C201  H173  S    
C187  H139  S    
C23   N1    A    
C81   C88   S    
C222  H226  S    
C20   N10   A    
C83   C86   S    
C200  H170  S    
C160  H70   S    
O2    Zn2   S    
O4    Zn6   S    
O61   C161  S    
C213  H203  S    
C253  H304  S    
C60   H4    S    
C208  H191  S    
C230  H245  S    
O101  C241  S    
C61   H5    S    
C173  C174  S    
N4    N8    A    
C236  H261  S    
C59   H3    S    
O34   Zn5   S    
C79   Br7   S    
N1    N7    A    
O103  C245  S    
C63   C95   S    
C48   O60   S    
C10   C108  A    
C35   O45   A    
O72   C183  S    
C62   H6    S    
C82   Br10  S    
C45   C93   S    
C272  H352  S    
C209  C210  S    
C12   C110  A    
C180  H120  S    
C158  H65   S    
C46   O74   S    
C56   O68   S    
C44   O56   S    
O81   C201  S    
C87   Br15  S    
C233  C234  S    
C76   O104  S    
C77   Br5   S    
C16   C120  A    
O115  C269  S    
O30   Zn1   S    
C227  H239  S    
C250  H296  S    
C9    C105  A    
C262  H325  S    
C201  C202  S    
C224  H231  S    
C264  H330  S    
C121  C137  A    
C173  H103  S    
C29   O43   A    
C238  H267  S    
C22   N8    A    
C189  H143  S    
C62   O90   S    
C239  H268  S    
C208  H190  S    
C54   O82   S    
C156  H61   S    
C213  C214  S    
C116  C132  A    
C24   N4    A    
C231  C232  S    
C69   H13   S    
C224  H230  S    
C193  H153  S    
C270  H345  S    
C87   O115  S    
C6    O16   A    
C243  C244  S    
C75   C91   S    
O17   Zn6   S    
C30   O26   A    
O36   Zn7   S    
C19   N11   A    
C160  H72   S    
C135  C143  A    
O112  C263  S    
C247  H288  S    
C245  H284  S    
C246  H286  S    
C192  H151  S    
C51   O63   S    
O39   Zn1   S    
C8    O18   A    
C86   Br14  S    
C184  H131  S    
C260  H320  S    
C247  H289  S    
C60   C92   S    
O1    Zn3   S    
C7    C12   S    
C234  H257  S    
C155  H59   S    
C50   C98   S    
C238  H266  S    
C187  C188  S    
C50   O78   S    
C64   C96   S    
C217  C218  S    
C39   O49   A    
C136  Br32  S    
C163  H78   S    
C211  H199  S    
C269  H344  S    
C159  H68   S    
C188  H141  S    
C80   Br8   S    
C49   C97   S    
C52   C100  S    
C29   C104  S    
C42   C90   S    
C237  C238  S    
C40   O36   A    
O4    Zn15  S    
C233  H254  S    
C68   C100  S    
O57   C153  S    
C20   N12   A    
C210  H196  S    
C46   C94   S    
O95   C229  S    
C266  H335  S    
C248  H292  S    
O4    Zn8   S    
C193  C194  S    
C256  H310  S    
C88   Br16  S    
C230  H247  S    
C169  H94   S    
C262  H326  S    
C171  C172  S    
C32   O28   A    
C233  H253  S    
C110  C126  A    
O55   C149  S    
C28   C99   S    
C107  H19   S    
O5    Zn10  S    
C248  H290  S    
C185  H133  S    
C156  H62   S    
C105  H17   S    
C10   C106  A    
C166  H86   S    
C164  H81   S    
C86   C102  S    
C172  H102  S    
C12   C112  A    
C180  H122  S    
C52   C53   S    
C194  H155  S    
C71   C103  S    
C265  H333  S    
C239  H269  S    
C215  C216  S    
C73   O101  S    
C146  H37   S    
C271  H348  S    
C1    O5    A    
O47   Zn9   S    
C134  Br30  S    
C197  C198  S    
C7    O19   A    
C145  H33   S    
C182  H127  S    
C150  H46   S    
C65   C72   S    
C123  C137  A    
C111  C127  A    
C216  H212  S    
C72   O100  S    
N12   N16   A    
C268  H342  S    
C66   C98   S    
C128  C140  A    
C34   C89   S    
C22   N6    A    
O70   C179  S    
C83   Br11  S    
C44   O72   S    
C181  H123  S    
C255  C256  S    
O93   C225  S    
C135  Br31  S    
C179  H118  S    
C74   Br2   S    
C38   C93   S    
C272  H351  S    
C15   C119  A    
C9    C107  A    
C241  H274  S    
C259  H318  S    
C130  C142  A    
C270  H347  S    
C235  H259  S    
C174  H106  S    
O110  C259  S    
C26   C97   S    
C134  C144  A    
O37   Zn3   S    
C88   O116  S    
C118  H30   S    
C185  C186  S    
C192  H150  S    
C259  C260  S    
C231  H248  S    
C149  H43   S    
C225  H234  S    
C1    C14   S    
C30   O44   A    
O113  C265  S    
C251  H298  S    
C88   C104  S    
C157  C158  S    
O75   C189  S    
C3    C16   S    
C54   O66   S    
C176  H111  S    
C172  H101  S    
C221  C222  S    
C33   O29   A    
C183  H129  S    
C31   O27   A    
C175  H108  S    
C37   O51   A    
C171  H99   S    
C114  C130  A    
C41   C89   S    
C147  C148  S    
C107  C123  A    
C130  Br26  S    
C232  H252  S    
C145  C146  S    
C160  H71   S    
C168  H90   S    
C124  Br20  S    
C85   C101  S    
C82   O110  S    
C60   O88   S    
C170  H96   S    
C43   C46   S    
O64   C167  S    
C214  H207  S    
O62   C163  S    
C124  C138  A    
C85   Br13  S    
C172  H100  S    
C173  H104  S    
C153  H53   S    
C229  H244  S    
C190  H146  S    
C129  C141  A    
C50   O62   S    
C22   C140  S    
C212  H202  S    
C116  H28   S    
C67   H11   S    
C246  H285  S    
C159  H69   S    
C212  H200  S    
C171  H98   S    
C267  H339  S    
C119  H31   S    
C221  H223  S    
C152  H52   S    
C120  H32   S    
C81   O109  S    
C53   C101  S    
C68   C69   S    
C266  H337  S    
C149  C150  S    
O10   Zn15  S    
O19   Zn8   S    
C242  H276  S    
C39   O35   A    
O83   C205  S    
C74   O102  S    
C67   C99   S    
O85   C209  S    
C37   O33   A    
C80   O108  S    
C83   C99   S    
O87   C213  S    
C85   O113  S    
C218  H216  S    
C271  C272  S    
C202  H177  S    
C1    O7    A    
C78   O106  S    
C45   O57   S    
O77   C193  S    
C6    C9    S    
C122  Br18  S    
C7    O17   A    
C272  H350  S    
N9    N15   A    
C205  H184  S    
C167  H88   S    
C36   O46   A    
C219  H219  S    
C198  H166  S    
C226  H236  S    
C11   C111  A    
C31   C102  S    
C84   C85   S    
C56   C104  S    
C153  C154  S    
C115  H27   S    
O13   Zn2   S    
C55   O83   S    
C146  H36   S    
C255  H308  S    
C209  H194  S    
C191  C192  S    
C167  C168  S    
O114  C267  S    
O74   C187  S    
C223  H229  S    
C119  C135  A    
C15   C117  A    
C60   C61   S    
C70   H14   S    
C189  C190  S    
C182  H126  S    
C106  C122  A    
C79   C95   S    
O111  C261  S    
C216  H211  S    
C70   O98   S    
C51   C99   S    
C178  H116  S    
C127  Br23  S    
C4    O10   A    
C66   C71   S    
C155  C156  S    
C220  H222  S    
C206  H185  S    
C32   C103  S    
O27   Zn14  S    
C243  H278  S    
C179  H119  S    
C201  H174  S    
C252  H300  S    
C58   C90   S    
C58   O86   S    
C122  C138  A    
C109  H21   S    
C258  H316  S    
C73   Br1   S    
O33   Zn8   S    
C69   O97   S    
C62   C94   S    
C183  H128  S    
C3    O9    A    
C213  H204  S    
C214  H206  S    
C128  Br24  S    
C48   O76   S    
C168  H92   S    
C44   C45   S    
O41   Zn7   S    
C66   H10   S    
C236  H260  S    
C205  H183  S    
C25   O39   A    
C206  H187  S    
C229  H243  S    
C54   C102  S    
O58   C155  S    
C50   C55   S    
O108  C255  S    
C222  H227  S    
C113  H25   S    
C70   C102  S    
C177  H113  S    
C63   O91   S    
O29   Zn4   S    
C72   C104  S    
C259  H319  S    
C68   O96   S    
C175  C176  S    
C204  H181  S    
C17   C143  S    
O1    Zn10  S    
C208  H192  S    
C41   O53   S    
C252  H301  S    
C73   C89   S    
C136  C144  A    
C49   O61   S    
C19   N9    A    
C131  Br27  S    
C162  H77   S    
C227  C228  S    
C267  H338  S    
C250  H295  S    
O53   C145  S    
C42   O54   S    
C30   C101  S    
C77   C93   S    
C197  H164  S    
C106  H18   S    
O73   C185  S    
C261  H323  S    
C237  H264  S    
C112  C128  A    
C158  H66   S    
C41   C48   S    
C35   C90   S    
C5    C10   S    
C156  H60   S    
C157  H63   S    
O1    Zn1   S    
C147  H38   S    
C217  H214  S    
O21   Zn12  S    
C193  H154  S    
O66   C171  S    
C120  C136  A    
C56   O84   S    
C61   C93   S    
C178  H117  S    
C205  C206  S    
O6    Zn11  S    
C123  Br19  S    
C215  H209  S    
C27   C98   S    
C191  H148  S    
C11   C109  A    
C110  H22   S    
C154  H55   S    
O3    Zn16  S    
C195  C196  S    
O15   Zn4   S    
C177  C178  S    
C57   O85   S    
C184  H130  S    
C190  H145  S    
C52   O64   S    
C202  H176  S    
C115  C131  A    
O59   C157  S    
C125  C139  A    
C86   O114  S    
C21   N5    A    
C234  H256  S    
C203  C204  S    
C126  C140  A    
C210  H197  S    
O56   C151  S    
O25   Zn16  S    
C113  C129  A    
O60   C159  S    
C27   O23   A    
C2    O8    A    
C167  H89   S    
C166  H87   S    
O63   C165  S    
C121  Br17  S    
C268  H340  S    
C55   O67   S    
C151  H48   S    
N11   N13   A    
C163  H79   S    
O7    Zn12  S    
C4    O12   A    
C112  H24   S    
C55   C103  S    
O109  C257  S    
O54   C147  S    
C261  C262  S    
C204  H180  S    
O51   Zn13  S    
C194  H156  S    
C2    C13   S    
O16   Zn1   S    
C25   C100  S    
C200  H171  S    
C237  H263  S    
C165  H84   S    
C182  H125  S    
C195  H158  S    
C248  H291  S    
C181  C182  S    
O3    Zn7   S    
C65   H9    S    
C46   O58   S    
C253  H303  S    
C148  H41   S    
C184  H132  S    
C230  H246  S    
C202  H175  S    
O8    Zn9   S    
C236  H262  S    
C192  H152  S    
C29   O25   A    
C14   C114  A    
C268  H341  S    
C185  H134  S    
C246  H287  S    
C211  C212  S    
O92   C223  S    
C127  C139  A    
C256  H312  S    
C161  C162  S    
C263  H329  S    
O105  C249  S    
C152  H51   S    
C232  H251  S    
C216  H210  S    
C249  H294  S    
C265  H334  S    
C132  C142  A    
C221  H224  S    
C133  C143  A    
C146  H35   S    
C6    O14   A    
C199  H168  S    
O1    Zn12  S    
C20   C142  S    
C76   C77   S    
C198  H165  S    
O80   C199  S    
C254  H306  S    
C206  H186  S    
C207  H189  S    
C257  H313  S    
C158  H67   S    
C145  H34   S    
C154  H57   S    
C83   O111  S    
C267  C268  S    
C17   N13   A    
C258  H315  S    
C200  H172  S    
O94   C227  S    
C161  H73   S    
O46   Zn12  S    
C264  H331  S    
C133  Br29  S    
C260  H322  S    
C231  H249  S    
C271  H349  S    
O78   C195  S    
C207  H188  S    
C33   O47   A    
C35   O31   A    
O9    Zn14  S    
C126  Br22  S    
C77   O105  S    
C43   O55   S    
C247  C248  S    
C47   O75   S    
C252  H302  S    
C63   H7    S    
C214  H205  S    
C253  C254  S    
C41   O69   S    
C196  H160  S    
C162  H76   S    
C105  C121  A    
C75   O103  S    
C49   O77   S    
C244  H281  S    
C199  H169  S    
C270  H346  S    
C235  C236  S    
C174  H105  S    
C76   C92   S    
O35   Zn6   S    
C224  H232  S    
C109  C125  A    
C220  H220  S    
O4    Zn13  S    
C264  H332  S    
C245  H283  S    
C254  H307  S    
C149  H44   S    
O3    Zn14  S    
C80   C96   S    
O43   Zn5   S    
O18   Zn7   S    
C228  H242  S    
O38   Zn4   S    
C57   C64   S    
C152  H50   S    
C240  H270  S    
C210  H195  S    
C58   C63   S    
C114  H26   S    
C66   O94   S    
O104  C247  S    
C203  H178  S    
C59   C62   S    
C175  H109  S    
O49   Zn15  S    
C262  H327  S    
C2    O6    A    
O50   Zn16  S    
O107  C253  S    
C23   C137  S    
C53   O65   S    
C218  H217  S    
C68   H12   S    
C257  C258  S    
C118  C134  A    
C161  H74   S    
C58   H2    S    
O96   C231  S    
C269  H343  S    
C260  H321  S    
C49   C56   S    
C71   H15   S    
C170  H95   S    
C196  H162  S    
C72   H16   S    
O97   C233  S    
C21   N7    A    
C204  H182  S    
O82   C203  S    
C176  H112  S    
C4    C15   S    
C129  Br25  S    
O14   Zn3   S    
O20   Zn5   S    
C65   C97   S    
C52   O80   S    
C8    O20   A    
O67   C173  S    
C153  H54   S    
C251  C252  S    
C222  H225  S    
O68   C175  S    
C81   C97   S    
C8    C11   S    
C65   O93   S    
O3    Zn5   S    
C42   O70   S    
C194  H157  S    
C73   C80   S    
C181  H124  S    
C42   C47   S    
C223  C224  S    
C169  H93   S    
C75   C78   S    
C189  H144  S    
C256  H311  S    
C131  C141  A    
C5    O13   A    
C24   C138  S    
C245  C246  S    
C188  H140  S    
C207  C208  S    
C75   Br3   S    
C47   C95   S    
C211  H198  S    
C187  H138  S    
C67   C70   S    
C240  H271  S    
C242  H275  S    
O86   C211  S    
C241  H273  S    
C40   O50   A    
C34   O30   A    
N3    N5    A    
C148  H40   S    
