data_mof_unit_38816.cif
_audit_creation_date              2012-12-10T18:57:09-0500
_audit_creation_method            fapswitch 2.2
_symmetry_space_group_name_H-M    P1
_symmetry_Int_Tables_number       1
_space_group_crystal_system       triclinic
_cell_length_a                    8.805783
_cell_length_b                    10.856477
_cell_length_c                    9.555645
_cell_angle_alpha                 90.897537
_cell_angle_beta                  97.161263
_cell_angle_gamma                 90.377162
_cell_volume                      906.246656754

loop_
_atom_site_label
_atom_site_type_symbol
_atom_type_description
_atom_site_fract_x
_atom_site_fract_y
_atom_site_fract_z
_atom_type_partial_charge
C1    C     C_R   0.496274 0.262586 0.498622 0.792662
C2    C     C_R   0.455791 0.933532 0.371025 -0.211873
C3    C     C_R   0.488865 0.871480 0.499671 -0.069042
C4    C     C_R   0.500827 0.940401 0.625504 0.108755
C5    C     C_3   0.621428 0.944223 0.751557 -0.073506
C6    C     C_3   0.613117 0.083565 0.748645 -0.422362
C7    C     C_R   0.628977 0.531783 0.089130 0.264501
C8    C     C_R   0.381188 0.450906 0.059977 -0.082653
C9    C     C_R   0.382364 0.449604 0.911470 -0.098085
C10   C     C_R   0.629560 0.530412 0.942002 0.283122
C11   C     C_3   0.716592 0.648219 0.947690 -0.530978
C12   C     C_R   0.204177 0.498611 0.465066 0.879539
C13   C     C_3   0.714184 0.651045 0.106336 -0.499838
C14   C     C_R   0.499433 0.737877 0.500624 0.787480
C15   C     C_R   0.794827 0.497517 0.535556 0.883978
C16   C     C_2   0.039070 0.501290 0.448608 -0.415446
C17   C     C_2   0.957438 0.486398 0.557603 -0.018219
C18   C     C_R   0.495863 0.067192 0.623252 0.074732
C19   C     C_R   0.482415 0.129759 0.496412 -0.075359
C20   C     C_R   0.453063 0.062174 0.369337 -0.214475
Cu1   Cu    Cu3+1 0.499990 0.499980 0.640670 0.937013
Cu2   Cu    Cu3+1 0.500010 0.500020 0.359330 0.936511
H1    H     H_    0.982255 0.519329 0.343504 0.148373
H2    H     H_    0.289038 0.406709 0.845377 0.137413
H3    H     H_    0.832985 0.636456 0.916062 0.204465
H4    H     H_    0.647055 0.720533 0.892697 0.209489
H5    H     H_    0.644515 0.727306 0.143078 0.213056
H6    H     H_    0.434280 0.108161 0.268960 0.159624
H7    H     H_    0.437597 0.883325 0.271431 0.159546
N1    N     N_R   0.500980 0.500930 0.148050 -0.189379
N2    N     N_R   0.500990 0.500890 0.852140 -0.190066
O1    O     O_R   0.500000 0.319640 0.618810 -0.584776
O2    O     O_R   0.500020 0.319680 0.381230 -0.588068
O3    O     O_R   0.274830 0.499980 0.591380 -0.587036
O4    O     O_R   0.274850 0.500020 0.353800 -0.593253
O5    O     O_R   0.499980 0.680320 0.618770 -0.590390
O6    O     O_R   0.500000 0.680360 0.381190 -0.584924
O7    O     O_R   0.725150 0.499980 0.646200 -0.567631
O8    O     O_R   0.725170 0.500020 0.408620 -0.601823
H8    H     H_    0.829680 0.641421 0.166436 0.193729
N3    N     N_3   0.021818 0.453477 0.697294 -0.595832
H9    H     H_    0.087421 0.526678 0.745224 0.244411
H10   H     H_    0.083373 0.371943 0.691881 0.227978
H11   H     H_    0.582834 0.906523 0.848458 0.134893
N4    N     N_3   0.769855 0.899799 0.719371 -0.569974
H12   H     H_    0.761944 0.804676 0.701707 0.224613
H13   H     H_    0.848455 0.913700 0.809742 0.224347
H14   H     H_    0.563533 0.124046 0.840269 0.168497
H15   H     H_    0.719021 0.130177 0.723203 0.211028
H16   H     H_    0.283980 0.412364 0.103310 0.145234

loop_
_geom_bond_atom_site_label_1
_geom_bond_atom_site_label_2
_ccdc_geom_bond_type
C8    C9    A    
C7    C10   A    
C15   O7    A    
C2    C20   A    
N3    H10   S    
N3    H9    S    
C20   H6    S    
C19   C20   A    
C4    C18   A    
Cu1   N2    S    
C2    C3    A    
C8    N1    A    
C9    H2    S    
Cu1   O5    S    
C5    N4    S    
N4    H12   S    
C14   O6    A    
Cu2   O4    S    
C11   C13   S    
C15   O8    A    
C3    C14   S    
C6    H14   S    
C2    H7    S    
Cu2   O8    S    
C5    H11   S    
C16   H1    S    
N4    H13   S    
C6    H15   S    
C14   O5    A    
C5    C6    S    
C6    C18   S    
Cu1   O1    S    
C17   N3    S    
C1    C19   S    
C10   C11   S    
C11   H3    S    
C1    O2    A    
C3    C4    A    
C8    H16   S    
C7    C13   S    
C15   C17   S    
C18   C19   A    
C7    N1    A    
Cu2   O2    S    
C9    N2    A    
C4    C5    S    
C13   H8    S    
Cu1   O3    S    
Cu2   N1    S    
C11   H4    S    
Cu1   Cu2   S    
Cu2   O6    S    
C12   O3    A    
C10   N2    A    
C1    O1    A    
C13   H5    S    
Cu1   O7    S    
C12   C16   S    
C16   C17   D    
C12   O4    A    
