data_mof_unit_18705.cif
_audit_creation_date              2012-12-11T14:30:12-0500
_audit_creation_method            fapswitch 2.2
_symmetry_space_group_name_H-M    P1
_symmetry_Int_Tables_number       1
_space_group_crystal_system       triclinic
_cell_length_a                    12.686351
_cell_length_b                    12.686274
_cell_length_c                    27.099177
_cell_angle_alpha                 89.999848
_cell_angle_beta                  90.000074
_cell_angle_gamma                 120.00032
_cell_volume                      3777.07964886

loop_
_atom_site_label
_atom_site_type_symbol
_atom_type_description
_atom_site_fract_x
_atom_site_fract_y
_atom_site_fract_z
_atom_type_partial_charge
C1    C     C_R   0.556947 0.455777 0.821638 0.576864
C2    C     C_R   0.457385 0.564479 0.176129 0.556578
C3    C     C_R   0.063265 0.330402 0.488018 0.027452
C4    C     C_R   0.267133 0.936717 0.011980 0.027452
C5    C     C_R   0.669594 0.732857 0.488019 0.027446
C6    C     C_R   0.274525 0.913379 0.538585 0.010350
C7    C     C_R   0.086503 0.361041 0.961419 0.010361
C8    C     C_R   0.638971 0.725460 0.538580 0.010357
C9    C     C_R   0.274537 0.913494 0.961418 0.010360
C10   C     C_R   0.086483 0.361028 0.538580 0.010365
C11   C     C_R   0.638963 0.725464 0.961418 0.010361
C12   C     C_3   0.025434 0.199936 0.025530 -0.386078
C13   C     C_R   0.435521 0.892906 0.323871 0.556573
C14   C     C_3   0.174468 0.974464 0.474495 -0.386081
C15   C     C_3   0.800064 0.825498 0.025530 -0.386078
C16   C     C_3   0.025420 0.199924 0.474469 -0.386073
C17   C     C_3   0.174501 0.974561 0.025529 -0.386078
C18   C     C_3   0.800073 0.825480 0.474467 -0.386079
C19   C     C_3   0.158925 0.857351 0.569033 -0.367779
C20   C     C_3   0.142416 0.301375 0.930960 -0.367795
C21   C     C_3   0.698650 0.841041 0.569038 -0.367794
C22   C     C_3   0.158958 0.857581 0.930959 -0.367795
C23   C     C_3   0.142387 0.301357 0.569042 -0.367792
C24   C     C_R   0.107094 0.542615 0.176129 0.556577
C25   C     C_3   0.698634 0.841044 0.930959 -0.367795
C26   C     C_R   0.991335 0.485967 0.971958 0.025322
C27   C     C_R   0.494627 0.008629 0.528046 0.025322
C28   C     C_R   0.514034 0.505368 0.971958 0.025323
C29   C     C_R   0.991302 0.485940 0.528038 0.025308
C30   C     C_R   0.494631 0.008663 0.971958 0.025323
C31   C     C_R   0.514022 0.505365 0.528043 0.025319
C32   C     C_R   0.479779 0.997852 0.476391 0.027186
C33   C     C_R   0.898827 0.443052 0.678361 0.576875
C34   C     C_R   0.002112 0.481899 0.023613 0.027184
C35   C     C_R   0.518091 0.520208 0.476388 0.027180
C36   C     C_R   0.479786 0.997886 0.023613 0.027184
C37   C     C_R   0.002087 0.481878 0.476384 0.027188
C38   C     C_R   0.518101 0.520214 0.023613 0.027184
C39   C     C_R   0.879204 0.594107 0.983666 -0.133158
C40   C     C_R   0.714898 0.120796 0.516335 -0.133153
C41   C     C_R   0.405890 0.285096 0.983666 -0.133158
C42   C     C_R   0.879137 0.594045 0.516327 -0.133188
C43   C     C_R   0.714902 0.120794 0.983666 -0.133157
C44   C     C_R   0.544222 0.101169 0.821638 0.576864
C45   C     C_R   0.405843 0.285089 0.516337 -0.133155
C46   C     C_R   0.699361 0.100096 0.465769 -0.113449
C47   C     C_R   0.899903 0.599270 0.034232 -0.113453
C48   C     C_R   0.400680 0.300626 0.465771 -0.113445
C49   C     C_R   0.699366 0.100097 0.034232 -0.113451
C50   C     C_R   0.899850 0.599221 0.465761 -0.113481
C51   C     C_R   0.400727 0.300632 0.034232 -0.113452
C52   C     C_R   0.904976 0.534293 0.902085 -0.166837
C53   C     C_R   0.629313 0.095019 0.597916 -0.166831
C54   C     C_R   0.465706 0.370683 0.902085 -0.166836
C55   C     C_R   0.556946 0.455777 0.678361 0.576860
C56   C     C_R   0.904930 0.534253 0.597910 -0.166856
C57   C     C_R   0.629316 0.095022 0.902084 -0.166836
C58   C     C_R   0.465685 0.370681 0.597917 -0.166832
C59   C     C_R   0.568016 0.009096 0.395272 -0.142112
C60   C     C_R   0.990895 0.558915 0.104729 -0.142118
C61   C     C_R   0.441069 0.431976 0.395271 -0.142117
C62   C     C_R   0.568019 0.009105 0.104729 -0.142117
C63   C     C_R   0.990887 0.558909 0.395268 -0.142122
C64   C     C_R   0.441084 0.431980 0.104729 -0.142117
C65   C     C_R   0.055792 0.508000 0.125036 0.006939
C66   C     C_R   0.898831 0.443054 0.821638 0.576865
C67   C     C_R   0.452205 0.944200 0.374965 0.006939
C68   C     C_R   0.491999 0.547792 0.125036 0.006939
C69   C     C_R   0.055787 0.507997 0.374962 0.006936
C70   C     C_R   0.452208 0.944208 0.125036 0.006939
C71   C     C_R   0.491997 0.547788 0.374963 0.006932
C72   C     C_R   0.528772 0.045744 0.629557 0.011142
C73   C     C_R   0.954245 0.483019 0.870445 0.011139
C74   C     C_R   0.516977 0.471228 0.629555 0.011139
C75   C     C_R   0.528773 0.045753 0.870445 0.011141
C76   C     C_R   0.954225 0.483007 0.629551 0.011122
C77   C     C_R   0.544223 0.101169 0.678362 0.576863
C78   C     C_R   0.516981 0.471227 0.870445 0.011139
C79   C     C_R   0.927368 0.540881 0.952381 -0.000730
C80   C     C_R   0.613508 0.072618 0.547621 -0.000732
C81   C     C_R   0.459118 0.386487 0.952381 -0.000729
C82   C     C_R   0.927317 0.540837 0.547614 -0.000756
C83   C     C_R   0.613512 0.072630 0.952381 -0.000729
C84   C     C_R   0.459092 0.386483 0.547621 -0.000724
C85   C     C_R   0.582664 0.036272 0.445599 0.025408
C86   C     C_R   0.963713 0.546382 0.054404 0.025406
C87   C     C_R   0.453593 0.417325 0.445597 0.025410
C88   C     C_R   0.457385 0.564478 0.323871 0.556575
C89   C     C_R   0.582668 0.036287 0.054404 0.025406
C90   C     C_R   0.963685 0.546358 0.445592 0.025399
C91   C     C_R   0.453617 0.417330 0.054404 0.025406
C92   C     C_R   0.037538 0.450052 0.888219 0.077113
C93   C     C_R   0.412515 0.962427 0.611788 0.077123
C94   C     C_R   0.549950 0.587488 0.888219 0.077113
C95   C     C_R   0.037524 0.450049 0.611777 0.077084
C96   C     C_R   0.412513 0.962460 0.888218 0.077115
C97   C     C_R   0.549953 0.587489 0.611781 0.077116
C98   C     C_R   0.349324 0.930048 0.403953 0.087031
C99   C     C_R   0.435521 0.892906 0.176129 0.556576
C100  C     C_R   0.069932 0.419262 0.096049 0.087029
C101  C     C_R   0.580738 0.650665 0.403951 0.087027
C102  C     C_R   0.349329 0.930067 0.096049 0.087030
C103  C     C_R   0.069923 0.419254 0.403949 0.087029
C104  C     C_R   0.580737 0.650671 0.096049 0.087029
C105  C     C_R   0.044444 0.435843 0.940105 0.011606
C106  C     C_R   0.391396 0.955496 0.559901 0.011608
C107  C     C_R   0.564159 0.608602 0.940105 0.011605
C108  C     C_R   0.044422 0.435830 0.559891 0.011593
C109  C     C_R   0.391399 0.955554 0.940105 0.011606
C110  C     C_R   0.107093 0.542615 0.323871 0.556574
C111  C     C_R   0.564160 0.608600 0.559894 0.011600
C112  C     C_R   0.363947 0.955605 0.455555 0.014751
C113  C     C_R   0.044348 0.408305 0.044450 0.014748
C114  C     C_R   0.591695 0.636035 0.455550 0.014743
C115  C     C_R   0.363957 0.955650 0.044450 0.014748
C116  C     C_R   0.044332 0.408292 0.455547 0.014745
C117  C     C_R   0.591695 0.636043 0.044450 0.014748
C118  C     C_R   0.063280 0.330414 0.011980 0.027452
C119  C     C_R   0.267115 0.936627 0.488028 0.027451
C120  C     C_R   0.669587 0.732867 0.011980 0.027452
Cr1   Cr    Cr6+3 0.487630 0.241180 0.750000 1.073088
Cr2   Cr    Cr6+3 0.753550 0.512370 0.750000 1.073087
Cr3   Cr    Cr6+3 0.758820 0.246450 0.750000 1.073086
Cr4   Cr    Cr6+3 0.241180 0.487630 0.250000 1.105786
Cr5   Cr    Cr6+3 0.512370 0.753550 0.250000 1.105785
Cr6   Cr    Cr6+3 0.246450 0.758820 0.250000 1.105785
H1    H     H_    0.963756 0.610584 0.128032 0.151750
H2    H     H_    0.719885 0.155935 0.887888 0.141228
H3    H     H_    0.844008 0.563897 0.612107 0.141231
H4    H     H_    0.436048 0.280113 0.887888 0.141227
H5    H     H_    0.864479 0.642486 0.057963 0.123980
H6    H     H_    0.778002 0.135536 0.442038 0.123981
H7    H     H_    0.357510 0.221992 0.057963 0.123980
H8    H     H_    0.864415 0.642425 0.442029 0.123981
H9    H     H_    0.778006 0.135522 0.057963 0.123980
H10   H     H_    0.357441 0.221983 0.442041 0.123982
H11   H     H_    0.806101 0.172938 0.531169 0.117674
H12   H     H_    0.646825 0.036245 0.371969 0.151748
H13   H     H_    0.827076 0.633183 0.968832 0.117668
H14   H     H_    0.366748 0.193883 0.531172 0.117652
H15   H     H_    0.806106 0.172922 0.968831 0.117667
H16   H     H_    0.826992 0.633104 0.531160 0.117683
H17   H     H_    0.366813 0.193891 0.968832 0.117667
H18   H     H_    0.964985 0.167772 0.058073 0.162154
H19   H     H_    0.971231 0.136761 0.995311 0.106511
H20   H     H_    0.106426 0.190021 0.032038 0.160744
H21   H     H_    0.202760 0.034964 0.441966 0.162131
H22   H     H_    0.083572 0.893467 0.467968 0.160743
H23   H     H_    0.389414 0.353171 0.128032 0.151751
H24   H     H_    0.165459 0.028609 0.504730 0.106523
H25   H     H_    0.832226 0.797213 0.058075 0.162155
H26   H     H_    0.863241 0.834470 0.995312 0.106512
H27   H     H_    0.809981 0.916407 0.032038 0.160744
H28   H     H_    0.964974 0.167759 0.441924 0.162158
H29   H     H_    0.106412 0.190007 0.467962 0.160743
H30   H     H_    0.971213 0.136747 0.504687 0.106512
H31   H     H_    0.202785 0.035011 0.058072 0.162154
H32   H     H_    0.165527 0.028763 0.995310 0.106512
H33   H     H_    0.083594 0.893567 0.032038 0.160744
H34   H     H_    0.963756 0.610585 0.371966 0.151750
H35   H     H_    0.832229 0.797194 0.441921 0.162157
H36   H     H_    0.809999 0.916393 0.467961 0.160745
H37   H     H_    0.863249 0.834443 0.504684 0.106522
H38   H     H_    0.141437 0.768691 0.583784 0.182176
H39   H     H_    0.165703 0.920838 0.598658 0.152919
H40   H     H_    0.076068 0.834280 0.547489 0.122603
H41   H     H_    0.231112 0.372480 0.916215 0.182166
H42   H     H_    0.165380 0.241495 0.952488 0.122535
H43   H     H_    0.078907 0.244746 0.901328 0.152918
H44   H     H_    0.627553 0.858643 0.583783 0.182161
H45   H     H_    0.646827 0.036245 0.128032 0.151750
H46   H     H_    0.755275 0.834154 0.598670 0.152920
H47   H     H_    0.758535 0.923883 0.547509 0.122531
H48   H     H_    0.141366 0.768884 0.916214 0.182166
H49   H     H_    0.076114 0.834616 0.952488 0.122535
H50   H     H_    0.165839 0.921090 0.901327 0.152918
H51   H     H_    0.231089 0.372459 0.583784 0.182167
H52   H     H_    0.078878 0.244741 0.598676 0.152923
H53   H     H_    0.165339 0.241464 0.547516 0.122528
H54   H     H_    0.627531 0.858639 0.916214 0.182166
H55   H     H_    0.758516 0.923888 0.952487 0.122532
H56   H     H_    0.389395 0.353168 0.371969 0.151759
H57   H     H_    0.755260 0.834160 0.901327 0.152918
H58   H     H_    0.719881 0.155948 0.612112 0.141227
H59   H     H_    0.844064 0.563949 0.887888 0.141228
H60   H     H_    0.436017 0.280109 0.612115 0.141235
I1    I     I_    0.140756 0.308456 0.126958 -0.369372
I2    I     I_    0.289954 0.840149 0.833119 -0.263049
I3    I     I_    0.159858 0.449835 0.666874 -0.263070
I4    I     I_    0.550199 0.710048 0.833119 -0.263052
I5    I     I_    0.167704 0.859267 0.373039 -0.369362
I6    I     I_    0.691541 0.832302 0.126957 -0.369373
I7    I     I_    0.140743 0.308445 0.373040 -0.369364
I8    I     I_    0.167700 0.859244 0.126958 -0.369373
I9    I     I_    0.691542 0.832298 0.373044 -0.369369
I10   I     I_    0.289966 0.840162 0.666903 -0.263033
I11   I     I_    0.159848 0.449805 0.833119 -0.263054
I12   I     I_    0.550215 0.710057 0.666879 -0.263066
O1    O     O_R   0.460870 0.120930 0.805240 -0.487237
O2    O     O_R   0.120930 0.460870 0.194760 -0.472813
O3    O     O_R   0.539130 0.660060 0.305240 -0.472811
O4    O     O_R   0.339940 0.879070 0.194760 -0.472811
O5    O     O_R   0.498910 0.350470 0.801870 -0.500517
O6    O     O_R   0.851560 0.501090 0.698130 -0.500516
O7    O     O_R   0.649530 0.148440 0.801870 -0.500517
O8    O     O_R   0.498910 0.350470 0.698130 -0.500518
O9    O     O_R   0.851560 0.501090 0.801870 -0.500517
O10   O     O_R   0.649530 0.148440 0.698130 -0.500519
O11   O     O_R   0.350470 0.498910 0.301870 -0.473064
O12   O     O_R   0.660060 0.539130 0.694760 -0.487239
O13   O     O_R   0.501090 0.851560 0.198130 -0.473061
O14   O     O_R   0.148440 0.649530 0.301870 -0.473064
O15   O     O_R   0.350470 0.498910 0.198130 -0.473061
O16   O     O_R   0.501090 0.851560 0.301870 -0.473061
O17   O     O_R   0.148440 0.649530 0.198130 -0.473060
O18   O     O_3   0.666667 0.333333 0.750000 -0.277307
O19   O     O_3   0.333333 0.666667 0.250000 -0.278332
O20   O     O_R   0.879070 0.339940 0.805240 -0.487239
O21   O     O_R   0.460870 0.120930 0.694760 -0.487232
O22   O     O_R   0.660060 0.539130 0.805240 -0.487239
O23   O     O_R   0.879070 0.339940 0.694760 -0.487237
O24   O     O_R   0.120930 0.460870 0.305240 -0.472813
O25   O     O_R   0.539130 0.660060 0.194760 -0.472813
O26   O     O_R   0.339940 0.879070 0.305240 -0.472810

loop_
_geom_bond_atom_site_label_1
_geom_bond_atom_site_label_2
_ccdc_geom_bond_type
C36   C89   A    
C12   H19   S    
C71   C88   S    
C56   C76   A    
C5    C114  A    
C58   H60   S    
C43   C83   A    
C96   I2    S    
C4    C115  A    
C10   C108  A    
C42   C82   A    
C59   H12   S    
C44   O7    A    
C57   H2    S    
C15   H25   S    
C22   H49   S    
Cr5   O13   S    
C25   H54   S    
Cr6   O17   S    
C37   C116  A    
C99   O13   A    
Cr6   O4    S    
C34   C113  A    
C40   C46   A    
C62   H45   S    
Cr3   O23   S    
Cr5   O3    S    
C61   H56   S    
C51   H7    S    
Cr2   O22   S    
C37   C90   A    
C64   C68   A    
C41   H17   S    
C2    C68   S    
C3    C116  A    
C76   C95   A    
C46   H6    S    
C97   C111  A    
C24   O17   A    
Cr6   O26   S    
C9    C22   S    
Cr4   O11   S    
C11   C25   S    
C28   C107  A    
C12   H20   S    
C21   H44   S    
C104  I6    S    
C62   C89   A    
C14   H22   S    
C15   C120  S    
C62   C70   A    
C35   C114  A    
C34   C86   A    
Cr2   O6    S    
C30   C83   A    
C55   O8    A    
Cr1   O1    S    
C23   H52   S    
C102  C115  A    
C61   C87   A    
C67   C98   A    
C51   C91   A    
C55   C74   S    
C35   C87   A    
C50   C90   A    
C63   C69   A    
C25   H55   S    
C42   H16   S    
C40   C80   A    
C29   C108  A    
C33   O23   A    
C19   H40   S    
C88   O3    A    
C52   C79   A    
C17   H31   S    
C53   C72   A    
C23   H53   S    
C56   H3    S    
Cr6   O19   S    
C97   I12   S    
C46   C85   A    
C59   C67   A    
C61   C71   A    
Cr5   O25   S    
C20   H43   S    
C71   C101  A    
Cr3   O18   S    
C101  C114  A    
C38   C117  A    
C7    C118  A    
Cr1   O8    S    
C54   H4    S    
C11   C120  A    
C102  I8    S    
C26   C105  A    
C15   H26   S    
C22   H48   S    
C26   C34   A    
C75   C96   A    
C74   C97   A    
Cr4   O15   S    
C69   C103  A    
C9    C109  A    
C20   H42   S    
C39   H13   S    
C94   C107  A    
C98   C112  A    
C100  C113  A    
C30   C109  A    
C1    C78   S    
C15   H27   S    
Cr1   O18   S    
C8    C111  A    
C53   C80   A    
Cr1   O5    S    
C27   C80   A    
C50   H8    S    
C117  C120  A    
C60   C86   A    
C43   C49   A    
C5    C18   S    
Cr3   O7    S    
C66   C73   S    
C38   C91   A    
C7    C20   S    
C45   H14   S    
C31   C84   A    
C12   H18   S    
C47   H5    S    
C39   C79   A    
C13   O16   A    
C44   C75   S    
C94   I4    S    
C16   H30   S    
C72   C77   S    
C6    C19   S    
C58   C84   A    
C93   C106  A    
C5    C8    A    
Cr5   O16   S    
C33   C76   S    
C110  O14   A    
C28   C38   A    
C41   C81   A    
C40   H11   S    
C14   H24   S    
C16   H29   S    
Cr2   O12   S    
C8    C21   S    
C6    C106  A    
C48   C87   A    
C57   C83   A    
C17   H32   S    
C24   C65   S    
C42   C50   A    
C12   C118  S    
C4    C17   S    
C69   C110  S    
Cr4   O24   S    
C60   C65   A    
C52   C73   A    
C21   H47   S    
C88   O11   A    
C99   O4    A    
C16   H28   S    
C31   C35   A    
C53   H58   S    
C93   I10   S    
C52   H59   S    
C72   C93   A    
C13   O26   A    
C92   I11   S    
C1    O5    A    
C6    C119  A    
C70   C99   S    
C58   C74   A    
C39   C47   A    
C104  C117  A    
C13   C67   S    
C45   C48   A    
C20   H41   S    
Cr4   O19   S    
C32   C112  A    
C27   C32   A    
Cr1   O21   S    
Cr2   O9    S    
C48   H10   S    
C60   H1    S    
C77   O21   A    
Cr3   O20   S    
C68   C104  A    
C73   C92   A    
C49   C89   A    
C98   I5    S    
C65   C100  A    
C112  C119  A    
C22   H50   S    
C70   C102  A    
C56   C82   A    
C44   O1    A    
C10   C23   S    
C21   H46   S    
C19   H39   S    
C96   C109  A    
Cr4   O2    S    
C33   O6    A    
C63   H34   S    
C26   C79   A    
C27   C106  A    
C100  I1    S    
C30   C36   A    
C64   H23   S    
C57   C75   A    
C47   C86   A    
C28   C81   A    
C29   C82   A    
C66   O20   A    
C3    C10   A    
Cr6   O14   S    
C55   O12   A    
C11   C107  A    
C66   O9    A    
C18   H36   S    
C18   H37   S    
C78   C94   A    
C32   C85   A    
C14   H21   S    
C63   C90   A    
C2    O25   A    
C18   H35   S    
Cr2   O18   S    
Cr3   O10   S    
C103  C116  A    
C1    O22   A    
C19   H38   S    
C49   H9    S    
C17   H33   S    
C23   H51   S    
C43   H15   S    
C95   C108  A    
C95   I3    S    
C113  C118  A    
C45   C84   A    
C25   H57   S    
C92   C105  A    
C77   O10   A    
C24   O2    A    
C2    O15   A    
C14   C119  S    
C7    C105  A    
C29   C37   A    
C31   C111  A    
C103  I7    S    
C64   C91   A    
C4    C9    A    
C36   C115  A    
C59   C85   A    
C41   C51   A    
C54   C81   A    
C3    C16   S    
C101  I9    S    
Cr5   O19   S    
C54   C78   A    
C110  O24   A    
