data_mof_unit_15451.cif
_audit_creation_date              2012-12-10T19:03:05-0500
_audit_creation_method            fapswitch 2.2
_symmetry_space_group_name_H-M    P1
_symmetry_Int_Tables_number       1
_space_group_crystal_system       triclinic
_cell_length_a                    10.789027
_cell_length_b                    10.84467
_cell_length_c                    9.60866
_cell_angle_alpha                 91.015539
_cell_angle_beta                  90.84865
_cell_angle_gamma                 89.372855
_cell_volume                      1123.88218487

loop_
_atom_site_label
_atom_site_type_symbol
_atom_type_description
_atom_site_fract_x
_atom_site_fract_y
_atom_site_fract_z
_atom_type_partial_charge
C1    C     C_R   0.497718 0.262349 0.498289 0.841880
C2    C     C_3   0.877550 0.501837 0.497442 -0.086421
C3    C     C_3   0.924306 0.614439 0.411971 0.345963
C4    C     C_3   0.931623 0.380935 0.428112 0.286828
C5    C     C_R   0.486219 0.066007 0.618944 -0.035098
C6    C     C_R   0.483435 0.128994 0.494259 -0.189869
C7    C     C_R   0.456104 0.061331 0.369804 0.138497
C8    C     C_R   0.446251 0.932105 0.373844 0.444007
C9    C     C_R   0.475001 0.870124 0.499456 -0.274328
C10   C     C_R   0.480182 0.939794 0.622328 -0.049354
C11   C     C_3   0.563680 0.935788 0.749525 0.393681
C12   C     C_R   0.260210 0.504007 0.499640 0.778033
C13   C     C_3   0.571511 0.075795 0.742241 -0.457188
C14   C     C_R   0.544940 0.598568 0.076663 0.243413
C15   C     C_R   0.437594 0.413494 0.071434 -0.083332
C16   C     C_R   0.436877 0.413905 0.922935 -0.085935
C17   C     C_R   0.554587 0.593132 0.930445 0.237489
C18   C     C_3   0.689878 0.627102 0.942333 0.269725
C19   C     C_3   0.669120 0.652016 0.097046 -0.482892
C20   C     C_R   0.494856 0.737393 0.500539 0.817402
C21   C     C_R   0.739800 0.498315 0.499962 0.839362
C22   C     C_3   0.071987 0.493296 0.649403 -0.425837
C23   C     C_3   0.930878 0.506673 0.647642 -0.487953
C24   C     C_3   0.067107 0.629370 0.428766 0.318345
C25   C     C_3   0.074616 0.394826 0.414703 -0.531414
C26   C     C_3   0.122385 0.509169 0.500257 -0.029184
Cu1   Cu    Cu3+1 0.499990 0.499980 0.640670 0.949306
Cu2   Cu    Cu3+1 0.500010 0.500020 0.359330 0.981097
H1    H     H_    0.113612 0.556092 0.728439 0.183964
H2    H     H_    0.104483 0.625511 0.321234 0.045165
H3    H     H_    0.911942 0.583975 0.302348 0.089004
H4    H     H_    0.653808 0.889414 0.729422 0.048746
H5    H     H_    0.527807 0.126505 0.830259 0.202343
H6    H     H_    0.665116 0.108579 0.714421 0.150441
H7    H     H_    0.388071 0.342572 0.124363 0.155695
H8    H     H_    0.097268 0.399359 0.686416 0.179491
H9    H     H_    0.387114 0.342883 0.865650 0.133017
H10   H     H_    0.713750 0.709474 0.881252 0.083908
H11   H     H_    0.727050 0.598060 0.169093 0.243235
H12   H     H_    0.663340 0.751963 0.124364 0.197183
H13   H     H_    0.892174 0.428784 0.706317 0.223884
H14   H     H_    0.904204 0.593485 0.701302 0.215233
H15   H     H_    0.099190 0.404552 0.303298 0.190890
H16   H     H_    0.120971 0.308778 0.451349 0.154261
H17   H     H_    0.912376 0.303298 0.499534 0.095099
N1    N     N_R   0.500800 0.500930 0.147930 -0.176415
N2    N     N_R   0.500800 0.500890 0.852020 -0.177807
O1    O     O_R   0.500000 0.319640 0.618810 -0.584391
O2    O     O_R   0.500010 0.319680 0.381230 -0.549376
O3    O     O_R   0.317690 0.499960 0.618790 -0.601074
O4    O     O_R   0.317700 0.500000 0.381210 -0.606212
O5    O     O_R   0.499990 0.680320 0.618770 -0.603244
O6    O     O_R   0.500000 0.680360 0.381190 -0.526987
O7    O     O_R   0.682300 0.500000 0.618790 -0.570599
O8    O     O_R   0.682310 0.500040 0.381210 -0.545066
O9    O     O_3   0.876248 0.359032 0.295051 -0.574628
C27   C     C_3   0.890660 0.234020 0.254319 -0.328905
H18   H     H_    0.848973 0.221129 0.148915 0.195840
H19   H     H_    0.841701 0.172456 0.326224 0.151719
H20   H     H_    0.990063 0.206739 0.247913 0.158898
N3    N     N_2   0.445589 0.120540 0.239159 -0.414112
H21   H     H_    0.370981 0.091613 0.179201 0.248687
C28   C     C_3   0.559558 0.119018 0.161651 -0.587577
H22   H     H_    0.585642 0.023132 0.130558 0.257187
H23   H     H_    0.635427 0.160253 0.225323 0.229006
H24   H     H_    0.547334 0.174390 0.066668 0.206434
O10   O     O_3   0.423057 0.868064 0.250455 -0.572792
C29   C     C_3   0.299099 0.828172 0.250301 -0.294249
H25   H     H_    0.282683 0.765911 0.337768 0.210339
H26   H     H_    0.280550 0.773084 0.154091 0.158180
H27   H     H_    0.233064 0.907750 0.253027 0.151267
O11   O     O_3   0.511539 0.895501 0.876274 -0.574464
C30   C     C_3   0.381161 0.908940 0.881723 -0.300069
H28   H     H_    0.347469 0.000465 0.846136 0.148018
H29   H     H_    0.352902 0.902554 0.990837 0.206768
H30   H     H_    0.335948 0.833204 0.821529 0.159211
O12   O     O_3   0.767683 0.522743 0.918001 -0.536894
C31   C     C_3   0.888917 0.544206 0.971626 -0.345774
H31   H     H_    0.895124 0.522570 0.083070 0.202771
H32   H     H_    0.921652 0.639455 0.952758 0.133637
H33   H     H_    0.954909 0.478229 0.923260 0.177218
O13   O     O_3   0.095689 0.751950 0.475577 -0.572689
C32   C     C_3   0.160195 0.766915 0.602898 -0.374448
H34   H     H_    0.101079 0.748015 0.692753 0.151211
H35   H     H_    0.184487 0.865757 0.613854 0.179424
H36   H     H_    0.249325 0.717036 0.605474 0.176024
O14   O     O_3   0.853845 0.726699 0.413353 -0.568376
C33   C     C_3   0.827360 0.776170 0.546245 -0.254022
H37   H     H_    0.753655 0.724186 0.597007 0.139151
H38   H     H_    0.909492 0.783960 0.614823 0.181655
H39   H     H_    0.791103 0.871323 0.532430 0.159740

loop_
_geom_bond_atom_site_label_1
_geom_bond_atom_site_label_2
_ccdc_geom_bond_type
Cu1   O1    S    
O14   C33   S    
C28   H23   S    
C22   H1    S    
C30   H28   S    
C25   H15   S    
C4    C25   S    
Cu1   O7    S    
C7    C8    A    
C14   N1    A    
O12   C31   S    
Cu2   N1    S    
C23   H14   S    
C24   C26   S    
C18   O12   S    
C5    C6    A    
Cu2   O4    S    
C31   H32   S    
C27   H19   S    
C15   C16   A    
O9    C27   S    
C25   H16   S    
C18   C19   S    
N3    C28   S    
C24   O13   S    
C7    N3    S    
C29   H25   S    
C8    C9    A    
C9    C10   A    
C5    C13   S    
Cu1   O3    S    
C16   H9    S    
C28   H24   S    
C4    O9    S    
C30   H29   S    
C14   C17   A    
C3    C24   S    
C16   N2    A    
C15   H7    S    
Cu2   O8    S    
C4    H17   S    
C3    O14   S    
O10   C29   S    
C10   C11   S    
C21   O8    A    
C11   O11   S    
C20   O6    A    
C27   H20   S    
C25   C26   S    
C1    C6    S    
C12   C26   S    
C2    C4    S    
C13   H5    S    
Cu2   O2    S    
C9    C20   S    
C32   H34   S    
C33   H39   S    
C2    C21   S    
C17   C18   S    
C3    H3    S    
C19   H11   S    
C32   H35   S    
C33   H38   S    
C11   H4    S    
C30   H30   S    
C2    C23   S    
C12   O4    A    
Cu1   O5    S    
Cu1   N2    S    
C31   H31   S    
C14   C19   S    
C17   N2    A    
O11   C30   S    
C12   O3    A    
Cu2   O6    S    
C1    O1    A    
C6    C7    A    
C22   H8    S    
C23   H13   S    
C2    C3    S    
C18   H10   S    
C13   H6    S    
C20   O5    A    
C11   C13   S    
C31   H33   S    
C27   H18   S    
C21   O7    A    
C29   H27   S    
N3    H21   S    
C24   H2    S    
C19   H12   S    
C28   H22   S    
C5    C10   A    
C32   H36   S    
C33   H37   S    
C8    O10   S    
C29   H26   S    
O13   C32   S    
C22   C26   S    
Cu1   Cu2   S    
C22   C23   S    
C15   N1    A    
C1    O2    A    
