data_mof_unit_29869.cif
_audit_creation_date              2013-03-05T15:48:16-0500
_audit_creation_method            fapswitch 2.2
_symmetry_space_group_name_H-M    P1
_symmetry_Int_Tables_number       1
_space_group_crystal_system       triclinic
_cell_length_a                    15.735767
_cell_length_b                    15.737662
_cell_length_c                    34.428663
_cell_angle_alpha                 89.805373
_cell_angle_beta                  89.811871
_cell_angle_gamma                 119.938726
_cell_volume                      7388.17313591

loop_
_atom_site_label
_atom_site_type_symbol
_atom_site_description
_atom_site_fract_x
_atom_site_fract_y
_atom_site_fract_z
_atom_type_partial_charge
O1    O     O_R   0.498680 0.159540 0.541860 -0.472041
O2    O     O_R   0.840460 0.339140 0.541860 -0.473294
O3    O     O_R   0.660860 0.501320 0.541860 -0.496300
O4    O     O_R   0.159540 0.498680 0.041860 -0.472481
O5    O     O_R   0.339140 0.840460 0.041860 -0.473787
O6    O     O_R   0.501320 0.660860 0.041860 -0.496111
O7    O     O_R   0.532760 0.358060 0.540030 -0.475408
O8    O     O_R   0.641940 0.174700 0.540030 -0.476724
O9    O     O_R   0.825300 0.467240 0.540030 -0.475991
O10   O     O_R   0.358060 0.532760 0.040030 -0.475398
O11   O     O_R   0.174700 0.641940 0.040030 -0.476611
O12   O     O_R   0.467240 0.825300 0.040030 -0.476172
C1    C     C_R   0.577058 0.441370 0.554798 0.571486
C2    C     C_R   0.557968 0.135600 0.554888 0.575508
C3    C     C_R   0.864942 0.422186 0.554620 0.583061
C4    C     C_R   0.441410 0.577030 0.054766 0.571248
C5    C     C_R   0.135560 0.557956 0.054864 0.575428
C6    C     C_R   0.422327 0.865237 0.054465 0.582908
O13   O     O_R   0.498590 0.161190 0.456930 -0.460722
O14   O     O_R   0.838810 0.337400 0.456930 -0.466397
O15   O     O_R   0.662600 0.501410 0.456930 -0.464408
O16   O     O_R   0.161190 0.498590 0.956930 -0.464032
O17   O     O_R   0.337400 0.838810 0.956930 -0.465780
O18   O     O_R   0.501410 0.662600 0.956930 -0.464167
O19   O     O_R   0.532680 0.359580 0.461300 -0.475257
O20   O     O_R   0.640420 0.173100 0.461300 -0.479467
O21   O     O_R   0.826900 0.467320 0.461300 -0.471665
O22   O     O_R   0.359580 0.532680 0.961300 -0.475808
O23   O     O_R   0.173100 0.640420 0.961300 -0.477756
O24   O     O_R   0.467320 0.826900 0.961300 -0.471693
C7    C     C_R   0.577155 0.443335 0.446000 0.582892
C8    C     C_R   0.557299 0.133939 0.445957 0.583265
C9    C     C_R   0.866133 0.423163 0.445886 0.582012
C10   C     C_R   0.443366 0.577145 0.946010 0.582811
C11   C     C_R   0.134257 0.557439 0.945811 0.579501
C12   C     C_R   0.423162 0.866125 0.945876 0.582481
Cr1   Cr    Cr6+3 0.522350 0.263930 0.500020 1.109264
Cr2   Cr    Cr6+3 0.736070 0.258420 0.500020 1.111384
Cr3   Cr    Cr6+3 0.741580 0.477650 0.500020 1.112371
Cr4   Cr    Cr6+3 0.263930 0.522350 0.000020 1.107948
Cr5   Cr    Cr6+3 0.258420 0.736070 0.000020 1.111434
Cr6   Cr    Cr6+3 0.477650 0.741580 0.000020 1.112955
O25   O     O_3   0.666667 0.333333 0.499990 -0.288378
O26   O     O_3   0.333333 0.666667 0.999990 -0.287996
N1    N     N_R   0.005743 0.427518 0.771082 -0.220328
N2    N     N_R   0.478827 0.411886 0.776135 -0.220842
N3    N     N_R   0.429009 0.013536 0.774019 -0.218687
N4    N     N_R   0.427591 0.010090 0.269133 -0.189212
N5    N     N_R   0.581486 0.580078 0.271905 -0.225689
N6    N     N_R   0.011308 0.428133 0.273754 -0.219440
N7    N     N_R   0.002882 0.426233 0.732451 -0.225028
N8    N     N_R   0.479872 0.406225 0.737699 -0.224920
N9    N     N_R   0.432070 0.018119 0.735391 -0.224613
N10   N     N_R   0.426116 0.006387 0.230530 -0.224324
N11   N     N_R   0.575981 0.580992 0.233325 -0.223452
N12   N     N_R   0.015822 0.431253 0.235127 -0.224897
C13   C     C_R   0.923339 0.456369 0.590953 0.056698
C14   C     C_R   0.541900 0.457762 0.592512 0.045347
C15   C     C_R   0.538531 0.082477 0.592520 0.049736
C16   C     C_R   0.457573 0.925823 0.090170 0.056637
C17   C     C_R   0.457918 0.541733 0.092412 0.045401
C18   C     C_R   0.082111 0.538420 0.092409 0.049637
C19   C     C_R   0.957639 0.398600 0.609626 0.059932
C20   C     C_R   0.582792 0.552501 0.608619 0.037031
C21   C     C_R   0.445854 0.042891 0.611061 0.053111
C22   C     C_R   0.400720 0.962054 0.108234 0.060441
C23   C     C_R   0.552671 0.582875 0.108537 0.037262
C24   C     C_R   0.042182 0.445640 0.110886 0.053145
C25   C     C_R   0.981475 0.412412 0.648989 -0.109284
C26   C     C_R   0.577048 0.563157 0.648737 -0.113325
C27   C     C_R   0.438215 0.027375 0.651203 -0.113715
C28   C     C_R   0.416402 0.989735 0.147154 -0.108024
C29   C     C_R   0.563293 0.577022 0.148648 -0.113649
C30   C     C_R   0.026007 0.437788 0.150983 -0.113266
C31   C     C_R   0.976982 0.486198 0.669859 -0.013880
C32   C     C_R   0.527247 0.480324 0.672826 -0.012690
C33   C     C_R   0.520839 0.047296 0.673176 -0.012777
C34   C     C_R   0.491194 0.987351 0.168081 -0.012799
C35   C     C_R   0.480437 0.526701 0.172681 -0.012939
C36   C     C_R   0.045672 0.520303 0.172963 -0.012887
C37   C     C_R   0.960818 0.554164 0.649737 -0.109017
C38   C     C_R   0.474104 0.387763 0.655871 -0.113347
C39   C     C_R   0.608716 0.071916 0.653979 -0.111204
C40   C     C_R   0.558222 0.969168 0.148313 -0.108764
C41   C     C_R   0.387948 0.473265 0.155683 -0.113557
C42   C     C_R   0.070689 0.608311 0.153801 -0.110691
C43   C     C_R   0.933860 0.540002 0.610567 0.099277
C44   C     C_R   0.478758 0.375745 0.616023 0.100040
C45   C     C_R   0.617934 0.087377 0.613863 0.101485
C46   C     C_R   0.541979 0.937930 0.109680 0.099011
C47   C     C_R   0.375944 0.478170 0.115857 0.099980
C48   C     C_R   0.086830 0.617766 0.113731 0.101437
N13   N     N_R   0.968279 0.554273 0.732884 -0.223477
N14   N     N_R   0.578581 0.576622 0.733351 -0.222891
N15   N     N_R   0.598356 0.065695 0.736691 -0.223657
N16   N     N_R   0.566960 0.992380 0.230888 -0.224083
N17   N     N_R   0.406570 0.475950 0.237410 -0.225208
N18   N     N_R   0.064052 0.597675 0.236490 -0.220110
N19   N     N_R   0.970964 0.555397 0.771469 -0.223264
N20   N     N_R   0.577646 0.582285 0.771922 -0.224309
N21   N     N_R   0.595295 0.061145 0.775235 -0.222984
N22   N     N_R   0.568341 0.996092 0.269441 -0.231026
N23   N     N_R   0.412078 0.474989 0.275845 -0.221581
N24   N     N_R   0.059582 0.594557 0.275033 -0.218013
C49   C     C_R   0.989086 0.491598 0.791364 0.346404
C50   C     C_R   0.527778 0.499980 0.793967 0.339153
C51   C     C_R   0.510601 0.035043 0.794652 0.344561
C52   C     C_R   0.498414 0.004521 0.289412 0.372535
C53   C     C_R   0.499580 0.527074 0.293830 0.339743
C54   C     C_R   0.033240 0.509778 0.294417 0.344593
C55   C     C_R   0.984905 0.490204 0.712565 0.353474
C56   C     C_R   0.528585 0.488376 0.715481 0.352396
C57   C     C_R   0.516612 0.043044 0.715956 0.353030
C58   C     C_R   0.496245 0.998171 0.210627 0.350174
C59   C     C_R   0.488360 0.527821 0.215325 0.352492
C60   C     C_R   0.041084 0.515909 0.215728 0.352291
C61   C     C_R   0.984747 0.420726 0.858049 0.145829
C62   C     C_R   0.590324 0.569063 0.860656 0.143430
C63   C     C_R   0.441017 0.029181 0.861506 0.145552
C64   C     C_R   0.424557 0.996754 0.355994 0.138414
C65   C     C_R   0.568804 0.589983 0.360568 0.143339
C66   C     C_R   0.027735 0.440024 0.361194 0.145061
C67   C     C_R   0.016732 0.438148 0.896973 0.120109
C68   C     C_R   0.567955 0.580389 0.899337 0.121356
C69   C     C_R   0.424464 0.991023 0.899667 0.118474
C70   C     C_R   0.439599 0.020838 0.395870 0.088381
C71   C     C_R   0.580197 0.567707 0.399262 0.120967
C72   C     C_R   0.990229 0.423836 0.399444 0.117388
C73   C     C_R   0.075764 0.612429 0.887845 0.052945
C74   C     C_R   0.394694 0.466499 0.887644 0.051878
C75   C     C_R   0.537353 0.929923 0.888026 0.053156
C76   C     C_R   0.613847 0.078766 0.387704 0.053121
C77   C     C_R   0.466849 0.394371 0.387562 0.052139
C78   C     C_R   0.929906 0.537470 0.388083 0.051763
C79   C     C_R   0.042119 0.594184 0.849872 -0.123187
C80   C     C_R   0.418024 0.451931 0.850282 -0.120390
C81   C     C_R   0.555880 0.971020 0.851078 -0.121498
C82   C     C_R   0.597790 0.051432 0.348988 -0.132994
C83   C     C_R   0.452227 0.417548 0.350201 -0.121435
C84   C     C_R   0.970472 0.555708 0.351046 -0.124254
C85   C     C_R   0.003060 0.500784 0.833805 -0.006001
C86   C     C_R   0.513443 0.506741 0.835727 -0.004757
C87   C     C_R   0.503876 0.014589 0.836599 -0.004332
C88   C     C_R   0.505774 0.017059 0.332047 0.016690
C89   C     C_R   0.506678 0.512989 0.335618 -0.004911
C90   C     C_R   0.013286 0.503162 0.336395 -0.004913
C91   C     C_R   0.072025 0.535669 0.910773 0.000972
C92   C     C_R   0.468673 0.537716 0.911588 0.002739
C93   C     C_R   0.464695 0.932114 0.911688 0.001673
C94   C     C_R   0.536351 0.073324 0.410559 0.012934
C95   C     C_R   0.537771 0.468483 0.411530 0.003082
C96   C     C_R   0.931925 0.464582 0.411652 0.001028
H1    H     H_    0.001148 0.363479 0.663429 0.164007
H2    H     H_    0.612402 0.636072 0.660995 0.164505
H3    H     H_    0.367835 0.001735 0.665249 0.164148
H4    H     H_    0.368177 0.010853 0.161259 0.164380
H5    H     H_    0.636185 0.612537 0.160943 0.164321
H6    H     H_    0.000152 0.367345 0.164998 0.164436
H7    H     H_    0.965267 0.616563 0.664775 0.147850
H8    H     H_    0.429478 0.323474 0.673610 0.145611
H9    H     H_    0.671684 0.081357 0.670214 0.144622
H10   H     H_    0.621011 0.974430 0.163336 0.148697
H11   H     H_    0.323654 0.428366 0.173380 0.145712
H12   H     H_    0.079993 0.671218 0.170035 0.145881
H13   H     H_    0.051787 0.655333 0.832082 0.167647
H14   H     H_    0.359527 0.400916 0.831613 0.164794
H15   H     H_    0.607226 0.963013 0.832557 0.166918
H16   H     H_    0.659681 0.061643 0.331579 0.167163
H17   H     H_    0.401412 0.358846 0.331564 0.163885
H18   H     H_    0.962612 0.607269 0.332604 0.167233
I1    I     I_    0.980876 0.291337 0.581522 -0.322050
I2    I     I_    0.645222 0.681767 0.573874 -0.337780
I3    I     I_    0.312561 0.000196 0.581113 -0.322539
I4    I     I_    0.291600 0.982203 0.079983 -0.320892
I5    I     I_    0.682004 0.645609 0.073815 -0.337038
I6    I     I_    0.000123 0.312499 0.080935 -0.324014
N25   N     N_2   0.919074 0.610991 0.590888 -0.493337
H19   H     H_    0.982272 0.678351 0.589022 0.269478
C97   C     C_3   0.836719 0.619101 0.604790 -0.249551
H20   H     H_    0.851477 0.652346 0.634153 0.131374
H21   H     H_    0.769456 0.545783 0.605868 0.176122
H22   H     H_    0.824803 0.667084 0.584637 0.198403
N26   N     N_2   0.421472 0.280186 0.600166 -0.483556
H23   H     H_    0.408826 0.223952 0.619045 0.259843
C98   C     C_3   0.332480 0.264622 0.581596 -0.232667
H24   H     H_    0.281695 0.267075 0.603496 0.149880
H25   H     H_    0.295627 0.191793 0.567417 0.184819
H26   H     H_    0.349261 0.321349 0.558918 0.171819
N27   N     N_2   0.708987 0.112233 0.595725 -0.484375
H27   H     H_    0.768612 0.144945 0.613973 0.265866
C99   C     C_3   0.707222 0.033395 0.573582 -0.234815
H28   H     H_    0.694342 0.971810 0.593211 0.156839
H29   H     H_    0.778764 0.060487 0.558544 0.181417
H30   H     H_    0.648764 0.006425 0.551254 0.171098
N28   N     N_2   0.611285 0.919575 0.090587 -0.492399
H31   H     H_    0.679840 0.981257 0.088764 0.269289
C100  C     C_3   0.615761 0.835900 0.105375 -0.250322
H32   H     H_    0.647078 0.850272 0.135084 0.131508
H33   H     H_    0.663805 0.821990 0.086062 0.198097
H34   H     H_    0.541456 0.769908 0.106004 0.175310
N29   N     N_2   0.280406 0.420826 0.099972 -0.483408
H35   H     H_    0.224102 0.407900 0.118863 0.260070
C101  C     C_3   0.265055 0.332085 0.081261 -0.232909
H36   H     H_    0.267712 0.281222 0.103066 0.149721
H37   H     H_    0.321782 0.349197 0.058547 0.171769
H38   H     H_    0.192181 0.295184 0.067105 0.184542
N30   N     N_2   0.112237 0.709003 0.095631 -0.484319
H39   H     H_    0.145202 0.768580 0.113893 0.266139
C102  C     C_3   0.033693 0.707762 0.073449 -0.235137
H40   H     H_    0.972144 0.695170 0.093044 0.156869
H41   H     H_    0.006531 0.649346 0.051103 0.170826
H42   H     H_    0.061184 0.779378 0.058429 0.181349
I7    I     I_    0.968234 0.315247 0.935562 -0.210272
I8    I     I_    0.685359 0.648641 0.940221 -0.203404
I9    I     I_    0.349512 0.035038 0.939832 -0.210988
I10   I     I_    0.315952 0.968115 0.434406 -0.254708
I11   I     I_    0.648172 0.685116 0.440151 -0.202619
I12   I     I_    0.034315 0.348559 0.439422 -0.211700
N31   N     N_2   0.929951 0.322603 0.844232 -0.486889
H43   H     H_    0.876030 0.309119 0.824240 0.273172
C103  C     C_3   0.984693 0.272805 0.836411 -0.235651
H44   H     H_    0.985681 0.260230 0.804734 0.160532
H45   H     H_    0.948523 0.200605 0.851433 0.185287
H46   H     H_    0.061695 0.315677 0.846614 0.184952
N32   N     N_2   0.689952 0.615366 0.847893 -0.484864
H47   H     H_    0.704173 0.577737 0.826774 0.270565
C104  C     C_3   0.734308 0.719084 0.839297 -0.244989
H48   H     H_    0.695704 0.731729 0.814999 0.171804
H49   H     H_    0.812302 0.748671 0.830907 0.160500
H50   H     H_    0.732033 0.759869 0.865073 0.202994
N33   N     N_2   0.398003 0.085694 0.849049 -0.486871
H51   H     H_    0.438695 0.141637 0.829602 0.272530
C105  C     C_3   0.293798 0.031841 0.840947 -0.236660
H52   H     H_    0.281330 0.031807 0.809216 0.160574
H53   H     H_    0.257717 0.068092 0.855756 0.185347
H54   H     H_    0.258902 0.954541 0.851235 0.185041
N34   N     N_2   0.328344 0.949084 0.340145 -0.488481
H55   H     H_    0.279532 0.885668 0.354596 0.281564
C106  C     C_3   0.288425 0.012648 0.332132 -0.242536
H56   H     H_    0.221744 0.972796 0.314049 0.164604
H57   H     H_    0.342381 0.079490 0.316076 0.182067
H58   H     H_    0.267794 0.034839 0.359507 0.187536
N35   N     N_2   0.614887 0.689605 0.347831 -0.484560
H59   H     H_    0.577156 0.703783 0.326742 0.271130
C107  C     C_3   0.718674 0.734247 0.339284 -0.244171
H60   H     H_    0.731552 0.695822 0.314984 0.171710
H61   H     H_    0.759467 0.732011 0.365068 0.202945
H62   H     H_    0.748088 0.812226 0.330927 0.160926
N36   N     N_2   0.083363 0.396233 0.348522 -0.486788
H63   H     H_    0.139100 0.436480 0.328935 0.272815
C108  C     C_3   0.028619 0.292006 0.340533 -0.236795
H64   H     H_    0.027674 0.279295 0.308790 0.160687
H65   H     H_    0.951597 0.257691 0.351133 0.184342
H66   H     H_    0.064770 0.255545 0.355129 0.185149
I13   I     I_    0.130736 0.760000 0.905713 -0.299038
I14   I     I_    0.244660 0.376023 0.903195 -0.306337
I15   I     I_    0.623411 0.865032 0.902903 -0.305364
I16   I     I_    0.758944 0.125954 0.407135 -0.296244
I17   I     I_    0.376932 0.244246 0.402997 -0.312480
I18   I     I_    0.866062 0.624323 0.403245 -0.305970

loop_
_geom_bond_atom_site_label_1
_geom_bond_atom_site_label_2
_geom_bond_distance
_ccdc_geom_bond_type
O19   C7    1.255701 A    
C101  H36   1.111585 S    
O20   C8    1.253721 A    
C28   H4    1.082852 S    
C35   C59   1.473274 S    
C76   C94   1.415109 A    
C38   H8    1.083336 S    
C24   C30   1.396765 A    
C106  H56   1.109965 S    
C77   C95   1.414251 A    
C27   C33   1.400770 A    
C41   C47   1.391870 A    
O23   Cr5   1.963083 S    
C108  H64   1.110512 S    
C68   I8    2.143530 S    
O21   C9    1.254691 A    
N4    N10   1.330272 A    
O16   C11   1.254730 A    
C68   C92   1.419905 A    
N36   H63   1.031448 S    
N11   C59   1.357513 A    
Cr6   O26   1.968432 S    
C37   H7    1.082762 S    
C45   N27   1.424391 S    
O10   Cr4   1.972564 S    
C64   C88   1.413805 A    
C65   C71   1.410984 A    
C103  H46   1.111390 S    
N16   N22   1.328587 A    
N26   C98   1.447175 S    
C78   C84   1.387478 A    
N18   N24   1.328063 A    
C12   C93   1.483318 S    
C98   H25   1.109284 S    
C105  H54   1.111727 S    
N31   C103  1.449984 S    
N1    N7    1.330811 A    
C76   C82   1.386788 A    
N35   H59   1.031251 S    
O17   C12   1.251928 A    
N2    N8    1.327225 A    
O9    Cr3   1.971211 S    
C102  H42   1.110292 S    
O18   Cr6   2.087663 S    
N30   C102  1.446858 S    
C81   H15   1.083559 S    
C82   H16   1.082996 S    
C15   C45   1.420337 A    
C100  H33   1.106570 S    
O2    Cr2   2.081401 S    
C36   C42   1.398717 A    
O13   Cr1   2.090814 S    
C71   C95   1.419736 A    
C73   C79   1.388295 A    
C10   C92   1.482112 S    
C72   C96   1.419886 A    
C22   C28   1.394634 A    
C46   N28   1.419848 S    
C73   I13   2.127983 S    
O21   Cr3   1.952845 S    
N35   C107  1.448316 S    
C18   C48   1.420475 A    
C3    C13   1.489042 S    
N15   N21   1.328132 A    
C80   C86   1.396081 A    
C83   H17   1.083810 S    
C23   C29   1.399817 A    
C20   C26   1.399963 A    
N17   C59   1.357085 A    
C69   I9    2.143430 S    
C105  H52   1.110524 S    
N13   N19   1.329130 A    
O3    C1    1.256555 A    
C37   C43   1.399900 A    
C63   N33   1.425924 S    
C64   N34   1.423798 S    
N3    N9    1.331031 A    
C97   H22   1.106983 S    
O19   Cr1   1.951964 S    
C39   H9    1.083297 S    
C16   C22   1.421340 A    
C30   C36   1.400677 A    
C107  H60   1.109626 S    
C82   C88   1.398289 A    
C14   C20   1.412394 A    
N29   C101  1.447120 S    
N16   C58   1.356090 A    
C34   C58   1.473078 S    
O8    Cr2   1.963091 S    
N6    C54   1.356968 A    
C33   C57   1.473933 S    
O13   C8    1.254742 A    
C101  H37   1.111280 S    
C7    C95   1.481744 S    
N1    C49   1.356737 A    
N9    C57   1.357526 A    
C50   C86   1.467031 S    
C62   N32   1.426494 S    
C24   I6    2.127599 S    
C63   C87   1.410301 A    
C39   C45   1.396056 A    
C101  H38   1.109351 S    
C74   C80   1.387412 A    
N36   C108  1.450009 S    
C73   C91   1.417109 A    
C30   H6    1.082715 S    
C79   C85   1.396538 A    
O12   Cr6   1.971433 S    
N30   H39   1.031599 S    
C19   C25   1.395869 A    
C27   H3    1.082708 S    
C16   C46   1.416239 A    
C102  H40   1.111616 S    
C62   C86   1.410808 A    
C32   C38   1.398252 A    
N31   H43   1.031414 S    
O3    Cr3   2.071498 S    
O16   Cr4   2.090571 S    
C31   C37   1.398707 A    
C44   N26   1.424072 S    
C76   I16   2.129109 S    
O5    C6    1.244710 A    
O8    C2    1.252267 A    
N25   C97   1.444363 S    
N5    N11   1.331846 A    
C74   C92   1.414629 A    
C33   C39   1.398772 A    
N6    N12   1.330942 A    
C99   H28   1.111617 S    
C70   I10   2.144431 S    
C18   C24   1.416614 A    
O7    Cr1   1.972801 S    
C20   I2    2.124976 S    
C100  H34   1.110761 S    
C61   C85   1.412798 A    
N26   H23   1.031877 S    
C99   H29   1.110306 S    
O22   Cr4   1.951932 S    
O4    Cr4   2.069340 S    
C103  H44   1.110519 S    
C75   C81   1.387536 A    
C102  H41   1.111063 S    
C34   C40   1.398377 A    
C5    C18   1.484878 S    
C43   N25   1.420082 S    
O14   Cr2   2.079773 S    
N14   N20   1.331765 A    
C17   C23   1.412378 A    
C19   I1    2.131748 S    
C104  H48   1.109638 S    
O15   Cr3   2.087451 S    
Cr4   O26   1.968566 S    
C32   C56   1.473751 S    
C78   C96   1.416161 A    
O15   C7    1.250519 A    
O12   C6    1.258842 A    
N32   H47   1.031293 S    
N12   C60   1.357458 A    
C22   I4    2.132432 S    
C106  H57   1.111078 S    
C11   C91   1.485652 S    
N2    C50   1.354709 A    
N22   C52   1.357378 A    
O2    C3    1.245779 A    
C105  H53   1.109569 S    
N17   N23   1.326892 A    
C69   C93   1.420033 A    
N28   C100  1.444487 S    
N13   C55   1.356978 A    
N21   C51   1.355600 A    
N18   C60   1.356894 A    
O4    C5    1.251459 A    
C63   C69   1.410988 A    
C6    C16   1.487419 S    
C104  H49   1.110348 S    
C67   C91   1.418806 A    
C77   C83   1.386718 A    
N3    C51   1.357034 A    
C107  H61   1.107900 S    
C67   I7    2.142677 S    
C26   C32   1.403580 A    
C41   H11   1.083311 S    
Cr5   O26   1.966670 S    
C65   C89   1.411391 A    
Cr1   O25   1.968325 S    
C75   C93   1.416151 A    
C42   H12   1.083303 S    
C4    C17   1.482308 S    
O14   C9    1.251941 A    
C25   C31   1.398938 A    
C84   C90   1.396024 A    
C62   C68   1.410789 A    
C72   I12   2.143517 S    
C52   C88   1.478944 S    
C40   H10   1.082854 S    
C71   I11   2.143558 S    
N5    C53   1.357566 A    
C77   I17   2.125135 S    
N27   H27   1.031499 S    
C65   N35   1.426401 S    
O5    Cr5   2.081493 S    
O11   C5    1.252154 A    
N7    C55   1.357629 A    
C21   I3    2.127459 S    
C26   H2    1.082615 S    
C61   N31   1.425847 S    
C31   C55   1.474903 S    
C53   C89   1.468022 S    
C13   C19   1.421022 A    
C47   N29   1.424146 S    
C98   H26   1.111293 S    
C9    C96   1.482930 S    
C14   C44   1.419846 A    
Cr3   O25   1.968664 S    
C66   C72   1.410686 A    
C84   H18   1.083554 S    
C29   H5    1.082631 S    
O1    Cr1   2.069388 S    
N28   H31   1.031452 S    
C29   C35   1.403404 A    
O23   C11   1.254412 A    
N20   C50   1.358106 A    
O17   Cr5   2.079806 S    
N29   H35   1.031883 S    
O24   C12   1.254688 A    
N23   C53   1.354146 A    
O20   Cr2   1.963040 S    
C49   C85   1.475199 S    
N34   C106  1.448393 S    
C61   C67   1.411948 A    
C99   H30   1.111045 S    
Cr2   O25   1.966682 S    
C103  H45   1.109527 S    
C1    C14   1.482778 S    
O10   C4    1.248090 A    
C15   C21   1.416576 A    
C66   N36   1.425905 S    
N24   C54   1.355531 A    
C70   C94   1.417252 A    
C98   H24   1.111598 S    
N4    C52   1.356224 A    
C80   H14   1.083862 S    
C23   I5    2.125129 S    
N15   C57   1.356961 A    
C38   C44   1.392185 A    
N34   H55   1.030791 S    
N10   C58   1.357253 A    
N14   C56   1.358157 A    
N32   C104  1.448196 S    
C35   C41   1.398257 A    
O11   Cr5   1.963107 S    
C106  H58   1.108622 S    
C64   C70   1.414414 A    
C21   C27   1.396954 A    
C66   C90   1.410324 A    
O9    C3    1.259088 A    
C100  H32   1.110780 S    
C108  H66   1.109569 S    
N19   C49   1.356829 A    
C25   H1    1.082777 S    
C79   H13   1.083336 S    
C108  H65   1.111848 S    
N33   C105  1.449950 S    
C40   C46   1.399051 A    
O22   C10   1.255829 A    
C97   H20   1.110653 S    
C13   C43   1.416007 A    
O7    C1    1.248219 A    
C104  H50   1.107853 S    
C8    C94   1.483441 S    
C78   I18   2.126541 S    
N25   H19   1.031383 S    
O6    Cr6   2.071452 S    
C107  H62   1.110325 S    
C28   C34   1.398235 A    
N33   H51   1.031463 S    
C48   N30   1.424480 S    
N8    C56   1.358110 A    
O18   C10   1.250536 A    
O24   Cr6   1.952839 S    
C42   C48   1.395851 A    
O1    C2    1.251388 A    
C36   C60   1.473564 S    
C2    C15   1.485221 S    
C54   C90   1.470208 S    
C51   C87   1.470472 S    
O6    C4    1.256405 A    
C81   C87   1.395962 A    
C75   I15   2.126135 S    
C17   C47   1.419789 A    
C83   C89   1.396337 A    
N27   C99   1.446890 S    
C97   H21   1.110613 S    
C74   I14   2.125799 S    
