data_mof_unit_34395.cif
_audit_creation_date              2012-12-10T17:37:46-0500
_audit_creation_method            fapswitch 2.2
_symmetry_space_group_name_H-M    P1
_symmetry_Int_Tables_number       1
_space_group_crystal_system       triclinic
_cell_length_a                    12.320409
_cell_length_b                    13.22053
_cell_length_c                    17.300334
_cell_angle_alpha                 105.241345
_cell_angle_beta                  74.36336
_cell_angle_gamma                 116.73621
_cell_volume                      2390.42141976

loop_
_atom_site_label
_atom_site_type_symbol
_atom_type_description
_atom_site_fract_x
_atom_site_fract_y
_atom_site_fract_z
_atom_type_partial_charge
C1    C     C_R   0.144598 0.713511 0.506999 0.777991
C2    C     C_R   0.882888 0.519175 0.800779 -0.030079
C3    C     C_R   0.904031 0.446229 0.152749 0.021322
C4    C     C_R   0.904487 0.458885 0.235099 -0.235756
C5    C     C_R   0.120787 0.491479 0.204562 -0.193514
C6    C     C_R   0.121524 0.480542 0.122360 -0.165922
C7    C     C_R   0.014790 0.461129 0.096216 0.129440
C8    C     C_2   0.983286 0.526808 0.988719 -0.196876
C9    C     C_2   0.024068 0.461794 0.010253 -0.227216
C10   C     C_R   0.012953 0.483014 0.261367 -0.040775
C11   C     C_R   0.735238 0.976312 0.390589 -0.184806
C12   C     C_R   0.987309 0.504131 0.652662 0.787157
C13   C     C_R   0.774685 0.164977 0.470629 -0.051199
C14   C     C_R   0.178627 0.916058 0.559209 -0.184986
C15   C     C_R   0.255693 0.031552 0.574316 -0.140480
C16   C     C_R   0.381856 0.068704 0.545495 -0.176923
C17   C     C_R   0.433405 0.990578 0.497808 0.080870
C18   C     C_R   0.352329 0.875307 0.474237 0.082657
C19   C     C_R   0.562627 0.023324 0.471981 0.074541
C20   C     C_R   0.607836 0.944762 0.416601 0.164634
C21   C     C_R   0.525442 0.836593 0.386374 -0.234635
C22   C     C_R   0.399562 0.802817 0.413818 -0.193374
C23   C     C_R   0.855899 0.286349 0.487872 0.803113
C24   C     C_R   0.648629 0.131630 0.500347 -0.249381
C25   C     C_R   0.818431 0.086387 0.417037 -0.190196
C26   C     C_R   0.225906 0.836457 0.511093 -0.101292
C27   C     C_R   0.641351 0.674702 0.629602 -0.284903
C28   C     C_R   0.250275 0.351942 0.389687 0.020593
C29   C     C_R   0.349098 0.319266 0.365773 -0.060465
C30   C     C_R   0.448869 0.375206 0.407336 -0.235301
C31   C     C_R   0.450925 0.464692 0.473519 -0.022055
C32   C     C_R   0.347296 0.494855 0.495705 0.285901
C33   C     C_R   0.551321 0.525133 0.518596 -0.025530
C34   C     C_R   0.011491 0.494360 0.347671 0.792792
C35   C     C_R   0.545519 0.613963 0.584378 0.172545
C36   C     C_R   0.444080 0.641829 0.604943 -0.283935
C37   C     C_R   0.347400 0.583619 0.561831 -0.185590
C38   C     C_R   0.658020 0.501912 0.501761 0.021267
C39   C     C_R   0.743222 0.647684 0.609899 0.101590
C40   C     C_R   0.983524 0.511312 0.739667 -0.083024
C41   C     C_R   0.085303 0.512471 0.762554 -0.216696
C42   C     C_R   0.087065 0.519504 0.843600 -0.146784
C43   C     C_R   0.986988 0.525586 0.903449 0.165719
C44   C     C_R   0.886654 0.527658 0.882136 -0.191927
Cu1   Cu    Cu3+1 0.900140 0.524980 0.518800 0.949291
Cu2   Cu    Cu3+1 0.099860 0.475020 0.481200 0.926335
H1    H     H_    0.164430 0.508162 0.717813 0.164941
H2    H     H_    0.206484 0.490646 0.079303 0.140677
H3    H     H_    0.916084 0.111330 0.393205 0.152234
H4    H     H_    0.558401 0.777571 0.341362 0.148184
H5    H     H_    0.770245 0.916842 0.348109 0.138833
H6    H     H_    0.620193 0.192789 0.545350 0.151995
H7    H     H_    0.081989 0.888728 0.586838 0.152101
H8    H     H_    0.435813 0.159549 0.560011 0.133025
H9    H     H_    0.217937 0.092373 0.610777 0.145255
H10   H     H_    0.340176 0.720236 0.385114 0.174916
H11   H     H_    0.817515 0.694393 0.644520 0.122747
H12   H     H_    0.819609 0.447934 0.278575 0.149771
H13   H     H_    0.439003 0.709547 0.655348 0.155350
H14   H     H_    0.637447 0.742756 0.679948 0.140238
H15   H     H_    0.670411 0.436071 0.452866 0.121935
H16   H     H_    0.172891 0.308526 0.357586 0.132145
H17   H     H_    0.523248 0.347172 0.386837 0.139671
H18   H     H_    0.274115 0.611288 0.583079 0.205938
H19   H     H_    0.204998 0.508642 0.223818 0.154260
H20   H     H_    0.069870 0.412669 0.964835 0.154319
H21   H     H_    0.809346 0.532268 0.929001 0.141280
H22   H     H_    0.938890 0.576552 0.034900 0.157041
H23   H     H_    0.167016 0.520834 0.859418 0.134434
N1    N     N_R   0.749710 0.562810 0.547300 -0.182370
N2    N     N_R   0.249640 0.437820 0.453210 -0.212512
O1    O     O_R   0.025490 0.682370 0.523640 -0.581385
O2    O     O_R   0.194150 0.640180 0.491890 -0.605095
O3    O     O_R   0.905900 0.523560 0.631310 -0.571703
O4    O     O_R   0.074570 0.481370 0.599560 -0.599639
O5    O     O_R   0.805850 0.359820 0.508110 -0.585754
O6    O     O_R   0.974510 0.317630 0.476360 -0.584943
O7    O     O_R   0.925430 0.518630 0.400440 -0.585999
O8    O     O_R   0.094100 0.476440 0.368690 -0.596539
C45   C     C_1   0.348029 0.227833 0.298371 0.229658
N3    N     N_1   0.347213 0.154361 0.244217 -0.267985
C46   C     C_1   0.788319 0.414177 0.127847 0.217353
N4    N     N_1   0.695595 0.388469 0.107986 -0.276893
C47   C     C_1   0.772911 0.515329 0.782960 0.256204
N5    N     N_1   0.684545 0.512110 0.769013 -0.287827

loop_
_geom_bond_atom_site_label_1
_geom_bond_atom_site_label_2
_ccdc_geom_bond_type
C24   H6    S    
C38   N1    A    
C12   O3    A    
C41   C42   A    
C2    C47   S    
C35   C36   A    
C18   C26   A    
C8    C43   S    
C23   O5    A    
C36   H13   S    
Cu1   Cu2   S    
C6    H2    S    
Cu1   O5    S    
C36   C37   A    
C3    C7    A    
C27   H14   S    
C30   C31   A    
C11   C25   A    
C15   C16   A    
C39   H11   S    
C13   C23   S    
C9    H20   S    
C21   H4    S    
C17   C19   A    
Cu2   O8    S    
C19   C20   A    
C27   C39   A    
C16   C17   A    
C31   C33   A    
Cu1   O7    S    
C38   H15   S    
C21   C22   A    
Cu1   O1    S    
C13   C25   A    
Cu2   O4    S    
C32   N2    A    
C16   H8    S    
C11   C20   A    
C1    O1    A    
C47   N5    T    
C5    H19   S    
C2    C44   A    
C8    C9    D    
C22   H10   S    
C27   C35   A    
C42   H23   S    
C14   C26   A    
C13   C24   A    
Cu1   O3    S    
C15   H9    S    
C12   C40   S    
C43   C44   A    
C29   C30   A    
C34   O8    A    
C31   C32   A    
C3    C46   S    
C17   C18   A    
C41   H1    S    
C10   C34   S    
C32   C37   A    
C23   O6    A    
Cu2   N2    S    
C40   C41   A    
C8    H22   S    
C1    C26   S    
C28   N2    A    
C42   C43   A    
C4    C10   A    
C3    C4    A    
C37   H18   S    
C7    C9    S    
C28   C29   A    
Cu1   N1    S    
C18   C22   A    
C45   N3    T    
Cu2   O6    S    
C6    C7    A    
C33   C38   A    
C1    O2    A    
C19   C24   A    
C5    C10   A    
C34   O7    A    
C5    C6    A    
C29   C45   S    
C33   C35   A    
C39   N1    A    
C25   H3    S    
C11   H5    S    
C2    C40   A    
C14   H7    S    
C20   C21   A    
C46   N4    T    
C12   O4    A    
C4    H12   S    
C14   C15   A    
C44   H21   S    
C30   H17   S    
Cu2   O2    S    
C28   H16   S    
