data_mof_unit_68439.cif
_audit_creation_date              2012-12-11T15:56:40-0500
_audit_creation_method            fapswitch 2.2
_symmetry_space_group_name_H-M    P1
_symmetry_Int_Tables_number       1
_space_group_crystal_system       triclinic
_cell_length_a                    14.574533
_cell_length_b                    7.160156
_cell_length_c                    13.698951
_cell_angle_alpha                 89.999838
_cell_angle_beta                  99.971469
_cell_angle_gamma                 89.998308
_cell_volume                      1407.97187808

loop_
_atom_site_label
_atom_site_type_symbol
_atom_type_description
_atom_site_fract_x
_atom_site_fract_y
_atom_site_fract_z
_atom_type_partial_charge
O1    O     O_R   0.336930 0.638190 0.166330 -0.520505
O2    O     O_R   0.663070 0.361810 0.833670 -0.520498
O3    O     O_R   0.163070 0.138190 0.333670 -0.520565
O4    O     O_R   0.836930 0.861810 0.666330 -0.520524
O5    O     O_R   0.147900 0.305430 0.139630 -0.543633
O6    O     O_R   0.852100 0.694570 0.860370 -0.543669
O7    O     O_R   0.352100 0.805430 0.360370 -0.543690
O8    O     O_R   0.647900 0.194570 0.639630 -0.543590
C1    C     C_R   0.115198 0.477656 0.112961 0.712643
C2    C     C_R   0.884801 0.522345 0.887040 0.712589
C3    C     C_R   0.384801 0.977652 0.387040 0.712604
C4    C     C_R   0.615200 0.022347 0.612959 0.712580
O9    O     O_R   0.335280 0.308290 0.154310 -0.512209
O10   O     O_R   0.664720 0.691710 0.845690 -0.512202
O11   O     O_R   0.164720 0.808290 0.345690 -0.512166
O12   O     O_R   0.835280 0.191710 0.654310 -0.512189
O13   O     O_R   0.351790 0.140890 0.348460 -0.540369
O14   O     O_R   0.648210 0.859110 0.651540 -0.540397
O15   O     O_R   0.148210 0.640890 0.151540 -0.540420
O16   O     O_R   0.851790 0.359110 0.848460 -0.540410
C5    C     C_R   0.364812 0.477423 0.133967 0.752972
C6    C     C_R   0.635185 0.522577 0.866030 0.753075
C7    C     C_R   0.135187 0.977425 0.366031 0.752990
C8    C     C_R   0.864813 0.022573 0.633968 0.752981
O17   O     O_3   0.255200 0.472570 0.313680 -0.374349
O18   O     O_3   0.744800 0.527430 0.686320 -0.374335
O19   O     O_3   0.244800 0.972570 0.186320 -0.374416
O20   O     O_3   0.755200 0.027430 0.813680 -0.374408
V1    V     V_3+5 0.249040 0.196590 0.238190 1.479719
V2    V     V_3+5 0.750960 0.803410 0.761810 1.479729
V3    V     V_3+5 0.250960 0.696590 0.261810 1.479720
V4    V     V_3+5 0.749040 0.303410 0.738190 1.479869
C9    C     C_R   0.070472 0.862949 0.514721 0.342501
C10   C     C_R   0.929522 0.137047 0.485269 0.342550
C11   C     C_R   0.429535 0.362919 0.985273 0.342484
C12   C     C_R   0.570455 0.637072 0.014716 0.342508
C13   C     C_R   0.004574 0.872154 0.578742 0.338870
C14   C     C_R   0.995386 0.127783 0.421214 0.338897
C15   C     C_R   0.495426 0.372163 0.921247 0.338926
C16   C     C_R   0.504554 0.627856 0.078730 0.338924
C17   C     C_R   0.933936 0.010766 0.565365 -0.385735
C18   C     C_R   0.066051 0.989220 0.434618 -0.385724
C19   C     C_R   0.566059 0.510775 0.934629 -0.385731
C20   C     C_R   0.433928 0.489228 0.065357 -0.385748
C21   C     C_1   0.534038 0.008137 0.532989 -0.195921
C22   C     C_1   0.465964 0.991862 0.467008 -0.195932
C23   C     C_1   0.965963 0.508135 0.967009 -0.196016
C24   C     C_1   0.034037 0.491868 0.032991 -0.195908
O21   O     O_3   0.136899 0.722774 0.529329 -0.506796
C25   C     C_3   0.222288 0.797300 0.578792 0.166530
H1    H     H_    0.215334 0.853689 0.652634 0.093854
H2    H     H_    0.248412 0.910788 0.535455 0.078803
C26   C     C_3   0.294874 0.642962 0.593666 -0.698005
H3    H     H_    0.270660 0.527098 0.636727 0.210142
H4    H     H_    0.306155 0.588398 0.520795 0.236309
H5    H     H_    0.361851 0.698211 0.634516 0.154581
O22   O     O_3   0.863115 0.277250 0.470672 -0.506754
C27   C     C_3   0.777717 0.202760 0.421221 0.166980
H6    H     H_    0.751501 0.089554 0.464673 0.078812
H7    H     H_    0.784694 0.145999 0.347455 0.093733
C28   C     C_3   0.705224 0.357257 0.406118 -0.698129
H8    H     H_    0.729423 0.472569 0.362723 0.210068
H9    H     H_    0.638172 0.301947 0.365522 0.154586
H10   H     H_    0.694105 0.412540 0.478879 0.236299
O23   O     O_3   0.363156 0.222661 0.970686 -0.506773
C29   C     C_3   0.277708 0.297103 0.921321 0.166694
H11   H     H_    0.284584 0.353762 0.847509 0.093729
H12   H     H_    0.251539 0.410363 0.964767 0.078856
C30   C     C_3   0.205217 0.142605 0.906377 -0.697828
H13   H     H_    0.229280 0.027423 0.862779 0.209742
H14   H     H_    0.194353 0.087089 0.979199 0.236505
H15   H     H_    0.138061 0.197987 0.866049 0.154609
O24   O     O_3   0.636857 0.777282 0.029320 -0.506778
C31   C     C_3   0.722276 0.702788 0.078731 0.166480
H16   H     H_    0.748394 0.589334 0.035370 0.078855
H17   H     H_    0.715378 0.646364 0.152582 0.093854
C32   C     C_3   0.794832 0.857164 0.093565 -0.697966
H18   H     H_    0.770772 0.972630 0.136961 0.209959
H19   H     H_    0.861934 0.801819 0.134047 0.154598
H20   H     H_    0.805808 0.912246 0.020712 0.236519
O25   O     O_3   0.008874 0.738299 0.652408 -0.511362
C33   C     C_3   0.052054 0.813384 0.744580 0.157256
H21   H     H_    0.997805 0.858245 0.787322 0.124926
H22   H     H_    0.097536 0.936227 0.737843 0.058579
C34   C     C_3   0.111016 0.662441 0.803523 -0.723226
H23   H     H_    0.170329 0.624220 0.766594 0.212579
H24   H     H_    0.138674 0.713694 0.879417 0.170188
H25   H     H_    0.068351 0.535681 0.808742 0.221572
O26   O     O_3   0.990999 0.261527 0.347479 -0.511379
C35   C     C_3   0.947992 0.186141 0.255320 0.157028
H26   H     H_    0.902575 0.063214 0.262086 0.058725
H27   H     H_    0.002340 0.141341 0.212709 0.125031
C36   C     C_3   0.888994 0.336784 0.196166 -0.723396
H28   H     H_    0.861774 0.285504 0.120183 0.170383
H29   H     H_    0.829388 0.374416 0.232734 0.212202
H30   H     H_    0.931482 0.463873 0.191199 0.221804
O27   O     O_3   0.491115 0.238357 0.847557 -0.511353
C37   C     C_3   0.447881 0.313491 0.755414 0.157214
H31   H     H_    0.502097 0.358548 0.712675 0.124814
H32   H     H_    0.402324 0.436202 0.762203 0.058671
C38   C     C_3   0.388989 0.162506 0.696436 -0.723036
H33   H     H_    0.329657 0.124220 0.733325 0.212435
H34   H     H_    0.361357 0.213759 0.620530 0.170157
H35   H     H_    0.431700 0.035794 0.691243 0.221622
O28   O     O_3   0.508849 0.761697 0.152400 -0.511346
C39   C     C_3   0.552067 0.686606 0.244559 0.157293
H36   H     H_    0.597599 0.563837 0.237796 0.058605
H37   H     H_    0.497838 0.641631 0.287306 0.124850
C40   C     C_3   0.610988 0.837590 0.303510 -0.723007
H38   H     H_    0.638636 0.786342 0.379412 0.170162
H39   H     H_    0.670316 0.875840 0.266603 0.212486
H40   H     H_    0.568291 0.964330 0.308708 0.221577

loop_
_geom_bond_atom_site_label_1
_geom_bond_atom_site_label_2
_ccdc_geom_bond_type
O17   V3    S    
C29   H12   S    
O1    C5    A    
C36   H28   S    
O19   V1    S    
O13   V1    S    
O24   C31   S    
C26   H4    S    
O3    C7    A    
O15   V3    S    
O25   C33   S    
C35   H26   S    
C21   C22   T    
O7    C3    A    
C14   O26   S    
C38   H33   S    
C7    C18   S    
C31   H17   S    
C9    C18   A    
O9    V1    S    
C14   C18   A    
C40   H39   S    
O4    C8    A    
C15   O27   S    
C29   C30   S    
C39   H36   S    
C11   O23   S    
C9    O21   S    
O1    V3    S    
O2    V4    S    
C30   H14   S    
C1    O15   A    
C23   C24   T    
C2    O16   A    
C31   C32   S    
O2    C6    A    
C10   O22   S    
C25   H2    S    
O14   V2    S    
C32   H18   S    
C27   C28   S    
O11   C7    A    
C29   H11   S    
O12   C8    A    
C8    C17   S    
C13   O25   S    
C30   H13   S    
C10   C17   A    
O10   V2    S    
O27   C37   S    
O5    V1    S    
C32   H19   S    
C25   C26   S    
O7    V3    S    
C31   H16   S    
C34   H24   S    
O8    V4    S    
C12   C16   A    
C40   H40   S    
O18   V4    S    
C15   C19   A    
C27   H6    S    
C34   H23   S    
C33   H21   S    
C9    C13   A    
C30   H15   S    
C11   C15   A    
O5    C1    A    
C5    C20   S    
C35   H27   S    
C6    C19   S    
O8    C4    A    
C28   H9    S    
C25   H1    S    
O9    C5    A    
O11   V3    S    
C11   C20   A    
O6    V2    S    
C37   H31   S    
C36   H30   S    
C37   H32   S    
C37   C38   S    
C34   H25   S    
C35   C36   S    
O16   V4    S    
C26   H5    S    
C3    O13   A    
C10   C14   A    
C4    C21   S    
C12   C19   A    
O6    C2    A    
C26   H3    S    
O12   V4    S    
C33   C34   S    
O28   C39   S    
C33   H22   S    
O10   C6    A    
O20   V2    S    
C40   H38   S    
C28   H10   S    
C32   H20   S    
O3    V1    S    
O22   C27   S    
C36   H29   S    
C39   H37   S    
O23   C29   S    
C13   C17   A    
C28   H8    S    
C12   O24   S    
C16   C20   A    
C1    C24   S    
C38   H34   S    
O21   C25   S    
C4    O14   A    
C2    C23   S    
C3    C22   S    
C38   H35   S    
O26   C35   S    
C27   H7    S    
O4    V2    S    
C16   O28   S    
C39   C40   S    
