data_mof_unit_35817.cif
_audit_creation_date              2012-12-10T17:03:47-0500
_audit_creation_method            fapswitch 2.2
_symmetry_space_group_name_H-M    P1
_symmetry_Int_Tables_number       1
_space_group_crystal_system       triclinic
_cell_length_a                    10.036894
_cell_length_b                    10.687114
_cell_length_c                    13.096863
_cell_angle_alpha                 90.781816
_cell_angle_beta                  69.62008
_cell_angle_gamma                 91.49138
_cell_volume                      1316.44154152

loop_
_atom_site_label
_atom_site_type_symbol
_atom_type_description
_atom_site_fract_x
_atom_site_fract_y
_atom_site_fract_z
_atom_type_partial_charge
C1    C     C_R   0.501708 0.737206 0.501168 0.946684
C2    C     C_R   0.369619 0.519558 0.822885 -0.105064
C3    C     C_2   0.625700 0.066945 0.437005 0.472886
C4    C     C_R   0.421047 0.507128 0.704331 0.844554
C5    C     C_2   0.508939 0.134175 0.459116 -0.398371
C6    C     C_2   0.607791 0.932610 0.426190 0.073967
C7    C     C_2   0.508257 0.869679 0.508195 0.018249
C8    C     C_2   0.097057 0.419251 0.446337 0.462690
C9    C     C_2   0.958751 0.442924 0.427043 0.084214
C10   C     C_R   0.502498 0.263104 0.490393 0.971037
C11   C     C_R   0.579245 0.501194 0.295493 0.855196
C12   C     C_R   0.433020 0.532234 0.985140 0.085785
C13   C     C_R   0.775223 0.633740 0.019421 -0.185961
C14   C     C_R   0.627686 0.520932 0.178598 -0.057090
C15   C     C_R   0.234736 0.470689 0.884000 -0.185786
C16   C     C_R   0.195957 0.458285 0.996071 -0.153321
C17   C     C_R   0.294985 0.485303 0.046279 -0.177750
C18   C     C_3   0.698950 0.870440 0.321281 -0.944028
C19   C     C_3   0.423066 0.926303 0.617792 -0.972828
C20   C     C_3   0.947026 0.403723 0.319750 -0.772507
C21   C     C_3   0.816539 0.744319 0.804889 -0.934419
C22   C     C_R   0.462079 0.564906 0.875994 0.041099
C23   C     C_R   0.542946 0.547631 0.028752 0.028976
C24   C     C_R   0.670114 0.616060 0.971197 0.149228
C25   C     C_R   0.687355 0.666237 0.868240 0.160093
C26   C     C_R   0.583195 0.640397 0.822195 -0.207853
C27   C     C_R   0.530397 0.493003 0.127565 -0.227302
C28   C     C_R   0.752415 0.588830 0.123737 -0.222722
H1    H     H_    0.828481 0.612265 0.163108 0.154151
H2    H     H_    0.596401 0.681468 0.744079 0.172286
H3    H     H_    0.762843 0.941085 0.261583 0.250032
H4    H     H_    0.773749 0.805340 0.337198 0.258632
H5    H     H_    0.630502 0.818213 0.283699 0.241510
H6    H     H_    0.378438 0.852248 0.680061 0.234860
H7    H     H_    0.491698 0.988798 0.647867 0.260874
H8    H     H_    0.331914 0.978590 0.612236 0.254341
H9    H     H_    0.113279 0.253020 0.383750 0.327325
H10   H     H_    0.045526 0.360281 0.264948 0.195727
H11   H     H_    0.857766 0.335566 0.332527 0.296394
H12   H     H_    0.411766 0.090945 0.454450 0.140552
H13   H     H_    0.931156 0.487659 0.276919 0.226854
H14   H     H_    0.811424 0.776094 0.725948 0.245127
H15   H     H_    0.824618 0.828776 0.852893 0.247876
H16   H     H_    0.913844 0.688380 0.786982 0.238209
H17   H     H_    0.824440 0.052142 0.419403 0.336030
H18   H     H_    0.092513 0.579542 0.524887 0.102273
H19   H     H_    0.864487 0.520017 0.572155 0.141786
H20   H     H_    0.872738 0.686195 0.979240 0.157050
H21   H     H_    0.441744 0.431190 0.169055 0.166087
H22   H     H_    0.161032 0.438723 0.844833 0.159311
H23   H     H_    0.259776 0.472118 0.133262 0.140063
H24   H     H_    0.091051 0.422289 0.043542 0.147902
N1    N     N_2   0.148270 0.498670 0.498870 -0.201423
N2    N     N_2   0.852610 0.498640 0.498840 -0.196070
O1    O     O_R   0.386950 0.680940 0.500020 -0.617874
O2    O     O_3   0.755218 0.120142 0.431090 -0.764140
O3    O     O_R   0.613110 0.680900 0.499980 -0.623077
O4    O     O_R   0.330780 0.500000 0.653640 -0.614454
O5    O     O_R   0.556930 0.499960 0.653610 -0.608792
O6    O     O_R   0.386890 0.319100 0.500020 -0.565924
O7    O     O_R   0.613050 0.319060 0.499980 -0.541781
O8    O     O_R   0.443070 0.500040 0.346390 -0.579865
O9    O     O_R   0.669220 0.500000 0.346360 -0.626247
O10   O     O_3   0.175973 0.315261 0.402562 -0.734780
Zn1   Zn    Zn3+2 0.349000 0.500030 0.500020 0.981059
Zn2   Zn    Zn3+2 0.651000 0.499970 0.499980 0.948459

loop_
_geom_bond_atom_site_label_1
_geom_bond_atom_site_label_2
_ccdc_geom_bond_type
C12   C17   A    
C2    C22   A    
C13   H20   S    
C10   O6    A    
C23   C24   A    
C13   C28   A    
C6    C7    D    
N2    Zn2   S    
C23   C27   A    
C14   C27   A    
C21   H16   S    
N1    Zn1   S    
C3    O2    S    
C9    C20   S    
C2    C4    S    
H17   O2    S    
O3    Zn2   S    
C11   O8    A    
C17   H23   S    
C20   H13   S    
C1    O1    A    
O9    Zn2   S    
C5    C10   S    
C19   H7    S    
C2    C15   A    
C12   C23   A    
C8    O10   S    
H19   N2    S    
H18   N1    S    
C28   H1    S    
O1    Zn1   S    
O6    Zn1   S    
C26   H2    S    
C1    O3    A    
C19   H8    S    
O5    Zn2   S    
C6    C18   S    
C11   C14   S    
C5    H12   S    
C10   O7    A    
C18   H4    S    
C18   H5    S    
C27   H21   S    
C21   H14   S    
C12   C22   A    
H9    O10   S    
C20   H10   S    
C24   C25   A    
C4    O5    A    
C9    N2    D    
C16   H24   S    
C22   C26   A    
C15   H22   S    
C4    O4    A    
C20   H11   S    
C21   C25   S    
C16   C17   A    
C7    C19   S    
C8    N1    D    
C18   H3    S    
O4    Zn1   S    
O8    Zn1   S    
C14   C28   A    
C25   C26   A    
C1    C7    S    
C11   O9    A    
O7    Zn2   S    
C3    C6    S    
C21   H15   S    
C15   C16   A    
C13   C24   A    
C8    C9    S    
C3    C5    D    
C19   H6    S    
