data_mof_unit_45647.cif
_audit_creation_date              2012-12-10T17:10:59-0500
_audit_creation_method            fapswitch 2.2
_symmetry_space_group_name_H-M    P1
_symmetry_Int_Tables_number       1
_space_group_crystal_system       triclinic
_cell_length_a                    11.698055
_cell_length_b                    13.010719
_cell_length_c                    13.447077
_cell_angle_alpha                 93.008264
_cell_angle_beta                  77.544233
_cell_angle_gamma                 100.007335
_cell_volume                      1967.82905042

loop_
_atom_site_label
_atom_site_type_symbol
_atom_type_description
_atom_site_fract_x
_atom_site_fract_y
_atom_site_fract_z
_atom_type_partial_charge
C1    C     C_R   0.521439 0.700418 0.499337 0.906302
C2    C     C_R   0.450972 0.507043 0.974708 0.058644
C3    C     C_R   0.471882 0.539940 0.872940 -0.056941
C4    C     C_R   0.533134 0.547422 0.035649 0.010186
C5    C     C_R   0.644601 0.602879 0.990578 -0.041177
C6    C     C_R   0.656479 0.650953 0.896936 0.221449
C7    C     C_R   0.565291 0.625074 0.841788 0.221585
C8    C     C_R   0.504576 0.540532 0.141567 0.199817
C9    C     C_R   0.714899 0.577766 0.144177 0.236821
C10   C     C_R   0.398284 0.487536 0.807640 -0.180538
C11   C     C_R   0.465163 0.186519 0.499779 -0.155449
C12   C     C_R   0.436819 0.495719 0.695953 0.874158
C13   C     C_R   0.533723 0.813277 0.492925 0.008434
C14   C     C_R   0.637944 0.973934 0.414031 -0.152572
C15   C     C_R   0.632034 0.868198 0.427437 0.058255
C16   C     C_R   0.441083 0.863562 0.546420 0.082931
C17   C     C_R   0.442372 0.970568 0.528319 0.024975
C18   C     C_R   0.544927 0.026010 0.462365 0.029937
C19   C     C_R   0.553685 0.133189 0.445907 0.217552
C20   C     C_R   0.361833 0.132465 0.558553 -0.158097
C21   C     C_R   0.347045 0.025598 0.571322 0.160729
C22   C     C_R   0.945923 0.593571 0.600046 0.056128
C23   C     C_R   0.479333 0.299486 0.497142 0.883962
C24   C     C_R   0.826565 0.583941 0.590502 0.058609
C25   C     C_R   0.857347 0.462200 0.454945 0.150085
C26   C     C_R   0.977857 0.468000 0.461663 -0.101106
C27   C     C_R   0.022777 0.534761 0.535358 0.022742
C28   C     C_R   0.143258 0.540609 0.542652 0.033303
C29   C     C_R   0.171678 0.413690 0.410285 0.454448
C30   C     C_R   0.053876 0.408192 0.397678 0.160840
C31   C     C_R   0.563064 0.514437 0.304937 0.888389
C32   C     C_R   0.736349 0.615504 0.044896 -0.138188
C33   C     C_R   0.596295 0.541906 0.195612 -0.187115
C34   C     C_R   0.296678 0.413364 0.848901 0.271274
C35   C     C_R   0.274312 0.386252 0.951234 0.152134
C36   C     C_R   0.353286 0.429464 0.011847 -0.185783
Cu1   Cu    Cu3+1 0.386470 0.492430 0.492410 1.050055
Cu2   Cu    Cu3+1 0.613530 0.507570 0.507590 1.030263
H1    H     H_    0.290889 0.174009 0.595343 0.216000
H2    H     H_    0.716462 0.013892 0.364246 0.209762
H3    H     H_    0.179344 0.592156 0.598152 0.183478
H4    H     H_    0.767772 0.628934 0.640525 0.178903
H5    H     H_    0.820393 0.412246 0.399201 0.210696
H6    H     H_    0.825363 0.651997 0.009965 0.213068
H7    H     H_    0.338844 0.399265 0.087825 0.207072
N1    N     N_R   0.215880 0.481050 0.481000 -0.230356
N2    N     N_R   0.784100 0.518950 0.519000 -0.214102
O1    O     O_R   0.419710 0.645650 0.494620 -0.583175
O2    O     O_R   0.611450 0.658430 0.507430 -0.549126
O3    O     O_R   0.357340 0.490460 0.641450 -0.550825
O4    O     O_R   0.549080 0.503250 0.654260 -0.586058
O5    O     O_R   0.388550 0.341570 0.492570 -0.548655
O6    O     O_R   0.580290 0.354350 0.505380 -0.569311
O7    O     O_R   0.450920 0.496750 0.345740 -0.530550
O8    O     O_R   0.642660 0.509540 0.358550 -0.546731
Br1   Br    Br    0.850205 0.590531 0.206304 -0.419279
N3    N     N_3   0.230909 0.977437 0.621956 -0.557672
H8    H     H_    0.231933 0.949070 0.692734 0.242499
H9    H     H_    0.194546 0.920803 0.574463 0.237677
N4    N     N_3   0.725030 0.815846 0.372016 -0.542005
H10   H     H_    0.805023 0.852060 0.390421 0.256740
H11   H     H_    0.731509 0.825664 0.294194 0.249705
N5    N     N_3   0.354285 0.805043 0.624213 -0.568658
H12   H     H_    0.271230 0.789520 0.605055 0.228829
H13   H     H_    0.353417 0.842574 0.694865 0.261648
Br2   Br    Br    0.266177 0.321221 0.326471 -0.398336
N6    N     N_3   0.988292 0.661769 0.675977 -0.593961
H14   H     H_    0.940507 0.634475 0.747158 0.267438
H15   H     H_    0.971095 0.736368 0.666137 0.264139
Br3   Br    Br    0.998905 0.319179 0.291869 -0.393621
Br4   Br    Br    0.782762 0.766929 0.856285 -0.473712
Br5   Br    Br    0.352902 0.581681 0.205460 -0.435962
Br6   Br    Br    0.190975 0.337653 0.767574 -0.442008
N7    N     N_3   0.173657 0.309923 0.992705 -0.483262
H16   H     H_    0.204263 0.248360 0.020148 0.250818
H17   H     H_    0.122250 0.344297 0.054606 0.284514
Br7   Br    Br    0.552478 0.724016 0.744866 -0.469517
Br8   Br    Br    0.679666 0.206410 0.343294 -0.443144

loop_
_geom_bond_atom_site_label_1
_geom_bond_atom_site_label_2
_ccdc_geom_bond_type
N5    H13   S    
C35   N7    S    
C24   H4    S    
C15   N4    S    
C14   C18   A    
C35   C36   A    
C4    C8    A    
C25   H5    S    
C23   O5    A    
Cu2   O2    S    
C11   C19   A    
C26   C27   A    
C29   C30   A    
N7    H17   S    
C34   C35   A    
C3    C7    A    
C5    C6    A    
N3    H9    S    
C28   H3    S    
N4    H11   S    
C18   C19   A    
C9    C32   A    
Cu2   O8    S    
C16   C17   A    
C31   C33   S    
C16   N5    S    
C25   N2    A    
C7    Br7   S    
C5    C32   A    
C9    C33   A    
C30   Br3   S    
C23   O6    A    
C6    Br4   S    
C11   C20   A    
C8    Br5   S    
N7    H16   S    
N6    H14   S    
C20   H1    S    
Cu2   O4    S    
C25   C26   A    
C17   C21   A    
C29   Br2   S    
N4    H10   S    
N6    H15   S    
C19   Br8   S    
C2    C4    A    
C21   N3    S    
Cu1   Cu2   S    
C28   N1    A    
C17   C18   A    
C32   H6    S    
C36   H7    S    
C10   C34   A    
C9    Br1   S    
Cu1   O1    S    
Cu2   N2    S    
C10   C12   S    
Cu1   O7    S    
C26   C30   A    
C22   C27   A    
C13   C15   A    
C22   C24   A    
C1    C13   S    
C12   O4    A    
C2    C36   A    
Cu1   O5    S    
C24   N2    A    
C4    C5    A    
C12   O3    A    
C1    O1    A    
C6    C7    A    
C29   N1    A    
C2    C3    A    
C3    C10   A    
Cu1   O3    S    
N3    H8    S    
Cu2   O6    S    
C11   C23   S    
C8    C33   A    
C31   O7    A    
C22   N6    S    
C34   Br6   S    
C14   H2    S    
N5    H12   S    
C20   C21   A    
C13   C16   A    
C27   C28   A    
C14   C15   A    
C31   O8    A    
Cu1   N1    S    
C1    O2    A    
