data_mof_unit_12967.cif
_audit_creation_date              2013-03-05T16:05:09-0500
_audit_creation_method            fapswitch 2.2
_symmetry_space_group_name_H-M    P1
_symmetry_Int_Tables_number       1
_space_group_crystal_system       triclinic
_cell_length_a                    10.936038
_cell_length_b                    9.554339
_cell_length_c                    10.880622
_cell_angle_alpha                 91.48662
_cell_angle_beta                  92.443735
_cell_angle_gamma                 91.425756
_cell_volume                      1135.07868724

loop_
_atom_site_label
_atom_site_type_symbol
_atom_site_description
_atom_site_fract_x
_atom_site_fract_y
_atom_site_fract_z
_atom_type_partial_charge
O1    O     O_R   0.319660 0.618740 0.499990 -0.541103
O2    O     O_R   0.319660 0.381260 0.499990 -0.543773
C1    C     C_R   0.262293 0.498875 0.498818 0.871823
O3    O     O_R   0.499990 0.618790 0.317690 -0.576470
O4    O     O_R   0.499990 0.381210 0.317690 -0.569611
C2    C     C_R   0.499604 0.498567 0.259955 0.824169
Cu1   Cu    Cu3+1 0.500020 0.640660 0.500000 0.992344
Cu2   Cu    Cu3+1 0.500020 0.359340 0.500000 1.009789
O5    O     O_R   0.680370 0.618830 0.500010 -0.586907
O6    O     O_R   0.680370 0.381170 0.500010 -0.554450
O7    O     O_R   0.500030 0.618780 0.682310 -0.596777
O8    O     O_R   0.500030 0.381220 0.682310 -0.544861
C3    C     C_R   0.737727 0.500934 0.498380 0.858477
C4    C     C_R   0.496233 0.501722 0.739924 0.817826
C5    C     C_3   0.471458 0.650588 0.077332 -0.078462
C6    C     C_3   0.391913 0.399562 0.064543 -0.101661
H1    H     H_    0.382410 0.677729 0.117009 0.117541
H2    H     H_    0.306369 0.455282 0.084132 0.154862
C7    C     C_3   0.455810 0.654453 0.933511 0.241923
C8    C     C_3   0.398852 0.384630 0.920173 0.257081
H3    H     H_    0.692529 0.547163 0.904617 0.154684
H4    H     H_    0.655733 0.371852 0.883318 0.181739
C9    C     C_3   0.627960 0.450949 0.072913 0.306569
C10   C     C_3   0.500186 0.497451 0.121906 0.021609
C11   C     C_3   0.492103 0.503895 0.877932 0.025309
C12   C     C_3   0.623341 0.467860 0.930217 -0.471137
C13   C     C_R   0.058912 0.383420 0.445638 0.287758
C14   C     C_R   0.068696 0.615225 0.546049 0.284502
C15   C     C_R   0.930776 0.385482 0.443354 0.011392
C16   C     C_R   0.941503 0.615536 0.546072 0.032077
C17   C     C_R   0.871753 0.501202 0.495386 -0.123717
C18   C     C_R   0.128370 0.498372 0.497265 -0.327840
C19   C     C_R   0.425833 0.069465 0.418960 -0.033079
C20   C     C_R   0.425858 0.920976 0.418859 0.022498
H5    H     H_    0.366197 0.121434 0.353929 0.202808
H6    H     H_    0.366150 0.861608 0.353818 0.151576
N1    N     N_R   0.500030 0.852070 0.500030 -0.182559
N2    N     N_R   0.500030 0.147930 0.500030 -0.186111
C21   C     C_R   0.576109 0.933284 0.580825 0.216624
C22   C     C_R   0.574878 0.081776 0.580474 0.309181
N3    N     N_3   0.559414 0.758411 0.130040 -0.523438
H7    H     H_    0.520959 0.857071 0.121254 0.221896
H8    H     H_    0.641737 0.760671 0.085123 0.276728
N4    N     N_3   0.376777 0.264799 0.125527 -0.534407
H9    H     H_    0.297871 0.212537 0.088704 0.242202
H10   H     H_    0.450066 0.198976 0.114584 0.244516
N5    N     N_3   0.655899 0.873488 0.671585 -0.641045
H11   H     H_    0.661700 0.767047 0.659531 0.297655
H12   H     H_    0.743882 0.915042 0.662542 0.205419
N6    N     N_3   0.653499 0.164440 0.664103 -0.524566
H13   H     H_    0.744472 0.148792 0.642656 0.198058
H14   H     H_    0.640644 0.132023 0.753736 0.214519
N7    N     N_3   0.327334 0.685244 0.898221 -0.501182
H15   H     H_    0.312339 0.791442 0.916488 0.239817
H16   H     H_    0.265254 0.633803 0.952776 0.221719
N8    N     N_3   0.275979 0.404104 0.862934 -0.593019
H17   H     H_    0.276162 0.380380 0.768594 0.250578
H18   H     H_    0.213499 0.333577 0.899634 0.219682
N9    N     N_3   0.532552 0.771343 0.890238 -0.599012
H19   H     H_    0.619832 0.742114 0.867730 0.226070
H20   H     H_    0.490132 0.822186 0.816655 0.289561
N10   N     N_3   0.438593 0.244040 0.880274 -0.561492
H21   H     H_    0.516328 0.211802 0.928842 0.236104
H22   H     H_    0.369445 0.168551 0.891815 0.219524
N11   N     N_3   0.729277 0.539090 0.128546 -0.596245
H23   H     H_    0.811870 0.508676 0.092016 0.221640
H24   H     H_    0.737835 0.523199 0.223210 0.215846
N12   N     N_3   0.651873 0.303894 0.101159 -0.631919
H25   H     H_    0.666715 0.293379 0.195847 0.245764
H26   H     H_    0.733276 0.274043 0.061886 0.212648
N13   N     N_R   0.117282 0.268592 0.387149 0.126858
O9    O     O_R   0.112761 0.144721 0.433962 -0.343431
O10   O     O_R   0.166009 0.285560 0.281498 -0.405937
N14   N     N_R   0.135977 0.735121 0.597310 0.144171
O11   O     O_R   0.149773 0.751390 0.716027 -0.375492
O12   O     O_R   0.158448 0.840778 0.527945 -0.328784
N15   N     N_3   0.860226 0.273140 0.382550 -0.567731
H27   H     H_    0.878426 0.180200 0.427661 0.261763
H28   H     H_    0.887116 0.262944 0.291744 0.236545
N16   N     N_3   0.883140 0.732776 0.599748 -0.589570
H29   H     H_    0.911339 0.742775 0.692650 0.247681
H30   H     H_    0.910139 0.823065 0.554639 0.264662

loop_
_geom_bond_atom_site_label_1
_geom_bond_atom_site_label_2
_geom_bond_distance
_ccdc_geom_bond_type
H3    C12   1.106613 S    
C13   C15   1.401105 A    
C20   N1    1.366407 A    
N3    H7    1.046673 S    
C8    N8    1.474864 S    
C14   N14   1.433392 S    
Cu1   Cu2   2.687827 S    
N5    H12   1.041247 S    
N7    H15   1.047141 S    
Cu1   O7    2.000012 S    
N14   O12   1.300798 A    
C16   C17   1.403820 A    
O7    C4    1.296857 A    
C8    C11   1.599688 S    
N8    H17   1.045545 S    
Cu1   O5    1.988462 S    
C9    C12   1.563971 S    
O5    C3    1.302948 A    
N10   H22   1.045683 S    
N12   H25   1.043935 S    
N11   H24   1.045618 S    
N6    H14   1.045001 S    
C9    C10   1.586274 S    
C6    N4    1.472631 S    
C6    C8    1.578833 S    
C16   N16   1.427102 S    
C7    N7    1.479350 S    
N15   H28   1.045647 S    
N9    H19   1.038598 S    
C6    C10   1.586783 S    
N3    H8    1.042572 S    
Cu2   N2    2.019895 S    
O3    Cu1   1.989209 S    
N4    H10   1.039910 S    
C19   C20   1.418697 A    
N7    H16   1.042936 S    
N9    H20   1.044941 S    
N14   O11   1.298941 A    
C14   C18   1.410373 A    
C5    N3    1.479316 S    
N16   H30   1.045892 S    
C21   C22   1.419244 A    
N13   O10   1.299741 A    
C7    N9    1.479062 S    
C11   C12   1.570721 S    
N15   H27   1.045042 S    
O1    C1    1.291548 A    
C9    N12   1.473344 S    
C5    C7    1.568412 S    
N10   H21   1.039225 S    
N5    H11   1.025890 S    
Cu2   O8    1.989224 S    
C2    C10   1.502100 S    
N6    H13   1.044983 S    
Cu1   N1    2.019872 S    
C6    H2    1.113527 S    
O3    C2    1.294661 A    
C5    C10   1.587879 S    
O8    C4    1.298993 A    
C13   N13   1.431559 S    
N4    H9    1.045548 S    
C21   N5    1.429555 S    
C5    H1    1.115609 S    
C13   C18   1.410273 A    
O1    Cu1   1.978318 S    
C3    C17   1.467408 S    
Cu2   O6    1.978139 S    
O2    Cu2   1.988682 S    
N16   H29   1.045438 S    
O6    C3    1.292049 A    
O4    Cu2   1.999993 S    
C19   N2    1.368534 A    
C9    N11   1.474175 S    
C14   C16   1.391067 A    
O2    C1    1.300646 A    
N13   O9    1.301193 A    
C15   C17   1.412002 A    
N2    C22   1.352399 A    
O4    C2    1.299401 A    
C22   N6    1.432912 S    
C19   H5    1.080524 S    
N8    H18   1.046287 S    
C20   H6    1.081783 S    
C4    C11   1.503832 S    
C8    N10   1.482066 S    
C1    C18   1.463849 S    
C7    C11   1.611276 S    
C15   N15   1.436473 S    
N1    C21   1.391845 A    
N11   H23   1.046878 S    
H4    C12   1.111126 S    
N12   H26   1.046520 S    
