data_mof_unit_16901.cif
_audit_creation_date              2012-10-26T21:06:33-0400
_audit_creation_method            fapswitch 2.2
_symmetry_space_group_name_H-M    P1
_symmetry_Int_Tables_number       1
_space_group_crystal_system       triclinic
_cell_length_a                    15.869078
_cell_length_b                    10.833387
_cell_length_c                    9.515801
_cell_angle_alpha                 90.011784
_cell_angle_beta                  89.761623
_cell_angle_gamma                 90.173835
_cell_volume                      1635.89542576

loop_
_atom_site_label
_atom_site_type_symbol
_atom_type_description
_atom_site_fract_x
_atom_site_fract_y
_atom_site_fract_z
_atom_type_partial_charge
C1    C     C_R   0.499925 0.262054 0.499955 0.548823
C2    C     C_R   0.553211 0.575554 0.074113 0.015083
C3    C     C_R   0.339762 0.499904 0.500272 0.550040
C4    C     C_R   0.660246 0.500105 0.499728 0.550635
C5    C     C_3   0.970892 0.446821 0.619814 -0.144952
C6    C     C_3   0.029188 0.553621 0.380345 -0.130791
C7    C     C_3   0.027604 0.382094 0.508687 -0.139867
C8    C     C_3   0.972507 0.618458 0.491677 -0.135845
C9    C     C_1   0.250071 0.499808 0.501035 -0.023852
C10   C     C_1   0.749953 0.500320 0.498969 -0.022342
C11   C     C_3   0.026960 0.563129 0.609619 0.290346
C12   C     C_R   0.500053 0.737946 0.500045 0.548817
C13   C     C_3   0.973214 0.437380 0.390602 0.304735
C14   C     C_3   0.082913 0.499559 0.500446 0.028066
C15   C     C_3   0.917135 0.500903 0.499661 0.029258
C16   C     C_1   0.174542 0.499717 0.501324 -0.029118
C17   C     C_1   0.825493 0.500554 0.498704 -0.027182
C18   C     C_R   0.499911 0.063811 0.372277 -0.139059
C19   C     C_R   0.500011 0.936189 0.627724 -0.139200
C20   C     C_3   0.004400 0.319734 0.192644 0.010358
C21   C     C_3   0.009613 0.387846 0.052149 -0.264087
C22   C     C_3   0.079888 0.336381 0.959343 -0.482272
C23   C     C_R   0.500008 0.936111 0.372304 -0.139632
C24   C     C_3   0.997331 0.671977 0.811955 0.006923
C25   C     C_3   0.036671 0.741805 0.935035 -0.255632
C26   C     C_3   0.970121 0.780392 0.042540 -0.494863
C27   C     C_R   0.499914 0.063889 0.627697 -0.139667
C28   C     C_R   0.500043 0.871788 0.500028 0.020448
C29   C     C_R   0.499896 0.128212 0.499973 0.020419
C30   C     C_R   0.446755 0.424430 0.074733 0.013348
C31   C     C_R   0.553226 0.575595 0.925267 0.013928
C32   C     C_R   0.446769 0.424472 0.925887 0.014404
Cu1   Cu    Cu3+1 0.500000 0.500020 0.640660 0.942718
Cu2   Cu    Cu3+1 0.500000 0.499980 0.359340 0.942942
H1    H     H_    0.051290 0.285881 0.513580 0.101252
H2    H     H_    0.595785 0.636264 0.868911 0.106816
H3    H     H_    0.404196 0.363873 0.870019 0.107837
H4    H     H_    0.595765 0.636177 0.129983 0.108839
H5    H     H_    0.988163 0.221568 0.172097 0.148660
H6    H     H_    0.067686 0.319720 0.243465 0.113266
H7    H     H_    0.948492 0.379215 0.996338 0.165776
H8    H     H_    0.021975 0.487103 0.071555 0.161321
H9    H     H_    0.141594 0.344379 0.013347 0.147412
H10   H     H_    0.083402 0.389539 0.859831 0.183062
H11   H     H_    0.067341 0.237954 0.934014 0.140583
H12   H     H_    0.948784 0.714632 0.486564 0.101073
H13   H     H_    0.959806 0.593326 0.854353 0.124567
H14   H     H_    0.954870 0.735899 0.754301 0.128936
H15   H     H_    0.083903 0.682163 0.987586 0.171204
H16   H     H_    0.069634 0.825427 0.894908 0.170931
H17   H     H_    0.922818 0.841683 0.992871 0.149214
H18   H     H_    0.000759 0.831209 0.129960 0.145715
H19   H     H_    0.937784 0.697839 0.086613 0.154582
H20   H     H_    0.945379 0.404040 0.717093 0.096858
H21   H     H_    0.054701 0.596380 0.283094 0.099851
H22   H     H_    0.499864 0.111808 0.272421 0.128374
H23   H     H_    0.500056 0.888192 0.727581 0.128185
H24   H     H_    0.500051 0.888052 0.272462 0.127844
H25   H     H_    0.499869 0.111947 0.727539 0.127990
H26   H     H_    0.404178 0.363784 0.131086 0.105784
N1    N     N_R   0.500020 0.500030 0.852070 -0.223438
N2    N     N_R   0.499980 0.499970 0.147930 -0.223427
O1    O     O_R   0.500000 0.319660 0.618740 -0.509419
O2    O     O_3   0.062238 0.629090 0.723014 -0.562032
O3    O     O_R   0.500000 0.680340 0.381260 -0.509650
O4    O     O_R   0.499990 0.319630 0.381170 -0.508276
O5    O     O_R   0.500010 0.680370 0.618830 -0.508521
O6    O     O_R   0.379080 0.500000 0.618760 -0.491848
O7    O     O_R   0.620920 0.500000 0.381240 -0.491067
O8    O     O_R   0.379080 0.499970 0.381190 -0.501267
O9    O     O_R   0.620920 0.500030 0.618810 -0.500795
O10   O     O_3   0.939290 0.370967 0.276264 -0.559124

loop_
_geom_bond_atom_site_label_1
_geom_bond_atom_site_label_2
_ccdc_geom_bond_type
C23   H24   S    
C24   C25   S    
C5    C7    S    
Cu2   O8    S    
C3    C9    S    
C13   O10   S    
C26   H18   S    
C27   C29   A    
C19   C27   A    
C12   O3    A    
C2    H4    S    
C22   H9    S    
C18   H22   S    
C6    H21   S    
Cu1   O1    S    
Cu2   O4    S    
C1    C29   S    
Cu1   Cu2   S    
C24   O2    S    
C18   C29   A    
C27   H25   S    
C26   H17   S    
C19   H23   S    
C6    C13   S    
C30   C32   A    
C19   C28   A    
Cu2   O7    S    
C12   C28   S    
C8    C11   S    
C21   H7    S    
C1    O1    A    
Cu2   O3    S    
C4    O7    A    
C11   C14   S    
C9    C16   T    
C32   N1    A    
C5    C11   S    
C8    C15   S    
C14   C16   S    
C13   C15   S    
C30   N2    A    
C20   H6    S    
C12   O5    A    
C8    H12   S    
C5    C15   S    
C6    C14   S    
C23   C28   A    
Cu1   O9    S    
C10   C17   T    
C4    C10   S    
C18   C23   A    
C24   H14   S    
C26   H19   S    
C2    N2    A    
C5    H20   S    
C7    C13   S    
C3    O8    A    
C20   C21   S    
Cu1   O5    S    
Cu1   N1    S    
C22   H11   S    
C1    O4    A    
C15   C17   S    
C20   H5    S    
C31   N1    A    
C31   H2    S    
C20   O10   S    
C6    C8    S    
C21   H8    S    
C4    O9    A    
Cu2   N2    S    
C25   C26   S    
C21   C22   S    
C24   H13   S    
C7    H1    S    
C25   H16   S    
C32   H3    S    
C7    C14   S    
C22   H10   S    
C3    O6    A    
Cu1   O6    S    
C2    C31   A    
C11   O2    S    
C25   H15   S    
C30   H26   S    
