data_mof_unit_54219.cif
_audit_creation_date              2012-12-11T16:14:06-0500
_audit_creation_method            fapswitch 2.2
_symmetry_space_group_name_H-M    P1
_symmetry_Int_Tables_number       1
_space_group_crystal_system       triclinic
_cell_length_a                    25.924937
_cell_length_b                    25.910852
_cell_length_c                    27.481493
_cell_angle_alpha                 89.917527
_cell_angle_beta                  89.803317
_cell_angle_gamma                 89.800049
_cell_volume                      18460.101331

loop_
_atom_site_label
_atom_site_type_symbol
_atom_type_description
_atom_site_fract_x
_atom_site_fract_y
_atom_site_fract_z
_atom_type_partial_charge
C1    C     C_R   0.622033 0.439330 0.417651 -0.135819
C2    C     C_R   0.377957 0.438078 0.418007 -0.134470
C3    C     C_R   0.357716 0.578722 0.693058 -0.252530
C4    C     C_R   0.408312 0.342530 0.319736 -0.227763
C5    C     C_R   0.588985 0.654825 0.681225 -0.247436
C6    C     C_R   0.345546 0.589913 0.317091 -0.228381
C7    C     C_R   0.665478 0.392682 0.676938 -0.242239
C8    C     C_R   0.582236 0.353507 0.690539 -0.224466
C9    C     C_R   0.383599 0.673588 0.331463 -0.246198
C10   C     C_R   0.672151 0.613928 0.669747 -0.248496
C11   C     C_R   0.324820 0.381663 0.334428 -0.245530
C12   C     C_R   0.399373 0.661147 0.681430 -0.246097
C13   C     C_R   0.442389 0.617312 0.587075 -0.128270
C14   C     C_R   0.616421 0.326853 0.330734 -0.244204
C15   C     C_R   0.289423 0.346497 0.577596 -0.255252
C16   C     C_R   0.674655 0.617125 0.332581 -0.246199
C17   C     C_R   0.077949 0.138087 0.805024 -0.225180
C18   C     C_R   0.858843 0.794753 0.115168 -0.242257
C19   C     C_R   0.207919 0.852376 0.893076 -0.246436
C20   C     C_R   0.791159 0.143759 0.107030 -0.240187
C21   C     C_R   0.853616 0.791953 0.894374 -0.248808
C22   C     C_R   0.141567 0.205672 0.113399 -0.241206
C23   C     C_R   0.789140 0.155685 0.928189 -0.242504
C24   C     C_R   0.561158 0.378929 0.416585 -0.132555
C25   C     C_R   0.204741 0.858131 0.115626 -0.242473
C26   C     C_R   0.159741 0.792602 0.069900 -0.252899
C27   C     C_R   0.854894 0.206165 0.887891 -0.246565
C28   C     C_R   0.208726 0.155443 0.074352 -0.256591
C29   C     C_R   0.786985 0.851128 0.920825 -0.216104
C30   C     C_R   0.842699 0.210078 0.068844 -0.243241
C31   C     C_R   0.148698 0.785981 0.919151 -0.219745
C32   C     C_R   0.793025 0.840443 0.069951 -0.253636
C33   C     C_R   0.162202 0.101155 0.819845 -0.245124
C34   C     C_R   0.607688 0.674684 0.273032 0.202696
C35   C     C_R   0.369887 0.430553 0.567067 -0.144435
C36   C     C_R   0.319264 0.259676 0.632099 0.199134
C37   C     C_R   0.676018 0.393325 0.272493 0.203610
C38   C     C_R   0.339971 0.594062 0.738973 0.200532
C39   C     C_R   0.391681 0.323364 0.275116 0.202900
C40   C     C_R   0.603410 0.672188 0.727222 0.202665
C41   C     C_R   0.326614 0.606379 0.272185 0.202403
C42   C     C_R   0.682810 0.374666 0.722062 0.214494
C43   C     C_R   0.598234 0.334970 0.735924 0.201408
C44   C     C_R   0.364639 0.691546 0.286956 0.214485
C45   C     C_R   0.687977 0.630837 0.715649 0.199296
C46   C     C_R   0.621793 0.561544 0.417364 -0.133066
C47   C     C_R   0.306752 0.362543 0.290153 0.213781
C48   C     C_R   0.382360 0.677676 0.727187 0.200345
C49   C     C_R   0.635719 0.308984 0.286191 0.213502
C50   C     C_R   0.251946 0.310528 0.591313 0.202499
C51   C     C_R   0.692703 0.635839 0.287955 0.214258
C52   C     C_R   0.094550 0.157412 0.760077 0.199957
C53   C     C_R   0.823809 0.756290 0.127754 0.196273
C54   C     C_R   0.244096 0.814929 0.879246 0.214780
C55   C     C_R   0.753133 0.179846 0.118948 0.196762
C56   C     C_R   0.816379 0.756029 0.880444 0.214981
C57   C     C_R   0.555873 0.382106 0.586765 -0.135986
C58   C     C_R   0.177170 0.243341 0.126424 0.195735
C59   C     C_R   0.751575 0.192377 0.915868 0.203162
C60   C     C_R   0.243142 0.822864 0.128252 0.197034
C61   C     C_R   0.197821 0.756292 0.081679 0.210220
C62   C     C_R   0.818383 0.243433 0.874804 0.199780
C63   C     C_R   0.245443 0.192471 0.086826 0.207197
C64   C     C_R   0.748752 0.816647 0.906303 0.200319
C65   C     C_R   0.805312 0.247278 0.080281 0.205791
C66   C     C_R   0.183605 0.747545 0.905038 0.201854
C67   C     C_R   0.756933 0.802335 0.081749 0.210577
C68   C     C_R   0.438894 0.621254 0.416749 -0.133132
C69   C     C_R   0.180177 0.120097 0.775296 0.215133
C70   C     C_3   0.569845 0.705627 0.242726 -0.364536
C71   C     C_3   0.564674 0.760626 0.262098 -0.893803
C72   C     C_3   0.337692 0.215037 0.663353 -0.366267
C73   C     C_3   0.333048 0.227654 0.717430 -0.897640
C74   C     C_3   0.707936 0.430926 0.242844 -0.365067
C75   C     C_3   0.762667 0.434638 0.262865 -0.894371
C76   C     C_3   0.309417 0.555949 0.769423 -0.372984
C77   C     C_3   0.339787 0.538928 0.814189 -0.879102
C78   C     C_3   0.429377 0.292038 0.244840 -0.365554
C79   C     C_R   0.130304 0.929440 0.933964 -0.144053
C80   C     C_3   0.434614 0.237278 0.264893 -0.893860
C81   C     C_3   0.564238 0.702020 0.757334 -0.378426
C82   C     C_3   0.544100 0.669513 0.799622 -0.875541
C83   C     C_3   0.295862 0.568451 0.242107 -0.364096
C84   C     C_3   0.240915 0.563525 0.261741 -0.893443
C85   C     C_3   0.738126 0.386267 0.735942 -0.370306
C86   C     C_3   0.741691 0.438158 0.761864 -0.883775
C87   C     C_3   0.559578 0.305653 0.766790 -0.365476
C88   C     C_3   0.549024 0.252204 0.745790 -0.883927
C89   C     C_3   0.372991 0.747966 0.274690 -0.371458
C90   C     C_R   0.869498 0.069217 0.066185 -0.135189
C91   C     C_3   0.427291 0.756593 0.255083 -0.902206
C92   C     C_3   0.742366 0.617655 0.731710 -0.364668
C93   C     C_3   0.779828 0.661332 0.720110 -0.895179
C94   C     C_3   0.250533 0.371799 0.277816 -0.370927
C95   C     C_3   0.242579 0.426233 0.258213 -0.901790
C96   C     C_3   0.396141 0.731976 0.742854 -0.360593
C97   C     C_3   0.354423 0.770671 0.728262 -0.896344
C98   C     C_3   0.625964 0.253067 0.273132 -0.371890
C99   C     C_3   0.571375 0.246100 0.254023 -0.901093
C100  C     C_3   0.196663 0.319180 0.575295 -0.373859
C101  C     C_R   0.930245 0.869781 0.933730 -0.130324
C102  C     C_3   0.180762 0.279796 0.536957 -0.883048
C103  C     C_3   0.749065 0.626841 0.275655 -0.371349
C104  C     C_3   0.757517 0.572351 0.256441 -0.901433
C105  C     C_3   0.055948 0.186148 0.728720 -0.365462
C106  C     C_3   0.042586 0.238836 0.750283 -0.884227
C107  C     C_3   0.842772 0.713273 0.160664 -0.367894
C108  C     C_3   0.842478 0.730028 0.213894 -0.897494
C109  C     C_3   0.294419 0.833195 0.856963 -0.369348
C110  C     C_3   0.336239 0.837345 0.895663 -0.877186
C111  C     C_3   0.706846 0.160773 0.147497 -0.365033
C112  C     C_R   0.383367 0.554919 0.587877 -0.134472
C113  C     C_R   0.068446 0.129863 0.067684 -0.135369
C114  C     C_3   0.719175 0.156209 0.201609 -0.893644
C115  C     C_3   0.834814 0.705676 0.858189 -0.368627
C116  C     C_3   0.835140 0.662621 0.896125 -0.876162
C117  C     C_3   0.157638 0.288466 0.156409 -0.367288
C118  C     C_3   0.154443 0.274421 0.210295 -0.894023
C119  C     C_3   0.696641 0.184326 0.933231 -0.368981
C120  C     C_3   0.682356 0.223042 0.972888 -0.898441
C121  C     C_3   0.285702 0.841552 0.161496 -0.368296
C122  C     C_3   0.268389 0.841016 0.214639 -0.897839
C123  C     C_3   0.193837 0.702069 0.061530 -0.374622
C124  C     C_R   0.869686 0.069818 0.933649 -0.125219
C125  C     C_3   0.238274 0.690484 0.026537 -0.903183
C126  C     C_3   0.836774 0.288614 0.844313 -0.365184
C127  C     C_3   0.834983 0.276049 0.790100 -0.896093
C128  C     C_3   0.301040 0.184439 0.071179 -0.374010
C129  C     C_3   0.317729 0.225494 0.034537 -0.887305
C130  C     C_3   0.692779 0.831978 0.913768 -0.376197
C131  C     C_3   0.676874 0.875635 0.879488 -0.883547
C132  C     C_3   0.813496 0.302498 0.063832 -0.370097
C133  C     C_3   0.774643 0.317585 0.024676 -0.896780
C134  C     C_3   0.168485 0.691656 0.912818 -0.374979
C135  C     C_R   0.129954 0.931415 0.067535 -0.134363
C136  C     C_3   0.126278 0.675230 0.877501 -0.883936
C137  C     C_3   0.702609 0.806717 0.061994 -0.374249
C138  C     C_3   0.690710 0.762253 0.027414 -0.904916
C139  C     C_3   0.236484 0.110933 0.762688 -0.371476
C140  C     C_3   0.243101 0.061142 0.733755 -0.878613
C141  C     C_R   0.054274 0.115293 0.911202 -0.134171
C142  C     C_R   0.931655 0.869959 0.067544 -0.135259
C143  C     C_R   0.129775 0.069455 0.067309 -0.130310
C144  C     C_R   0.869865 0.930969 0.933332 -0.130311
C145  C     C_R   0.929503 0.130395 0.065699 -0.125873
C146  C     C_R   0.068993 0.869735 0.933009 -0.129408
C147  C     C_R   0.869957 0.929904 0.066726 -0.130508
C148  C     C_R   0.438691 0.377132 0.419005 -0.135250
C149  C     C_R   0.115499 0.054227 0.911310 -0.136323
C150  C     C_R   0.070137 0.869920 0.066758 -0.131144
C151  C     C_R   0.930132 0.130405 0.933835 -0.156392
C152  C     C_R   0.624332 0.627473 0.348027 0.073571
C153  C     C_R   0.340926 0.340308 0.591742 0.085946
C154  C     C_R   0.627132 0.376795 0.346778 0.073050
C155  C     C_R   0.385666 0.612651 0.663337 0.090368
C156  C     C_R   0.375150 0.371377 0.349600 0.073347
C157  C     C_R   0.623362 0.626742 0.651903 0.090044
C158  C     C_R   0.373716 0.623251 0.346962 0.073574
C159  C     C_R   0.562144 0.623306 0.580369 -0.138878
C160  C     C_R   0.615905 0.381200 0.660343 0.074464
C161  C     C_R   0.111950 0.111514 0.835661 0.074018
C162  C     C_R   0.843170 0.837858 0.088472 0.084226
C163  C     C_R   0.159578 0.838302 0.911384 0.075993
C164  C     C_R   0.836995 0.158961 0.084442 0.081370
C165  C     C_R   0.839271 0.840287 0.912555 0.076824
C166  C     C_R   0.157386 0.160824 0.089462 0.084939
C167  C     C_R   0.840277 0.161396 0.912616 0.083287
C168  C     C_R   0.162014 0.842727 0.088615 0.083898
C169  C     C_R   0.658759 0.664377 0.257603 -0.024559
C170  C     C_R   0.378192 0.560622 0.417691 -0.135878
C171  C     C_R   0.266591 0.267639 0.620124 0.005944
C172  C     C_R   0.665379 0.342641 0.256523 -0.024241
C173  C     C_R   0.350399 0.644718 0.755338 0.006144
C174  C     C_R   0.340629 0.333571 0.260028 -0.023598
C175  C     C_R   0.653717 0.661269 0.744182 0.006037
C176  C     C_R   0.336383 0.657489 0.256732 -0.024346
C177  C     C_R   0.649258 0.344656 0.751591 -0.024439
C178  C     C_R   0.146441 0.149623 0.745551 -0.024120
C179  C     C_R   0.771664 0.761594 0.113137 0.003569
C180  C     C_R   0.231208 0.761926 0.883724 -0.028258
C181  C     C_R   0.618441 0.441029 0.585952 -0.126968
C182  C     C_R   0.761805 0.232701 0.108306 -0.013934
C183  C     C_R   0.763387 0.769424 0.884390 -0.027543
C184  C     C_R   0.230048 0.235319 0.115291 0.001124
C185  C     C_R   0.765741 0.235382 0.886962 -0.009043
C186  C     C_R   0.238216 0.770769 0.113278 0.003073
C187  C     C_R   0.226865 0.237663 0.645279 0.127772
C188  C     C_R   0.678634 0.689143 0.213708 0.101821
C189  C     C_R   0.318856 0.666685 0.794528 0.128241
C190  C     C_R   0.690371 0.322911 0.212511 0.100178
C191  C     C_R   0.673482 0.689675 0.785961 0.128358
C192  C     C_R   0.561079 0.622465 0.418307 -0.136435
C193  C     C_R   0.320706 0.308195 0.216816 0.101435
C194  C     C_R   0.670127 0.316352 0.793447 0.101856
C195  C     C_R   0.311387 0.677294 0.212971 0.102167
C196  C     C_R   0.732059 0.736232 0.142244 0.126910
C197  C     C_R   0.168047 0.180478 0.705800 0.105141
C198  C     C_R   0.737030 0.271460 0.139243 0.131694
C199  C     C_R   0.261142 0.723424 0.856612 0.108259
C200  C     C_R   0.268490 0.260604 0.145425 0.127943
C201  C     C_R   0.725921 0.742139 0.854353 0.110907
C202  C     C_R   0.263825 0.730934 0.141987 0.126543
C203  C     C_R   0.430589 0.369969 0.567369 -0.149574
C204  C     C_R   0.725890 0.263346 0.859768 0.130975
C205  C     C_R   0.605423 0.396071 0.392880 0.078138
C206  C     C_R   0.401902 0.596708 0.614066 0.076443
C207  C     C_R   0.394790 0.393333 0.395010 0.080143
C208  C     C_R   0.605703 0.606830 0.604777 0.078105
C209  C     C_R   0.394879 0.604039 0.393079 0.078521
C210  C     C_R   0.598476 0.399627 0.612274 0.076651
C211  C     C_R   0.604829 0.606004 0.393954 0.078546
C212  C     C_R   0.379599 0.379655 0.579553 0.084709
C213  C     C_R   0.120508 0.878273 0.922132 0.082490
C214  C     C_R   0.622410 0.562211 0.581590 -0.129742
C215  C     C_R   0.878048 0.120659 0.076539 0.077659
C216  C     C_R   0.878893 0.879461 0.922505 0.078846
C217  C     C_R   0.119476 0.120503 0.079361 0.078422
C218  C     C_R   0.879026 0.121177 0.922476 0.082659
C219  C     C_R   0.121062 0.880281 0.078820 0.078845
C220  C     C_R   0.095241 0.095029 0.884439 0.079406
C221  C     C_R   0.880488 0.878861 0.078794 0.079130
C222  C     C_R   0.591134 0.655985 0.318058 -0.227617
C223  C     C_R   0.355741 0.296221 0.617499 -0.249267
C224  C     C_R   0.656657 0.409746 0.317381 -0.228183
H1    H     H_    0.658015 0.459103 0.412178 0.088741
H2    H     H_    0.342583 0.458502 0.410910 0.084684
H3    H     H_    0.728337 0.469719 0.737502 0.251314
H4    H     H_    0.717686 0.438078 0.795399 0.266432
H5    H     H_    0.782372 0.445656 0.772104 0.247854
H6    H     H_    0.754908 0.355555 0.759150 0.203306
H7    H     H_    0.762844 0.387470 0.702808 0.181850
H8    H     H_    0.531733 0.255409 0.708986 0.249902
H9    H     H_    0.585331 0.229481 0.743368 0.266362
H10   H     H_    0.521559 0.231341 0.769796 0.249350
H11   H     H_    0.572862 0.301273 0.804932 0.194919
H12   H     H_    0.522847 0.327857 0.768497 0.185749
H13   H     H_    0.463701 0.651413 0.595864 0.084083
H14   H     H_    0.456068 0.745166 0.282917 0.262591
H15   H     H_    0.433739 0.733516 0.221567 0.267865
H16   H     H_    0.432645 0.798063 0.246260 0.252327
H17   H     H_    0.344669 0.762621 0.247923 0.206807
H18   H     H_    0.367284 0.771823 0.307892 0.185278
H19   H     H_    0.780012 0.669423 0.680403 0.261337
H20   H     H_    0.769076 0.697021 0.739971 0.260970
H21   H     H_    0.819369 0.649876 0.731278 0.246825
H22   H     H_    0.743520 0.608289 0.771053 0.197649
H23   H     H_    0.756140 0.582255 0.712783 0.183167
H24   H     H_    0.540407 0.344076 0.408771 0.085604
H25   H     H_    0.254188 0.454906 0.286016 0.261995
H26   H     H_    0.265857 0.432167 0.224672 0.267794
H27   H     H_    0.201231 0.432298 0.249411 0.252171
H28   H     H_    0.235858 0.343741 0.250909 0.205673
H29   H     H_    0.226417 0.366499 0.310976 0.185405
H30   H     H_    0.349418 0.770662 0.688134 0.260292
H31   H     H_    0.317059 0.761167 0.745812 0.260580
H32   H     H_    0.365933 0.809990 0.739894 0.247284
H33   H     H_    0.403162 0.733862 0.782557 0.197291
H34   H     H_    0.433052 0.743899 0.725510 0.179114
H35   H     H_    0.332458 0.448869 0.564779 0.087616
H36   H     H_    0.542993 0.257520 0.282370 0.262407
H37   H     H_    0.565307 0.270055 0.220969 0.267187
H38   H     H_    0.565062 0.204967 0.244551 0.252341
H39   H     H_    0.653664 0.238412 0.245676 0.205567
H40   H     H_    0.631369 0.228398 0.305874 0.185611
H41   H     H_    0.206841 0.282190 0.504875 0.258685
H42   H     H_    0.182080 0.240040 0.551986 0.260964
H43   H     H_    0.140726 0.288031 0.524922 0.248925
H44   H     H_    0.170035 0.317200 0.606940 0.195763
H45   H     H_    0.191792 0.358352 0.559345 0.184828
H46   H     H_    0.657082 0.541023 0.410020 0.085324
H47   H     H_    0.746080 0.543729 0.284515 0.262121
H48   H     H_    0.734400 0.566021 0.223038 0.267542
H49   H     H_    0.798939 0.566578 0.247526 0.252263
H50   H     H_    0.763809 0.654929 0.248642 0.206588
H51   H     H_    0.772923 0.632421 0.308771 0.185125
H52   H     H_    0.023994 0.234411 0.786510 0.249741
H53   H     H_    0.077897 0.262590 0.754113 0.266154
H54   H     H_    0.015303 0.259329 0.725846 0.249337
H55   H     H_    0.070528 0.191687 0.691048 0.194166
H56   H     H_    0.020176 0.162859 0.725671 0.186145
H57   H     H_    0.531461 0.349826 0.595874 0.094015
H58   H     H_    0.868446 0.763551 0.219154 0.261534
H59   H     H_    0.802896 0.740836 0.225638 0.262011
H60   H     H_    0.856254 0.697714 0.237090 0.247564
H61   H     H_    0.819706 0.677710 0.156418 0.198136
H62   H     H_    0.882804 0.702329 0.150175 0.183439
H63   H     H_    0.324893 0.866277 0.923549 0.253103
H64   H     H_    0.342638 0.799559 0.913770 0.264843
H65   H     H_    0.372954 0.849816 0.878447 0.248061
H66   H     H_    0.307468 0.807378 0.827199 0.200455
H67   H     H_    0.289228 0.871781 0.839858 0.182235
H68   H     H_    0.459482 0.656280 0.409019 0.085822
H69   H     H_    0.750345 0.127372 0.207484 0.259755
H70   H     H_    0.731689 0.193975 0.216363 0.260694
H71   H     H_    0.684259 0.143465 0.221748 0.248075
H72   H     H_    0.672725 0.185923 0.142243 0.198128
H73   H     H_    0.695198 0.122214 0.133718 0.181768
H74   H     H_    0.862549 0.672075 0.925769 0.253227
H75   H     H_    0.796155 0.657163 0.912067 0.264652
H76   H     H_    0.847566 0.625910 0.878821 0.248230
H77   H     H_    0.810850 0.694516 0.826576 0.200785
H78   H     H_    0.874663 0.709816 0.843626 0.182681
H79   H     H_    0.167976 0.946723 0.937742 0.089193
H80   H     H_    0.126888 0.242215 0.215939 0.260684
H81   H     H_    0.192874 0.262676 0.224194 0.260954
H82   H     H_    0.140767 0.308359 0.231388 0.247902
H83   H     H_    0.181937 0.323132 0.151486 0.198010
H84   H     H_    0.118567 0.299953 0.143690 0.182704
H85   H     H_    0.708586 0.218514 0.004514 0.267163
H86   H     H_    0.684915 0.263165 0.958869 0.263833
H87   H     H_    0.642192 0.216024 0.985312 0.251598
H88   H     H_    0.669228 0.187702 0.902453 0.195698
H89   H     H_    0.691688 0.144857 0.948443 0.184162
H90   H     H_    0.832305 0.050828 0.062664 0.087412
H91   H     H_    0.234634 0.866959 0.219887 0.261725
H92   H     H_    0.257767 0.801355 0.226100 0.262192
H93   H     H_    0.300333 0.854712 0.238073 0.247587
H94   H     H_    0.321397 0.818409 0.157283 0.198178
H95   H     H_    0.296572 0.881633 0.151328 0.183549
H96   H     H_    0.239611 0.719865 0.997090 0.262829
H97   H     H_    0.275684 0.690392 0.046048 0.265401
H98   H     H_    0.232679 0.651885 0.009914 0.248179
H99   H     H_    0.193762 0.673399 0.091596 0.196549
H100  H     H_    0.157012 0.696965 0.041535 0.178256
H101  H     H_    0.948289 0.832263 0.937056 0.088360
H102  H     H_    0.860105 0.242315 0.781940 0.261616
H103  H     H_    0.794989 0.267311 0.778586 0.261645
H104  H     H_    0.849010 0.309683 0.768825 0.246341
H105  H     H_    0.814093 0.323992 0.851946 0.196966
H106  H     H_    0.877191 0.298313 0.854073 0.182513
H107  H     H_    0.292338 0.224547 0.002068 0.259135
H108  H     H_    0.316034 0.264529 0.051075 0.260522
H109  H     H_    0.358029 0.217822 0.022723 0.249721
H110  H     H_    0.326979 0.185188 0.103220 0.195710
H111  H     H_    0.306275 0.145992 0.053896 0.185066
H112  H     H_    0.351583 0.530132 0.597528 0.095554
H113  H     H_    0.049963 0.167245 0.064939 0.091191
H114  H     H_    0.699542 0.911002 0.887022 0.249312
H115  H     H_    0.682911 0.864195 0.840987 0.268747
H116  H     H_    0.635371 0.884691 0.884983 0.247832
H117  H     H_    0.666492 0.798743 0.908386 0.197623
H118  H     H_    0.687143 0.844997 0.951895 0.193950
H119  H     H_    0.779032 0.291980 0.992511 0.267054
H120  H     H_    0.734605 0.314732 0.038895 0.263250
H121  H     H_    0.781605 0.358013 0.013011 0.252483
H122  H     H_    0.810250 0.329383 0.095110 0.195540
H123  H     H_    0.852887 0.307612 0.048476 0.184887
H124  H     H_    0.832417 0.051349 0.935853 0.085330
H125  H     H_    0.090598 0.698194 0.883616 0.249810
H126  H     H_    0.139247 0.680517 0.839292 0.268064
H127  H     H_    0.117148 0.633842 0.883335 0.248229
H128  H     H_    0.202043 0.665265 0.908713 0.197840
H129  H     H_    0.154163 0.686602 0.950656 0.192874
H130  H     H_    0.720004 0.760406 0.997874 0.262738
H131  H     H_    0.690446 0.724906 0.047231 0.265592
H132  H     H_    0.652122 0.768254 0.010899 0.248514
H133  H     H_    0.674164 0.807097 0.092288 0.196761
H134  H     H_    0.697418 0.843563 0.041811 0.177926
H135  H     H_    0.167220 0.949877 0.064791 0.091252
H136  H     H_    0.230099 0.027610 0.755790 0.253733
H137  H     H_    0.220398 0.062702 0.699612 0.265024
H138  H     H_    0.284427 0.055643 0.724295 0.247743
H139  H     H_    0.253162 0.143766 0.742154 0.203117
H140  H     H_    0.259817 0.107911 0.796462 0.182041
H141  H     H_    0.029589 0.147219 0.901248 0.095455
H142  H     H_    0.950338 0.832672 0.064764 0.090882
H143  H     H_    0.167252 0.051126 0.065350 0.088039
H144  H     H_    0.832983 0.950419 0.935101 0.084580
H145  H     H_    0.947499 0.167867 0.062925 0.086471
H146  H     H_    0.049441 0.833015 0.934513 0.083879
H147  H     H_    0.832241 0.947654 0.064202 0.086960
H148  H     H_    0.458478 0.340911 0.414074 0.088347
H149  H     H_    0.146775 0.028846 0.901000 0.096779
H150  H     H_    0.052521 0.832245 0.064301 0.087388
H151  H     H_    0.947688 0.168001 0.937516 0.090730
H152  H     H_    0.551621 0.663142 0.329139 0.128614
H153  H     H_    0.395653 0.291382 0.628271 0.125703
H154  H     H_    0.664174 0.448980 0.328809 0.128459
H155  H     H_    0.349346 0.540103 0.680483 0.123877
H156  H     H_    0.447850 0.335472 0.330551 0.128127
H157  H     H_    0.550152 0.662560 0.668739 0.121952
H158  H     H_    0.338722 0.550397 0.328213 0.129018
H159  H     H_    0.543318 0.660142 0.584588 0.087586
H160  H     H_    0.691662 0.414514 0.654158 0.123096
H161  H     H_    0.542993 0.346374 0.679090 0.129068
H162  H     H_    0.404957 0.699640 0.354612 0.127381
H163  H     H_    0.698576 0.591662 0.647468 0.122376
H164  H     H_    0.298952 0.403643 0.357548 0.127175
H165  H     H_    0.421607 0.687453 0.659163 0.120315
H166  H     H_    0.594012 0.301029 0.353422 0.127248
H167  H     H_    0.278219 0.379446 0.555762 0.120926
H168  H     H_    0.700588 0.595476 0.355803 0.127285
H169  H     H_    0.038292 0.144262 0.816145 0.130432
H170  H     H_    0.342421 0.540610 0.412035 0.089090
H171  H     H_    0.898089 0.792253 0.128497 0.130848
H172  H     H_    0.216990 0.892749 0.887692 0.122505
H173  H     H_    0.786025 0.103928 0.118057 0.129030
H174  H     H_    0.894011 0.782806 0.888982 0.122560
H175  H     H_    0.101612 0.210266 0.124356 0.129297
H176  H     H_    0.778296 0.122408 0.949736 0.118567
H177  H     H_    0.206975 0.897354 0.129133 0.130856
H178  H     H_    0.128074 0.781634 0.046519 0.117548
H179  H     H_    0.894646 0.210952 0.876440 0.126296
H180  H     H_    0.220464 0.122044 0.053396 0.119482
H181  H     H_    0.653191 0.461624 0.594105 0.086876
H182  H     H_    0.775309 0.887056 0.937593 0.119223
H183  H     H_    0.876664 0.221296 0.048454 0.118503
H184  H     H_    0.112589 0.774444 0.935615 0.119809
H185  H     H_    0.781849 0.872407 0.046785 0.116928
H186  H     H_    0.188520 0.080183 0.843218 0.123415
H187  H     H_    0.548993 0.760301 0.299756 0.250848
H188  H     H_    0.602679 0.780181 0.262254 0.269072
H189  H     H_    0.538108 0.783037 0.238480 0.256128
H190  H     H_    0.581542 0.707098 0.203860 0.195916
H191  H     H_    0.531450 0.686650 0.243581 0.188579
H192  H     H_    0.541256 0.658597 0.413052 0.089038
H193  H     H_    0.356364 0.262275 0.726241 0.262188
H194  H     H_    0.292270 0.234957 0.727716 0.261327
H195  H     H_    0.347574 0.194586 0.739237 0.246888
H196  H     H_    0.316378 0.179155 0.655030 0.196747
H197  H     H_    0.378827 0.206253 0.655124 0.183820
H198  H     H_    0.762003 0.449672 0.300690 0.251205
H199  H     H_    0.781673 0.396197 0.262759 0.268874
H200  H     H_    0.785747 0.461194 0.239806 0.256002
H201  H     H_    0.709837 0.419720 0.203910 0.196128
H202  H     H_    0.689504 0.469722 0.243776 0.188748
H203  H     H_    0.448335 0.332262 0.564422 0.092379
H204  H     H_    0.377040 0.521173 0.802991 0.259630
H205  H     H_    0.347486 0.572209 0.838452 0.259900
H206  H     H_    0.317169 0.509909 0.834906 0.249415
H207  H     H_    0.271953 0.572977 0.780792 0.196184
H208  H     H_    0.300067 0.520883 0.747955 0.187167
H209  H     H_    0.450543 0.238038 0.302350 0.251210
H210  H     H_    0.396573 0.217791 0.265736 0.269029
H211  H     H_    0.461014 0.214552 0.241266 0.255564
H212  H     H_    0.417495 0.290060 0.206124 0.196140
H213  H     H_    0.467746 0.311059 0.245003 0.188449
H214  H     H_    0.658175 0.542275 0.588073 0.084651
H215  H     H_    0.526077 0.633622 0.785710 0.261790
H216  H     H_    0.575847 0.659213 0.824873 0.260896
H217  H     H_    0.514517 0.691787 0.820112 0.246957
H218  H     H_    0.581147 0.738354 0.771280 0.196981
H219  H     H_    0.530649 0.713618 0.734705 0.179095
H220  H     H_    0.241313 0.548223 0.299507 0.250763
H221  H     H_    0.221137 0.601564 0.261733 0.268875
H222  H     H_    0.218685 0.536744 0.238392 0.256159
H223  H     H_    0.294362 0.579989 0.203223 0.195477
H224  H     H_    0.314968 0.529973 0.242979 0.188525
N1    N     N_R   0.586860 0.450690 0.451700 -0.039721
N2    N     N_R   0.413140 0.450690 0.451700 -0.038079
N3    N     N_R   0.450690 0.586860 0.548300 -0.040458
N4    N     N_R   0.549310 0.413140 0.451700 -0.039704
N5    N     N_R   0.413140 0.450690 0.548300 -0.038097
N6    N     N_R   0.586860 0.549310 0.451700 -0.039378
N7    N     N_R   0.549310 0.413140 0.548300 -0.040785
N8    N     N_R   0.450690 0.586860 0.451700 -0.039653
N9    N     N_R   0.086860 0.950690 0.951700 -0.038069
N10   N     N_R   0.913140 0.049310 0.048300 -0.038809
N11   N     N_R   0.950690 0.913140 0.951700 -0.039377
N12   N     N_R   0.413140 0.549310 0.548300 -0.041267
N13   N     N_R   0.049310 0.086860 0.048300 -0.039556
N14   N     N_R   0.913140 0.049310 0.951700 -0.038601
N15   N     N_R   0.086860 0.950690 0.048300 -0.038522
N16   N     N_R   0.049310 0.086860 0.951700 -0.039891
N17   N     N_R   0.950690 0.913140 0.048300 -0.038859
N18   N     N_R   0.086860 0.049310 0.048300 -0.040269
N19   N     N_R   0.913140 0.950690 0.951700 -0.039662
N20   N     N_R   0.950690 0.086860 0.048300 -0.039181
N21   N     N_R   0.049310 0.913140 0.951700 -0.038580
N22   N     N_R   0.913140 0.950690 0.048300 -0.039527
N23   N     N_R   0.450690 0.413140 0.451700 -0.037829
N24   N     N_R   0.086860 0.049310 0.951700 -0.040595
N25   N     N_R   0.049310 0.913140 0.048300 -0.039493
N26   N     N_R   0.950690 0.086860 0.951700 -0.037071
N27   N     N_R   0.193079 0.157906 0.667918 -0.076971
N28   N     N_R   0.708880 0.764306 0.177635 -0.083540
N29   N     N_R   0.239518 0.701712 0.816882 -0.076814
N30   N     N_R   0.765076 0.291253 0.176230 -0.083987
N31   N     N_R   0.706928 0.766808 0.814823 -0.076759
N32   N     N_R   0.289256 0.232969 0.182348 -0.084138
N33   N     N_R   0.719969 0.315211 0.863969 -0.085849
N34   N     N_R   0.549310 0.586860 0.548300 -0.038364
N35   N     N_R   0.235986 0.707643 0.177449 -0.083577
N36   N     N_R   0.315833 0.725120 0.141215 -0.087686
N37   N     N_R   0.701658 0.238312 0.823197 -0.084867
N38   N     N_R   0.275866 0.312360 0.143628 -0.087904
N39   N     N_R   0.716789 0.690958 0.860113 -0.076693
N40   N     N_R   0.685300 0.279502 0.138422 -0.085959
N41   N     N_R   0.311874 0.714933 0.865820 -0.076173
N42   N     N_R   0.726270 0.684236 0.141807 -0.087663
N43   N     N_R   0.171196 0.232237 0.711645 -0.077406
N44   N     N_R   0.699777 0.660972 0.177081 -0.076254
N45   N     N_R   0.413140 0.549310 0.451700 -0.039602
N46   N     N_R   0.200083 0.260374 0.681858 -0.086416
N47   N     N_R   0.662266 0.304955 0.174577 -0.075455
N48   N     N_R   0.340356 0.686917 0.835187 -0.085440
N49   N     N_R   0.301721 0.335894 0.178920 -0.076543
N50   N     N_R   0.690848 0.665049 0.826349 -0.084625
N51   N     N_R   0.339326 0.698528 0.176245 -0.076375
N52   N     N_R   0.674227 0.264346 0.790629 -0.077116
N53   N     N_R   0.692437 0.341351 0.831275 -0.075298
N54   N     N_R   0.259380 0.681253 0.212376 -0.077602
N55   N     N_R   0.681093 0.741054 0.781220 -0.087212
N56   N     N_R   0.586860 0.450690 0.548300 -0.041031
N57   N     N_R   0.315005 0.256378 0.217469 -0.077602
N58   N     N_R   0.267864 0.673834 0.786378 -0.086246
N59   N     N_R   0.742167 0.316614 0.212217 -0.077714
N60   N     N_R   0.222071 0.186129 0.638027 -0.087113
N61   N     N_R   0.682588 0.741145 0.212800 -0.077423
N62   N     N_R   0.549310 0.586860 0.451700 -0.039055
N63   N     N_R   0.450690 0.413140 0.548300 -0.037431
N64   N     N_R   0.586860 0.549310 0.548300 -0.039264
Ni1   Ni    Ni4+2 0.586090 0.500000 0.500000 0.214901
Ni2   Ni    Ni4+2 0.413910 0.500000 0.500000 0.212599
Ni3   Ni    Ni4+2 0.500000 0.413910 0.500000 0.214069
Ni4   Ni    Ni4+2 0.500000 0.586090 0.500000 0.215586
Ni5   Ni    Ni4+2 0.086090 0.000000 0.000000 0.207617
Ni6   Ni    Ni4+2 0.913910 0.000000 0.000000 0.204228
Ni7   Ni    Ni4+2 0.000000 0.913910 0.000000 0.205732
Ni8   Ni    Ni4+2 0.000000 0.086090 0.000000 0.208100

loop_
_geom_bond_atom_site_label_1
_geom_bond_atom_site_label_2
_ccdc_geom_bond_type
C69   C139  S    
C126  C127  S    
C128  H111  S    
C120  H85   S    
C30   C164  A    
C37   C74   S    
C37   C172  A    
N14   Ni6   S    
C123  H99   S    
C138  H131  S    
C84   H220  S    
C201  N31   A    
C81   H218  S    
C187  N46   A    
C87   H11   S    
C186  C202  S    
C137  H133  S    
C7    C42   A    
C195  N51   A    
C77   H205  S    
C64   C183  A    
C193  N49   A    
C20   H173  S    
C133  H121  S    
C96   H33   S    
N40   N47   A    
N1    Ni1   S    
N8    Ni4   S    
C50   C171  A    
C106  H54   S    
C25   C60   A    
C129  H109  S    
C167  C218  S    
C108  H60   S    
C28   C166  A    
N34   N64   A    
C29   C64   A    
C114  H71   S    
N33   N53   A    
C140  H137  S    
C196  N42   A    
C77   H204  S    
C17   C52   A    
C150  N25   A    
C75   H198  S    
C124  C218  A    
C109  H66   S    
C164  C215  S    
C183  C201  S    
C201  N39   A    
C107  H62   S    
C5    H157  S    
C62   C126  S    
C92   H22   S    
C19   H172  S    
C13   H13   S    
C142  N17   A    
C172  C190  S    
C197  N27   A    
C189  N48   A    
C222  H152  S    
C33   C161  A    
C39   C78   S    
C68   C209  A    
C69   C178  A    
C165  C216  S    
N62   Ni4   S    
C132  H123  S    
N28   N61   A    
C181  N56   A    
C93   H21   S    
C97   H32   S    
C23   C167  A    
C83   H223  S    
C188  N61   A    
C198  N30   A    
C152  C211  S    
C119  H88   S    
C126  H105  S    
C120  H87   S    
C198  N40   A    
C134  H129  S    
C194  N52   A    
C160  C210  S    
C2    H2    S    
C159  N34   A    
C204  N37   A    
C214  H214  S    
C74   H201  S    
C48   C96   S    
C55   C111  S    
C86   H5    S    
C103  H50   S    
C72   C73   S    
C93   H20   S    
C94   H28   S    
C22   C58   A    
C25   H177  S    
C139  C140  S    
C84   H222  S    
C199  N29   A    
C147  H147  S    
C50   C100  S    
N17   N22   A    
C188  N44   A    
C127  H104  S    
C130  C131  S    
C104  H47   S    
C36   C171  A    
C9    C158  A    
C143  N18   A    
C60   C121  S    
C47   C174  A    
C200  N32   A    
C28   C63   A    
C98   H40   S    
N27   N60   A    
C99   H37   S    
C114  H69   S    
C98   C99   S    
N45   Ni2   S    
C150  H150  S    
C13   C206  A    
C90   N10   A    
C136  H125  S    
C80   H210  S    
C121  H95   S    
C73   H194  S    
N26   Ni8   S    
C24   C205  A    
N3    Ni4   S    
C85   H7    S    
C16   C51   A    
C71   H187  S    
C128  C129  S    
C72   H196  S    
C113  H113  S    
C38   C76   S    
C85   C86   S    
N14   N26   A    
C23   C59   A    
C88   H9    S    
C128  H110  S    
C125  H98   S    
C163  C213  S    
C185  C204  S    
C135  N15   A    
N41   N48   A    
C125  H96   S    
C45   C175  A    
C141  C220  A    
C78   C80   S    
C23   H176  S    
N23   Ni3   S    
C115  C116  S    
C133  H119  S    
C148  N23   A    
C139  H140  S    
C45   C92   S    
C148  C207  A    
C66   C134  S    
C56   C115  S    
C190  N47   A    
C184  C200  S    
C32   C162  A    
C107  C108  S    
C162  C221  S    
C89   C91   S    
C159  H159  S    
C68   N8    A    
C78   H213  S    
N30   N59   A    
C192  H192  S    
C158  C209  S    
C149  N24   A    
C145  H145  S    
C46   H46   S    
C14   C154  A    
C86   H3    S    
C57   H57   S    
C53   C179  A    
C95   H26   S    
C6    C158  A    
N17   Ni7   S    
C65   C182  A    
C25   C168  A    
C151  H151  S    
C18   H171  S    
C146  N21   A    
C32   H185  S    
C127  H102  S    
C130  H117  S    
C27   H179  S    
C13   N3    A    
N34   Ni4   S    
N2    N23   A    
C144  C216  A    
C75   H199  S    
C100  H44   S    
C203  H203  S    
N7    Ni3   S    
C58   C117  S    
C181  C210  A    
C22   C166  A    
N4    Ni3   S    
C35   C212  A    
C27   C62   A    
C191  N55   A    
C72   H197  S    
C83   C84   S    
C117  H84   S    
C147  N22   A    
C223  H153  S    
C10   C45   A    
C19   C163  A    
C136  H127  S    
C166  C217  S    
C6    H158  S    
C70   C71   S    
C34   C169  A    
C17   C161  A    
N32   N57   A    
C32   C67   A    
N7    N56   A    
C19   C54   A    
C110  H65   S    
C64   C130  S    
C52   C105  S    
C132  H122  S    
C102  H43   S    
C5    C40   A    
C15   H167  S    
C65   C132  S    
C70   H191  S    
C187  N60   A    
C10   H163  S    
C181  H181  S    
C29   H182  S    
C33   H186  S    
C120  H86   S    
N22   Ni6   S    
C44   C176  A    
C208  C214  A    
C194  N53   A    
C22   H175  S    
C49   C172  A    
C124  H124  S    
C33   C69   A    
C61   C123  S    
C103  H51   S    
N38   N49   A    
C117  C118  S    
N35   N54   A    
C138  H132  S    
C200  N38   A    
C196  N28   A    
C55   C182  A    
C3    H155  S    
C59   C185  A    
C115  H78   S    
C176  C195  S    
C67   C137  S    
C195  N54   A    
C15   C153  A    
C30   C65   A    
N29   N58   A    
N5    N63   A    
C96   H34   S    
C142  H142  S    
C105  H56   S    
C89   H18   S    
C14   H166  S    
C129  H108  S    
C82   H215  S    
N6    Ni1   S    
C44   C89   S    
C36   C72   S    
C189  N58   A    
C1    N1    A    
C87   C88   S    
C152  C222  A    
C11   C47   A    
C8    C43   A    
C224  H154  S    
C12   C48   A    
C151  N26   A    
C122  H91   S    
C107  H61   S    
C26   C61   A    
C192  N62   A    
C12   H165  S    
C39   C174  A    
C31   C163  A    
C123  C125  S    
C51   C103  S    
C46   C211  A    
C20   C164  A    
C118  H81   S    
C21   C165  A    
C143  H143  S    
C58   C184  A    
C29   C165  A    
C131  H116  S    
N8    N45   A    
C90   H90   S    
C18   C53   A    
C124  N14   A    
C76   H207  S    
C110  H63   S    
C116  H75   S    
C9    C44   A    
C102  H41   S    
C91   H16   S    
C202  N35   A    
C34   C70   S    
C142  C221  A    
C63   C128  S    
C97   H31   S    
N18   Ni5   S    
C141  N16   A    
C126  H106  S    
C31   H184  S    
N11   N19   A    
C30   H183  S    
N42   N44   A    
N10   Ni6   S    
C90   C215  A    
C179  C196  S    
C149  H149  S    
N15   Ni5   S    
N63   Ni3   S    
C123  H100  S    
N15   N25   A    
C74   H202  S    
C177  C194  S    
C159  C208  A    
C106  H52   S    
C93   H19   S    
C94   H29   S    
C95   H27   S    
C8    H161  S    
C138  H130  S    
N37   N52   A    
C17   H169  S    
C7    C160  A    
C66   C180  A    
C81   H219  S    
C87   H12   S    
C137  H134  S    
C127  H103  S    
N12   Ni2   S    
C104  H48   S    
C96   C97   S    
C77   H206  S    
C153  C212  S    
C53   C107  S    
C51   C169  A    
N1    N4    A    
N39   N50   A    
C3    C155  A    
C16   C152  A    
C106  H53   S    
C36   C223  A    
C121  C122  S    
C108  H59   S    
C4    C156  A    
C114  H70   S    
C193  N57   A    
C100  H45   S    
C199  N41   A    
N43   N46   A    
C46   N6    A    
C8    C160  A    
C79   H79   S    
C136  H126  S    
C112  H112  S    
C109  H67   S    
C1    H1    S    
C121  H94   S    
C148  H148  S    
C57   C210  A    
C43   C177  A    
C73   H193  S    
C63   C184  A    
C135  H135  S    
C122  H92   S    
C170  N45   A    
C178  C197  S    
C85   H6    S    
C169  C188  S    
N5    Ni2   S    
C79   N9    A    
C21   C56   A    
C141  H141  S    
C119  C120  S    
C153  C223  A    
C56   C183  A    
C7    H160  S    
C88   H10   S    
C105  C106  S    
C125  H97   S    
C145  N20   A    
C131  H114  S    
C112  C206  A    
C67   C179  A    
C109  C110  S    
C18   C162  A    
C91   H14   S    
C92   C93   S    
C47   C94   S    
C111  C114  S    
C203  N63   A    
C168  C219  S    
C139  H139  S    
C94   C95   S    
C71   H189  S    
C52   C178  A    
C146  C213  A    
C82   H217  S    
C214  N64   A    
N56   Ni1   S    
C83   H224  S    
C144  H144  S    
C174  C193  S    
C101  N11   A    
C161  C220  S    
C103  C104  S    
C2    C207  A    
C101  C216  A    
C104  H49   S    
C41   C83   S    
C31   C66   A    
C26   H178  S    
N25   Ni7   S    
C86   H4    S    
C182  C198  S    
C155  C206  S    
C95   H25   S    
C81   C82   S    
C84   H221  S    
C59   C119  S    
C140  H138  S    
C170  C209  A    
C26   C168  A    
N21   Ni7   S    
C99   H36   S    
N9    Ni5   S    
N24   Ni5   S    
C130  H118  S    
C175  C191  S    
N11   Ni7   S    
C14   C49   A    
C143  C217  A    
C112  N12   A    
C42   C177  A    
C16   H168  S    
C35   N5    A    
C15   C50   A    
C156  C207  S    
C49   C98   S    
C145  C215  A    
C191  N50   A    
C98   H39   S    
C117  H83   S    
C3    C38   A    
C132  C133  S    
C111  H73   S    
C6    C41   A    
C119  H89   S    
C1    C205  A    
C147  C221  A    
C80   H209  S    
C146  H146  S    
C116  H74   S    
C73   H195  S    
N64   Ni1   S    
C131  H115  S    
C157  C208  S    
C20   C55   A    
C71   H188  S    
C113  C217  A    
C190  N59   A    
C92   H23   S    
C140  H136  S    
C101  H101  S    
C74   C75   S    
C154  C205  S    
C35   H35   S    
C76   C77   S    
C99   H38   S    
C42   C85   S    
C38   C173  A    
C134  C136  S    
N3    N12   A    
N31   N55   A    
C204  N33   A    
C133  H120  S    
C144  N19   A    
C54   C109  S    
N2    Ni2   S    
C149  C220  A    
C192  C211  A    
C4    C39   A    
C79   C213  A    
C150  C219  A    
C135  C219  A    
C11   H164  S    
C100  C102  S    
C197  N43   A    
C151  C218  A    
C118  H80   S    
C115  H77   S    
C9    H162  S    
C10   C157  A    
N9    N21   A    
C11   C156  A    
C62   C185  A    
C78   H212  S    
C21   H174  S    
C105  H55   S    
C89   H17   S    
C203  C212  A    
C24   H24   S    
C24   N4    A    
C12   C155  A    
C129  H107  S    
C82   H216  S    
C108  H58   S    
C4    H156  S    
C48   C173  A    
N20   Ni8   S    
N19   Ni6   S    
C60   C186  A    
C111  H72   S    
C88   H8    S    
C40   C81   S    
C41   C176  A    
C37   C224  A    
N10   N20   A    
C40   C175  A    
C75   H200  S    
N13   Ni8   S    
C170  H170  S    
C137  C138  S    
C5    C157  A    
N16   Ni8   S    
C171  C187  S    
C43   C87   S    
C68   H68   S    
C180  C199  S    
C57   N7    A    
N6    N62   A    
N36   N51   A    
N13   N18   A    
C118  H82   S    
C173  C189  S    
C61   C186  A    
C54   C180  A    
C134  H128  S    
C154  C224  A    
C28   H180  S    
C80   H211  S    
C76   H208  S    
C110  H64   S    
C116  H76   S    
C122  H93   S    
N16   N24   A    
C102  H42   S    
C91   H15   S    
C202  N36   A    
C70   H190  S    
C34   C222  A    
C27   C167  A    
C97   H30   S    
C2    N2    A    
C113  N13   A    
