data_mof_unit_25873.cif
_audit_creation_date              2012-10-26T21:16:55-0400
_audit_creation_method            fapswitch 2.2
_symmetry_space_group_name_H-M    P1
_symmetry_Int_Tables_number       1
_space_group_crystal_system       triclinic
_cell_length_a                    14.28014
_cell_length_b                    10.819342
_cell_length_c                    9.987262
_cell_angle_alpha                 90.274354
_cell_angle_beta                  90.661671
_cell_angle_gamma                 93.45577
_cell_volume                      1540.11734808

loop_
_atom_site_label
_atom_site_type_symbol
_atom_type_description
_atom_site_fract_x
_atom_site_fract_y
_atom_site_fract_z
_atom_type_partial_charge
C1    C     C_R   0.501628 0.265628 0.499547 0.538150
C2    C     C_R   0.489777 0.732646 0.500575 0.526913
C3    C     C_R   0.668180 0.500272 0.500530 0.498563
C4    C     C_1   0.229321 0.500653 0.497997 -0.063197
C5    C     C_1   0.143704 0.501177 0.497902 -0.066647
C6    C     C_1   0.042855 0.501242 0.498827 -0.020568
C7    C     C_1   0.957208 0.501021 0.499903 -0.017702
C8    C     C_1   0.856342 0.500627 0.500889 -0.061418
C9    C     C_3   0.407785 0.946085 0.167859 0.010694
C10   C     C_3   0.300230 0.932484 0.168649 -0.269246
C11   C     C_3   0.257468 0.012424 0.061344 -0.491257
C12   C     C_1   0.770696 0.500398 0.501282 -0.066251
C13   C     C_3   0.354058 0.858572 0.679792 0.005639
C14   C     C_3   0.276640 0.946314 0.648166 -0.286662
C15   C     C_3   0.181325 0.893081 0.695506 -0.489308
C16   C     C_3   0.603018 0.092293 0.677523 0.042161
C17   C     C_3   0.692797 0.173732 0.702212 -0.274686
C18   C     C_3   0.715122 0.186777 0.851636 -0.496066
C19   C     C_3   0.274081 0.455883 0.879009 0.004530
C20   C     C_3   0.188018 0.372165 0.839884 -0.256534
C21   C     C_3   0.097565 0.438708 0.856805 -0.483579
C22   C     C_3   0.631578 0.630745 0.839270 0.131482
C23   C     C_2   0.448274 0.930830 0.397636 0.263884
C24   C     C_3   0.700797 0.528537 0.873711 -0.272635
C25   C     C_3   0.802800 0.578281 0.864418 -0.496333
C26   C     C_3   0.626062 0.637811 0.157355 0.142744
C27   C     C_3   0.654950 0.751871 0.246352 -0.242747
C28   C     C_3   0.754811 0.804920 0.218498 -0.524018
C29   C     C_2   0.459943 0.860395 0.507392 0.298216
C30   C     C_2   0.442285 0.066210 0.419235 -0.085523
C31   C     C_2   0.506155 0.131274 0.495670 0.264798
C32   C     C_2   0.430775 0.454617 0.921619 0.446273
C33   C     C_2   0.440574 0.436384 0.073925 0.266879
C34   C     C_R   0.331797 0.499645 0.499358 0.513413
Cu1   Cu    Cu3+1 0.500020 0.500020 0.638630 0.966316
Cu2   Cu    Cu3+1 0.499980 0.499980 0.361370 0.998531
H1    H     H_    0.385162 0.112871 0.372428 0.059545
H2    H     H_    0.333543 0.764254 0.639548 0.129095
H3    H     H_    0.293557 0.037181 0.697941 0.174782
H4    H     H_    0.272336 0.961325 0.538425 0.149378
H5    H     H_    0.183282 0.874701 0.804712 0.142474
H6    H     H_    0.161315 0.805293 0.641396 0.151553
H7    H     H_    0.127222 0.960241 0.674908 0.149344
H8    H     H_    0.613479 0.999440 0.720363 0.170251
H9    H     H_    0.543107 0.128953 0.732956 0.160988
H10   H     H_    0.752331 0.131957 0.651695 0.168075
H11   H     H_    0.684770 0.266672 0.658822 0.182672
H12   H     H_    0.431427 0.908087 0.071222 0.170956
H13   H     H_    0.780204 0.246997 0.866475 0.144734
H14   H     H_    0.726105 0.094678 0.895876 0.146171
H15   H     H_    0.656791 0.229229 0.904232 0.147347
H16   H     H_    0.276249 0.540376 0.815791 0.155062
H17   H     H_    0.266195 0.486044 0.984904 0.101356
H18   H     H_    0.193773 0.342113 0.733930 0.180839
H19   H     H_    0.185240 0.288231 0.903851 0.157788
H20   H     H_    0.088300 0.464062 0.963548 0.145001
H21   H     H_    0.036690 0.376767 0.823997 0.148372
H22   H     H_    0.099223 0.523975 0.795169 0.153736
H23   H     H_    0.435406 0.044294 0.168989 0.125133
H24   H     H_    0.659455 0.721104 0.880342 0.074678
H25   H     H_    0.634271 0.665803 0.737157 0.177239
H26   H     H_    0.688694 0.489498 0.974189 0.124363
H27   H     H_    0.690789 0.445776 0.809614 0.185933
H28   H     H_    0.816684 0.617849 0.763766 0.155912
H29   H     H_    0.850178 0.502059 0.881733 0.148619
H30   H     H_    0.818311 0.651286 0.941414 0.135690
H31   H     H_    0.406359 0.252820 0.076277 0.202585
H32   H     H_    0.318476 0.341664 0.123046 0.211694
H33   H     H_    0.662154 0.665248 0.069835 0.121848
H34   H     H_    0.277266 0.833843 0.149895 0.174048
H35   H     H_    0.663431 0.553866 0.179884 0.120310
H36   H     H_    0.606715 0.826368 0.228108 0.225146
H37   H     H_    0.656165 0.727251 0.353522 0.173252
H38   H     H_    0.805692 0.732020 0.231535 0.147232
H39   H     H_    0.773712 0.881889 0.289629 0.163094
H40   H     H_    0.759659 0.841843 0.115012 0.139172
H41   H     H_    0.273503 0.959371 0.267956 0.149203
H42   H     H_    0.269453 0.111803 0.087692 0.154107
H43   H     H_    0.180641 0.990135 0.054412 0.143119
H44   H     H_    0.288878 0.995208 0.962369 0.147670
H45   H     H_    0.359860 0.848691 0.790196 0.160046
N1    N     N_2   0.499070 0.498660 0.846910 -0.040970
N2    N     N_2   0.499040 0.498630 0.153040 -0.034924
N3    N     N_3   0.390429 0.331120 0.131175 -0.603997
O1    O     O_R   0.500010 0.321960 0.617040 -0.497771
O2    O     O_3   0.441808 0.908578 0.633304 -0.604588
O3    O     O_3   0.586996 0.076388 0.538167 -0.586241
O4    O     O_3   0.355778 0.390474 0.858901 -0.583271
O5    O     O_3   0.539534 0.607644 0.890912 -0.470950
O6    O     O_3   0.528000 0.617048 0.122202 -0.415844
O7    O     O_R   0.499990 0.321920 0.382900 -0.484451
O8    O     O_R   0.376070 0.500020 0.617100 -0.463897
O9    O     O_R   0.376040 0.499980 0.382950 -0.459679
O10   O     O_R   0.500010 0.678080 0.617100 -0.496543
O11   O     O_R   0.499990 0.678040 0.382960 -0.447037
O12   O     O_R   0.623960 0.500020 0.617050 -0.531566
O13   O     O_R   0.623930 0.499980 0.382900 -0.506616
O14   O     O_3   0.445905 0.874703 0.271003 -0.576078

loop_
_geom_bond_atom_site_label_1
_geom_bond_atom_site_label_2
_ccdc_geom_bond_type
C9    O14   S    
C19   C20   S    
C34   O9    A    
C28   H38   S    
C7    C8    S    
Cu1   O12   S    
C26   C27   S    
N1    O5    S    
C2    C29   S    
C23   C29   D    
C2    O11   A    
C22   H24   S    
C5    C6    S    
Cu2   N2    S    
C32   O4    S    
C13   H45   S    
C1    C31   S    
C3    C12   S    
C14   H3    S    
Cu2   O9    S    
Cu1   N1    S    
Cu1   Cu2   S    
C16   C17   S    
C13   O2    S    
C16   O3    S    
Cu2   O13   S    
C9    C10   S    
C16   H8    S    
Cu1   O8    S    
C19   H17   S    
H31   N3    S    
C1    O7    A    
C13   C14   S    
C26   H35   S    
C20   H19   S    
C19   H16   S    
C10   H41   S    
C18   H15   S    
C1    O1    A    
C4    C34   S    
C31   O3    S    
H32   N3    S    
C23   C30   S    
C2    O10   A    
C25   H29   S    
C17   H10   S    
C15   H5    S    
C20   H18   S    
C19   O4    S    
C10   C11   S    
C30   H1    S    
C9    H23   S    
C25   H28   S    
C21   H21   S    
C11   H42   S    
C3    O13   A    
C8    C12   T    
C17   C18   S    
C13   H2    S    
C24   C25   S    
C33   N2    D    
C29   O2    S    
C3    O12   A    
C11   H43   S    
C10   H34   S    
Cu2   O7    S    
C24   H27   S    
C22   C24   S    
C28   H40   S    
C18   H14   S    
Cu1   O10   S    
N2    O6    S    
C24   H26   S    
C25   H30   S    
C17   H11   S    
C15   H6    S    
C4    C5    T    
C16   H9    S    
C21   H20   S    
C6    C7    T    
C26   O6    S    
C32   N1    D    
C32   C33   S    
C15   H7    S    
C21   H22   S    
C22   H25   S    
Cu1   O1    S    
Cu2   O11   S    
C30   C31   D    
C22   O5    S    
C33   N3    S    
C34   O8    A    
C11   H44   S    
C14   H4    S    
C23   O14   S    
C20   C21   S    
C9    H12   S    
C27   C28   S    
C26   H33   S    
C14   C15   S    
C27   H37   S    
C28   H39   S    
C27   H36   S    
C18   H13   S    
