data_mof_unit_13532.cif
_audit_creation_date              2012-12-10T17:11:03-0500
_audit_creation_method            fapswitch 2.2
_symmetry_space_group_name_H-M    P1
_symmetry_Int_Tables_number       1
_space_group_crystal_system       triclinic
_cell_length_a                    10.023362
_cell_length_b                    10.668374
_cell_length_c                    16.694779
_cell_angle_alpha                 90.523517
_cell_angle_beta                  85.096856
_cell_angle_gamma                 91.356453
_cell_volume                      1778.14575842

loop_
_atom_site_label
_atom_site_type_symbol
_atom_type_description
_atom_site_fract_x
_atom_site_fract_y
_atom_site_fract_z
_atom_type_partial_charge
C1    C     C_R   0.501910 0.738003 0.500188 0.982634
C2    C     C_R   0.531148 0.490194 0.259559 -0.128235
C3    C     C_2   0.604959 0.070759 0.528207 -0.330311
C4    C     C_R   0.480805 0.494083 0.653473 0.838973
C5    C     C_2   0.491961 0.136457 0.539214 -0.085330
C6    C     C_2   0.604118 0.935595 0.534689 0.473849
C7    C     C_2   0.508193 0.871457 0.499421 -0.411442
C8    C     C_2   0.077825 0.429792 0.452002 0.120995
C9    C     C_2   0.930914 0.446922 0.444529 -0.161636
C10   C     C_R   0.497413 0.263092 0.508681 0.913290
C11   C     C_R   0.518794 0.499470 0.346657 0.880123
C12   C     C_R   0.348646 0.462975 0.789402 0.100145
C13   C     C_R   0.468571 0.453613 0.737524 -0.069540
C14   C     C_R   0.577537 0.388478 0.763217 -0.242120
C15   C     C_R   0.571287 0.336832 0.838926 -0.202911
C16   C     C_R   0.457147 0.351496 0.891421 0.137831
C17   C     C_R   0.345494 0.411151 0.866323 -0.217110
C18   C     C_3   0.366125 0.089122 0.589386 -0.419813
C19   C     C_3   0.332978 0.173602 0.663067 -0.323912
C20   C     C_3   0.222381 0.116158 0.720669 -0.916026
C21   C     C_3   0.140219 0.326851 0.399665 -0.343010
C22   C     C_3   0.091578 0.197636 0.431215 -0.371627
C23   C     C_R   0.656726 0.425997 0.136976 -0.206317
C24   C     C_3   0.166618 0.092442 0.385658 -0.888810
C25   C     C_3   0.223789 0.527468 0.766807 -0.414663
C26   C     C_3   0.246381 0.669572 0.756996 -0.317162
C27   C     C_3   0.123152 0.729958 0.727540 -0.865151
C28   C     C_3   0.369720 0.250276 0.026074 -0.359687
C29   C     C_3   0.379299 0.115222 0.994201 -0.372414
C30   C     C_3   0.283840 0.026972 0.044004 -0.861449
C31   C     C_R   0.649829 0.447002 0.219231 -0.200480
C32   C     C_R   0.421937 0.518563 0.216627 -0.216077
C33   C     C_R   0.428895 0.501496 0.133915 0.469532
C34   C     C_R   0.545641 0.448644 0.094703 0.054782
C35   C     C_2   0.467581 0.336570 0.977336 0.074479
C36   C     C_2   0.554157 0.416742 0.009748 -0.299973
H1    H     H_    0.668592 0.375977 0.724419 0.171082
H2    H     H_    0.258853 0.424113 0.908785 0.130422
H3    H     H_    0.747194 0.388401 0.106632 0.156734
H4    H     H_    0.658679 0.292108 0.858604 0.141970
H5    H     H_    0.346819 0.544094 0.036326 0.335503
H6    H     H_    0.131407 0.095353 0.688845 0.262061
H7    H     H_    0.257276 0.028636 0.746741 0.263029
H8    H     H_    0.196383 0.183189 0.770556 0.256652
H9    H     H_    0.423905 0.188325 0.695958 0.233421
H10   H     H_    0.298989 0.265790 0.643711 0.244197
H11   H     H_    0.280627 0.085400 0.551414 0.207934
H12   H     H_    0.698611 0.113128 0.502699 0.163381
H13   H     H_    0.378328 0.993234 0.612376 0.225006
H14   H     H_    0.763617 0.941112 0.592650 0.325259
H15   H     H_    0.150864 0.096079 0.320669 0.265957
H16   H     H_    0.275554 0.100932 0.393158 0.257459
H17   H     H_    0.128814 0.000367 0.409689 0.256963
H18   H     H_    0.107004 0.190992 0.496137 0.229387
H19   H     H_    0.982674 0.184847 0.424517 0.217999
H20   H     H_    0.112377 0.338167 0.337112 0.166841
H21   H     H_    0.249643 0.331482 0.395795 0.266279
H22   H     H_    0.101587 0.689992 0.668215 0.259094
H23   H     H_    0.430896 0.918801 0.470076 0.115551
H24   H     H_    0.034699 0.714152 0.771357 0.259524
H25   H     H_    0.141496 0.832354 0.720711 0.247609
H26   H     H_    0.267177 0.712008 0.815847 0.215177
H27   H     H_    0.333591 0.690930 0.713379 0.225239
H28   H     H_    0.187535 0.483638 0.711972 0.222564
H29   H     H_    0.140113 0.512480 0.814218 0.186410
H30   H     H_    0.309127 0.026481 0.107504 0.263242
H31   H     H_    0.178758 0.056751 0.041861 0.259712
H32   H     H_    0.292632 0.930231 0.019307 0.257548
H33   H     H_    0.353636 0.111209 0.930709 0.228831
H34   H     H_    0.100320 0.572135 0.528744 0.148728
H35   H     H_    0.483444 0.082508 0.996350 0.229050
H36   H     H_    0.390068 0.250362 0.090438 0.215513
H37   H     H_    0.266280 0.283725 0.022510 0.203600
H38   H     H_    0.886903 0.405720 0.392942 0.159488
H39   H     H_    0.892105 0.526842 0.551293 0.165856
H40   H     H_    0.735405 0.424986 0.251579 0.162514
H41   H     H_    0.331009 0.554826 0.247235 0.178964
H42   H     H_    0.624569 0.473380 0.971319 0.161583
N1    N     N_2   0.147950 0.498670 0.499150 -0.210737
N2    N     N_2   0.852290 0.498640 0.499130 -0.193737
O1    O     O_R   0.386960 0.680940 0.500010 -0.625745
O2    O     O_3   0.703655 0.875958 0.571260 -0.744155
O3    O     O_R   0.613100 0.680900 0.499990 -0.531629
O4    O     O_R   0.373570 0.500040 0.615810 -0.627244
O5    O     O_R   0.599710 0.500000 0.615790 -0.606484
O6    O     O_R   0.386900 0.319100 0.500010 -0.632365
O7    O     O_R   0.613040 0.319060 0.499990 -0.623462
O8    O     O_R   0.400290 0.500000 0.384210 -0.636054
O9    O     O_R   0.626430 0.499960 0.384190 -0.612929
O10   O     O_3   0.320069 0.536478 0.094511 -0.793617
Zn1   Zn    Zn3+2 0.349000 0.500030 0.500020 0.911373
Zn2   Zn    Zn3+2 0.651000 0.499970 0.499980 0.962023

loop_
_geom_bond_atom_site_label_1
_geom_bond_atom_site_label_2
_ccdc_geom_bond_type
C24   H16   S    
C6    O2    S    
C35   C36   D    
C3    C6    S    
C18   H11   S    
C19   H10   S    
C22   H18   S    
O3    Zn2   S    
C26   C27   S    
C28   C29   S    
C27   H24   S    
C16   C35   S    
C28   H37   S    
C1    O1    A    
C15   C16   A    
C3    H12   S    
C2    C32   A    
C18   C19   S    
C4    C13   S    
C22   H19   S    
C27   H25   S    
C32   H41   S    
C19   C20   S    
C28   C35   S    
C8    C9    S    
C12   C17   A    
C8    N1    D    
O4    Zn1   S    
H39   N2    S    
N1    Zn1   S    
C30   H31   S    
C24   H15   S    
H5    O10   S    
C21   C22   S    
C28   H36   S    
C2    C11   S    
C7    H23   S    
C20   H8    S    
O5    Zn2   S    
C8    C21   S    
C29   H33   S    
C10   O7    A    
C25   H29   S    
C16   C17   A    
C4    O5    A    
C24   H17   S    
C2    C31   A    
C9    N2    D    
C23   C31   A    
N2    Zn2   S    
C26   H27   S    
C21   H21   S    
C29   C30   S    
C11   O9    A    
C4    O4    A    
O8    Zn1   S    
C11   O8    A    
C23   C34   A    
C33   C34   A    
O9    Zn2   S    
C30   H30   S    
C22   C24   S    
C9    H38   S    
C20   H7    S    
O7    Zn2   S    
H14   O2    S    
C10   O6    A    
H34   N1    S    
C1    C7    S    
C3    C5    D    
C27   H22   S    
C21   H20   S    
C20   H6    S    
C19   H9    S    
C6    C7    D    
C5    C18   S    
C1    O3    A    
C12   C25   S    
O6    Zn1   S    
C32   C33   A    
C25   C26   S    
C5    C10   S    
C36   H42   S    
C33   O10   S    
C14   H1    S    
C31   H40   S    
C23   H3    S    
C34   C36   S    
C17   H2    S    
C26   H26   S    
C15   H4    S    
O1    Zn1   S    
C12   C13   A    
C14   C15   A    
C13   C14   A    
C25   H28   S    
C30   H32   S    
C18   H13   S    
C29   H35   S    
