data_mof_unit_26795.cif
_audit_creation_date              2012-12-11T16:52:18-0500
_audit_creation_method            fapswitch 2.2
_symmetry_space_group_name_H-M    P1
_symmetry_Int_Tables_number       1
_space_group_crystal_system       triclinic
_cell_length_a                    7.227314
_cell_length_b                    25.995932
_cell_length_c                    28.69509
_cell_angle_alpha                 89.995121
_cell_angle_beta                  90.000935
_cell_angle_gamma                 90.638602
_cell_volume                      5390.92052587

loop_
_atom_site_label
_atom_site_type_symbol
_atom_type_description
_atom_site_fract_x
_atom_site_fract_y
_atom_site_fract_z
_atom_type_partial_charge
O1    O     O_R   0.601030 0.796770 0.202460 -0.501559
O2    O     O_R   0.398970 0.203230 0.797540 -0.508013
O3    O     O_R   0.398970 0.203230 0.702460 -0.500919
O4    O     O_R   0.601030 0.796770 0.297540 -0.506794
O5    O     O_R   0.101030 0.703230 0.297540 -0.524880
O6    O     O_R   0.898970 0.296770 0.702460 -0.517862
O7    O     O_R   0.898970 0.296770 0.797540 -0.524602
O8    O     O_R   0.101030 0.703230 0.202460 -0.517088
O9    O     O_R   0.271290 0.802910 0.297210 -0.537896
O10   O     O_R   0.728710 0.197090 0.702790 -0.546127
O11   O     O_R   0.728710 0.197090 0.797210 -0.537729
O12   O     O_R   0.271290 0.802910 0.202790 -0.545817
O13   O     O_R   0.771290 0.697090 0.202790 -0.540026
O14   O     O_R   0.228710 0.302910 0.797210 -0.545662
O15   O     O_R   0.228710 0.302910 0.702790 -0.540414
O16   O     O_R   0.771290 0.697090 0.297210 -0.545733
C1    C     C_R   0.440948 0.815635 0.312178 0.773146
C2    C     C_R   0.559224 0.185238 0.687011 0.763388
C3    C     C_R   0.559064 0.184373 0.812165 0.779611
C4    C     C_R   0.440773 0.814752 0.187005 0.762168
C5    C     C_R   0.939390 0.684353 0.187780 0.792579
C6    C     C_R   0.060807 0.315028 0.812538 0.790400
C7    C     C_R   0.060624 0.315622 0.687762 0.789419
C8    C     C_R   0.939193 0.684966 0.312540 0.787093
O17   O     O_3   0.434520 0.717290 0.250000 -0.378805
O18   O     O_3   0.565480 0.282710 0.750000 -0.379584
O19   O     O_3   0.934520 0.782710 0.250000 -0.359040
O20   O     O_3   0.065480 0.217290 0.750000 -0.358863
V1    V     V_3+5 0.159680 0.756060 0.250000 1.649135
V2    V     V_3+5 0.840320 0.243940 0.750000 1.649631
V3    V     V_3+5 0.659680 0.743940 0.250000 1.653953
V4    V     V_3+5 0.340320 0.256060 0.750000 1.655223
C9    C     C_R   0.924200 0.396436 0.655294 0.534663
C10   C     C_R   0.990925 0.666395 0.396862 0.545049
C11   C     C_R   0.078138 0.604003 0.155001 0.518836
C12   C     C_R   0.007064 0.333655 0.896755 0.529938
C13   C     C_R   0.391011 0.111212 0.851658 0.543194
C14   C     C_R   0.607461 0.851870 0.117347 0.515967
C15   C     C_R   0.610697 0.888101 0.352369 0.524988
C16   C     C_R   0.392476 0.148022 0.617392 0.516676
C17   C     C_R   0.914490 0.435361 0.621095 0.346566
C18   C     C_R   0.993709 0.632446 0.435278 0.336357
C19   C     C_R   0.088398 0.565107 0.120799 0.412315
C20   C     C_R   0.004318 0.367559 0.935196 0.412282
C21   C     C_R   0.370634 0.075715 0.888507 0.402848
C22   C     C_R   0.626141 0.888620 0.081481 0.332538
C23   C     C_R   0.630911 0.923453 0.389354 0.332639
C24   C     C_R   0.373921 0.111246 0.581546 0.333188
C25   C     C_R   0.025914 0.431959 0.580391 0.032699
C26   C     C_R   0.962667 0.578944 0.427924 0.042968
C27   C     C_R   0.974727 0.567976 0.080441 0.035780
C28   C     C_R   0.037242 0.421012 0.927935 0.048688
C29   C     C_R   0.511255 0.072645 0.922935 0.012537
C30   C     C_R   0.484321 0.925205 0.074713 0.047911
C31   C     C_R   0.488485 0.927120 0.423222 0.042637
C32   C     C_R   0.515738 0.074666 0.574839 0.048042
C33   C     C_R   0.154690 0.391880 0.577277 -0.034859
C34   C     C_R   0.917322 0.561743 0.382806 -0.046726
C35   C     C_R   0.843759 0.607546 0.077687 -0.051343
C36   C     C_R   0.084436 0.438132 0.882900 -0.064828
C37   C     C_R   0.663938 0.106456 0.920424 -0.043264
C38   C     C_R   0.333380 0.925626 0.105550 0.012812
C39   C     C_R   0.334162 0.893973 0.420111 0.022382
C40   C     C_R   0.666763 0.074302 0.605643 0.015374
H1    H     H_    0.243030 0.388770 0.546930 0.203523
H2    H     H_    0.891513 0.521223 0.376430 0.189678
H3    H     H_    0.753815 0.610286 0.047607 0.206693
H4    H     H_    0.111593 0.478599 0.876571 0.192683
H5    H     H_    0.772120 0.104835 0.946509 0.223448
H6    H     H_    0.224530 0.953541 0.101159 0.210972
H7    H     H_    0.224784 0.895972 0.445850 0.216018
H8    H     H_    0.775599 0.046380 0.601271 0.211447
C41   C     C_R   0.169371 0.354959 0.612603 -0.208280
C42   C     C_R   0.906951 0.596216 0.345413 -0.228291
C43   C     C_R   0.828902 0.644459 0.113006 -0.201525
C44   C     C_R   0.094925 0.403665 0.845517 -0.223650
C45   C     C_R   0.680631 0.142162 0.884224 -0.162012
C46   C     C_R   0.318822 0.889834 0.141771 -0.183205
C47   C     C_R   0.317534 0.858390 0.383807 -0.146226
C48   C     C_R   0.681338 0.110152 0.641813 -0.178483
H9    H     H_    0.269114 0.324426 0.608931 0.187947
H10   H     H_    0.871715 0.581891 0.311055 0.184480
H11   H     H_    0.727475 0.674595 0.109584 0.189010
H12   H     H_    0.131649 0.417935 0.811235 0.186021
H13   H     H_    0.799518 0.167902 0.883579 0.224411
H14   H     H_    0.200626 0.891453 0.164908 0.192779
H15   H     H_    0.197341 0.833144 0.382739 0.216058
H16   H     H_    0.799604 0.108587 0.664931 0.194214
C49   C     C_R   0.051502 0.356162 0.651360 -0.230313
C50   C     C_R   0.946498 0.648525 0.352035 -0.219833
C51   C     C_R   0.948637 0.643774 0.151412 -0.234527
C52   C     C_R   0.053477 0.351452 0.852032 -0.223703
C53   C     C_R   0.544829 0.144975 0.849515 -0.249352
C54   C     C_R   0.454974 0.852492 0.148096 -0.221774
C55   C     C_R   0.455173 0.854992 0.349601 -0.233373
C56   C     C_R   0.545040 0.147463 0.648129 -0.221557
C57   C     C_R   0.164373 0.498236 0.526030 0.553841
C58   C     C_R   0.827383 0.509216 0.479244 0.547423
C59   C     C_R   0.836187 0.501538 0.026249 0.572446
C60   C     C_R   0.172359 0.491009 0.978999 0.575626
C61   C     C_R   0.497282 0.051730 0.008320 0.570888
C62   C     C_R   0.489258 0.946200 0.989193 0.637402
C63   C     C_R   0.499168 0.948088 0.508630 0.563587
C64   C     C_R   0.513236 0.053576 0.489366 0.634308
C65   C     C_R   0.149735 0.533149 0.488984 0.618226
C66   C     C_R   0.842979 0.473521 0.515754 0.617892
C67   C     C_R   0.850493 0.466744 0.989115 0.586486
C68   C     C_R   0.156827 0.526767 0.015453 0.582361
C69   C     C_R   0.491473 0.016147 0.045002 0.546204
C70   C     C_R   0.505155 0.981665 0.952695 0.618919
C71   C     C_R   0.505434 0.983714 0.545271 0.555907
C72   C     C_R   0.497709 0.018097 0.452872 0.635383
C73   C     C_R   0.979747 0.540158 0.466084 -0.361368
C74   C     C_R   0.010315 0.468704 0.540486 -0.369790
C75   C     C_R   0.020237 0.459850 0.966059 -0.325960
C76   C     C_R   0.990094 0.531259 0.040509 -0.323320
C77   C     C_R   0.488480 0.963001 0.035773 -0.316288
C78   C     C_R   0.503658 0.034798 0.961790 -0.319901
C79   C     C_R   0.511426 0.036828 0.535961 -0.319740
C80   C     C_R   0.495819 0.964974 0.462062 -0.321996
F1    F     F_    0.812607 0.398525 0.693361 -0.622860
F2    F     F_    0.028353 0.717285 0.403042 -0.628314
F3    F     F_    0.191549 0.602345 0.192751 -0.620894
F4    F     F_    0.967752 0.282851 0.902838 -0.626394
F5    F     F_    0.262491 0.112266 0.817141 -0.608746
F6    F     F_    0.736610 0.814568 0.121606 -0.647718
F7    F     F_    0.741441 0.886526 0.318391 -0.626702
F8    F     F_    0.263222 0.185295 0.621630 -0.647743
S1    S     S_3+6 0.767626 0.488286 0.632158 0.205280
O21   O     O_2   0.572653 0.472853 0.620092 -0.195935
O22   O     O_2   0.774477 0.501929 0.683050 -0.245987
O23   O     O_3   0.828039 0.540619 0.601059 -0.444860
H17   H     H_    0.951795 0.550760 0.612986 0.374607
S2    S     S_3+6 0.027234 0.658654 0.491880 0.207986
O24   O     O_2   0.230862 0.660897 0.502288 -0.202492
O25   O     O_2   0.952225 0.712302 0.494235 -0.214899
O26   O     O_3   0.920769 0.622616 0.532691 -0.457636
H18   H     H_    0.787836 0.623396 0.524329 0.387239
S3    S     S_3+6 0.239534 0.513050 0.131511 0.178236
O27   O     O_2   0.433675 0.530383 0.120568 -0.228583
O28   O     O_2   0.229365 0.498406 0.182134 -0.247642
O29   O     O_3   0.184968 0.460999 0.099370 -0.483033
H19   H     H_    0.293286 0.438177 0.102045 0.412083
S4    S     S_3+6 0.968040 0.341244 0.991643 0.185852
O30   O     O_2   0.763635 0.337989 0.000963 -0.230621
O31   O     O_2   0.047153 0.288073 0.994104 -0.220130
O32   O     O_3   0.070363 0.377829 0.032731 -0.483378
H20   H     H_    0.027876 0.363101 0.062766 0.401219
S5    S     S_3+6 0.165211 0.037441 0.891260 0.140215
O33   O     O_2   0.200634 0.986028 0.869288 -0.209130
O34   O     O_2   0.106173 0.029732 0.941031 -0.322471
O35   O     O_3   0.992743 0.065823 0.861978 -0.461813
H21   H     H_    0.893721 0.039270 0.859782 0.389276
S6    S     S_3+6 0.831731 0.888680 0.047257 0.133580
O36   O     O_2   0.883872 0.942507 0.032851 -0.301255
O37   O     O_2   0.989240 0.866416 0.074468 -0.291814
O38   O     O_3   0.799069 0.852643 0.999280 -0.382733
H22   H     H_    0.763644 0.818119 0.011120 0.378991
S7    S     S_3+6 0.838551 0.960756 0.392978 0.143069
O39   O     O_2   0.892194 0.969343 0.443006 -0.297970
O40   O     O_2   0.994212 0.933938 0.368689 -0.286820
O41   O     O_3   0.807990 0.018071 0.367186 -0.380990
H23   H     H_    0.770488 0.009741 0.334827 0.385705
S8    S     S_3+6 0.168815 0.111181 0.547140 0.135100
O42   O     O_2   0.116085 0.057291 0.533069 -0.298270
O43   O     O_2   0.011175 0.133873 0.574007 -0.291031
O44   O     O_3   0.202996 0.146725 0.498923 -0.384718
H24   H     H_    0.238891 0.181305 0.510535 0.377659
F9    F     F_    0.329059 0.493737 0.548167 -0.508803
F10   F     F_    0.662701 0.513996 0.457025 -0.550478
F11   F     F_    0.671909 0.505749 0.048632 -0.519830
F12   F     F_    0.336798 0.486386 0.956634 -0.545832
F13   F     F_    0.496380 0.102805 0.018182 -0.546736
F14   F     F_    0.472636 0.895400 0.979024 -0.537118
F15   F     F_    0.496959 0.897022 0.518564 -0.544090
F16   F     F_    0.532031 0.104330 0.479197 -0.539539
F17   F     F_    0.302408 0.559888 0.475146 -0.530594
F18   F     F_    0.694741 0.443450 0.526875 -0.556558
F19   F     F_    0.697797 0.439930 0.975413 -0.527594
F20   F     F_    0.304809 0.557041 0.026347 -0.561246
F21   F     F_    0.490288 0.033549 0.089608 -0.563200
F22   F     F_    0.525458 0.964082 0.908497 -0.529705
F23   F     F_    0.504110 0.966404 0.589910 -0.554334
F24   F     F_    0.481364 0.035649 0.408559 -0.535857

loop_
_geom_bond_atom_site_label_1
_geom_bond_atom_site_label_2
_ccdc_geom_bond_type
O17   V3    S    
O18   V4    S    
O38   H22   S    
O12   V1    S    
O19   V1    S    
C2    C56   S    
C14   C54   A    
C61   F13   S    
O32   H20   S    
C10   C18   A    
C24   C32   A    
C19   C27   A    
C70   C78   A    
S2    O26   S    
C47   H15   S    
C69   C77   A    
O15   V4    S    
C72   F24   S    
C23   S7    S    
O16   V3    S    
O11   C3    A    
S8    O43   D    
C66   C74   A    
O8    V1    S    
C65   C73   A    
S8    O42   D    
C12   F4    S    
C42   H10   S    
S1    O21   D    
S5    O34   D    
S3    O29   S    
C59   F11   S    
C37   H5    S    
C16   F8    S    
O1    V3    S    
C57   F9    S    
C38   H6    S    
O3    C2    A    
O2    V4    S    
C17   C25   A    
C28   C36   A    
C35   H3    S    
C29   C37   A    
C34   H2    S    
C63   C80   A    
O11   V2    S    
C37   C45   A    
O23   H17   S    
C31   C39   A    
C71   F23   S    
C7    C49   S    
C19   S3    S    
C1    C55   S    
C48   C56   A    
C11   C19   A    
S6    O37   D    
C3    C53   S    
C43   C51   A    
S1    O23   S    
C57   C65   A    
C12   C52   A    
O15   C7    A    
C25   C74   S    
C23   C31   A    
C45   H13   S    
C10   F2    S    
O7    V2    S    
C9    F1    S    
C40   C48   A    
C22   C30   A    
C60   C75   A    
C42   C50   A    
C16   C56   A    
S4    O32   S    
C41   H9    S    
C14   F6    S    
C38   C46   A    
C13   F5    S    
C31   C80   S    
C22   S6    S    
C44   H12   S    
C60   C68   A    
C15   F7    S    
C13   C53   A    
C26   C34   A    
S6    O38   S    
C64   F16   S    
S5    O35   S    
C65   F17   S    
C59   C76   A    
C72   C80   A    
C29   C78   S    
C58   C73   A    
S2    O25   D    
C30   C38   A    
C36   C44   A    
C64   C72   A    
C10   C50   A    
C47   C55   A    
C9    C49   A    
O10   V2    S    
C64   C79   A    
S7    O39   D    
C20   S4    S    
C15   C55   A    
O12   C4    A    
C63   F15   S    
O8    C5    A    
S7    O41   S    
O13   C5    A    
O9    C1    A    
C67   C75   A    
S6    O36   D    
C39   H7    S    
C62   C77   A    
C18   C26   A    
C24   S8    S    
O4    C1    A    
C71   C79   A    
S4    O31   D    
O6    V2    S    
C44   C52   A    
O14   C6    A    
C32   C79   S    
C12   C20   A    
C46   C54   A    
C27   C35   A    
C61   C78   A    
C13   C21   A    
O5    V1    S    
C35   C43   A    
O44   H24   S    
C70   F22   S    
C60   F12   S    
C34   C42   A    
C68   F20   S    
C15   C23   A    
O41   H23   S    
C5    C51   S    
C28   C75   S    
C69   F21   S    
C16   C24   A    
C4    C54   S    
O1    C4    A    
C67   F19   S    
O2    C3    A    
C33   C41   A    
O13   V3    S    
S8    O44   S    
C33   H1    S    
S4    O30   D    
C8    C50   S    
C20   C28   A    
C25   C33   A    
S3    O27   D    
S2    O24   D    
C39   C47   A    
C63   C71   A    
O9    V1    S    
C62   F14   S    
O7    C6    A    
C59   C67   A    
O26   H18   S    
C27   C76   S    
C58   C66   A    
C18   S2    S    
C26   C73   S    
C9    C17   A    
C68   C76   A    
C11   F3    S    
S7    O40   D    
C41   C49   A    
O20   V2    S    
C48   H16   S    
S5    O33   D    
C17   S1    S    
S3    O28   D    
C43   H11   S    
C32   C40   A    
O5    C8    A    
O10   C2    A    
O6    C7    A    
C45   C53   A    
C21   S5    S    
C40   H8    S    
O3    V4    S    
C14   C22   A    
O4    V3    S    
C62   C70   A    
C21   C29   A    
C58   F10   S    
O14   V4    S    
O35   H21   S    
C36   H4    S    
O16   C8    A    
C46   H14   S    
C30   C77   S    
C6    C52   S    
O29   H19   S    
C57   C74   A    
C61   C69   A    
C66   F18   S    
S1    O22   D    
C11   C51   A    
