data_mof_unit_15025.cif
_audit_creation_date              2013-03-05T15:52:54-0500
_audit_creation_method            fapswitch 2.2
_symmetry_space_group_name_H-M    P1
_symmetry_Int_Tables_number       1
_space_group_crystal_system       triclinic
_cell_length_a                    10.691997
_cell_length_b                    10.827748
_cell_length_c                    17.005566
_cell_angle_alpha                 99.483681
_cell_angle_beta                  98.88462
_cell_angle_gamma                 60.881089
_cell_volume                      1690.09368967

loop_
_atom_site_label
_atom_site_type_symbol
_atom_site_description
_atom_site_fract_x
_atom_site_fract_y
_atom_site_fract_z
_atom_type_partial_charge
O1    O     O_R   0.749810 0.499790 0.438040 -0.516654
O2    O     O_R   0.477660 0.726260 0.439290 -0.512137
C1    C     C_R   0.361422 0.762965 0.395597 0.575143
O3    O     O_R   0.260150 0.743000 0.412270 -0.473100
O4    O     O_R   0.297740 0.466550 0.394720 -0.474504
C2    C     C_R   0.369932 0.346501 0.357647 0.550158
O5    O     O_R   0.488080 0.253500 0.386430 -0.495843
O6    O     O_R   0.722670 0.303800 0.421940 -0.491728
C3    C     C_R   0.782298 0.372532 0.405686 0.565875
O7    O     O_R   0.751130 0.502220 0.613520 -0.507088
O8    O     O_R   0.478890 0.728510 0.601960 -0.515221
C4    C     C_R   0.357174 0.769919 0.627128 0.555191
O9    O     O_R   0.261470 0.745430 0.587750 -0.481123
O10   O     O_R   0.298970 0.468800 0.557390 -0.515493
C5    C     C_R   0.362448 0.344229 0.580157 0.518503
O11   O     O_R   0.489400 0.255930 0.561910 -0.477051
O12   O     O_R   0.723890 0.306050 0.584610 -0.483364
C6    C     C_R   0.772371 0.381331 0.629719 0.553217
Cr1   Cr    Cr6+3 0.608100 0.610860 0.522250 1.041372
Cr2   Cr    Cr6+3 0.288890 0.599990 0.488420 1.108678
Cr3   Cr    Cr6+3 0.603040 0.289190 0.489390 1.087713
O13   O     O_3   0.500010 0.500010 0.500020 -0.280806
C7    C     C_1   0.343416 0.336105 0.274251 -0.013638
C8    C     C_1   0.331123 0.326864 0.203321 -0.021329
H1    H     H_    0.956971 0.453913 0.354760 0.200009
C9    C     C_R   0.864479 0.322807 0.172461 0.025876
C10   C     C_R   0.813144 0.237923 0.196738 0.010132
C11   C     C_R   0.842151 0.213021 0.278285 0.025460
C12   C     C_R   0.921548 0.390495 0.311010 -0.145449
C13   C     C_R   0.927061 0.390293 0.230518 -0.160629
C14   C     C_R   0.743589 0.169381 0.143434 0.014765
C15   C     C_R   0.733665 0.058242 0.168560 -0.152633
C16   C     C_R   0.786540 0.018301 0.245150 -0.152283
C17   C     C_R   0.844174 0.091452 0.300246 0.032206
C18   C     C_R   0.864121 0.313969 0.334803 0.031682
H2    H     H_    0.980075 0.444366 0.213859 0.174232
H3    H     H_    0.684865 0.001529 0.128719 0.151964
H4    H     H_    0.781531 0.930377 0.261918 0.155440
H5    H     H_    0.149219 0.803290 0.285613 0.192036
C19   C     C_R   0.345962 0.802876 0.150516 0.049856
C20   C     C_R   0.478799 0.769614 0.194793 -0.004704
C21   C     C_R   0.484599 0.773186 0.279222 -0.050272
C22   C     C_R   0.241827 0.797612 0.263577 -0.136244
C23   C     C_R   0.237902 0.795707 0.183379 -0.140519
C24   C     C_R   0.604666 0.733153 0.157557 0.187731
C25   C     C_R   0.729214 0.717336 0.204984 -0.126225
C26   C     C_R   0.734585 0.730886 0.288284 0.139489
C27   C     C_R   0.613376 0.758549 0.324328 -0.064003
C28   C     C_R   0.360805 0.790493 0.313799 0.020075
H6    H     H_    0.139698 0.806383 0.148756 0.160965
H7    H     H_    0.824164 0.690936 0.176436 0.177457
H8    H     H_    0.624990 0.769712 0.387947 0.245513
C29   C     C_R   0.282849 0.259062 0.792294 -0.024785
C30   C     C_R   0.385079 0.146171 0.742236 0.006402
C31   C     C_R   0.377078 0.165064 0.660884 -0.018577
C32   C     C_R   0.184860 0.408027 0.681716 -0.017962
C33   C     C_R   0.177399 0.382663 0.758454 -0.112252
C34   C     C_R   0.496551 0.015787 0.768935 -0.118466
C35   C     C_R   0.596036 0.913089 0.717724 -0.130000
C36   C     C_R   0.577418 0.928115 0.636752 -0.030492
C37   C     C_R   0.459221 0.047017 0.606922 0.040777
C38   C     C_R   0.298223 0.304133 0.636870 -0.063862
H9    H     H_    0.512724 0.987290 0.828399 0.179348
H10   H     H_    0.091552 0.463270 0.793320 0.189145
H11   H     H_    0.682735 0.816772 0.740113 0.168292
H12   H     H_    0.648800 0.841928 0.596741 0.178912
C39   C     C_1   0.817542 0.342291 0.708915 -0.022896
C40   C     C_1   0.845386 0.313652 0.776668 -0.025096
C41   C     C_1   0.338073 0.810185 0.709144 -0.025133
C42   C     C_1   0.314086 0.837562 0.777709 -0.019490
O14   O     O_R   0.171100 0.914680 0.053100 -0.529938
O15   O     O_R   0.941680 0.184840 0.050710 -0.506779
C43   C     C_R   0.899551 0.307429 0.090840 0.615260
O16   O     O_R   0.922080 0.403420 0.072610 -0.480002
O17   O     O_R   0.196880 0.369150 0.083850 -0.492894
C44   C     C_R   0.318920 0.299782 0.119935 0.579805
O18   O     O_R   0.411730 0.181020 0.091530 -0.529258
O19   O     O_R   0.365010 0.944360 0.063320 -0.471541
C45   C     C_R   0.297402 0.883517 0.081491 0.600043
O20   O     O_R   0.159380 0.906670 0.876210 -0.482766
O21   O     O_R   0.930820 0.177420 0.886730 -0.491468
C46   C     C_R   0.887406 0.296907 0.859031 0.568654
O22   O     O_R   0.910360 0.395420 0.895720 -0.489042
O23   O     O_R   0.186010 0.361730 0.919870 -0.484463
C47   C     C_R   0.277383 0.248866 0.877505 0.548929
O24   O     O_R   0.400000 0.173010 0.914630 -0.521258
O25   O     O_R   0.354140 0.936940 0.899340 -0.519129
C48   C     C_R   0.280200 0.883788 0.857619 0.572896
Cr4   Cr    Cr6+3 0.053960 0.052250 0.967380 1.051683
Cr5   Cr    Cr6+3 0.059890 0.373160 0.992710 1.088625
Cr6   Cr    Cr6+3 0.373370 0.061690 0.991710 1.048746
O26   O     O_3   0.162410 0.162370 0.983930 -0.309283
N1    N     N_R   0.864514 0.714025 0.336524 0.022824
O27   O     O_R   0.869594 0.728931 0.414329 -0.372144
O28   O     O_R   0.980640 0.678686 0.303075 -0.409246
C49   C     C_2   0.072132 0.541434 0.649266 0.270217
H13   H     H_    0.054326 0.549335 0.585358 0.145931
O29   O     O_2   0.995136 0.643275 0.693411 -0.510794
C50   C     C_2   0.418015 0.046379 0.519698 0.262507
H14   H     H_    0.306431 0.107461 0.497498 0.107354
O30   O     O_2   0.509246 0.984526 0.472200 -0.518493
C51   C     C_2   0.667906 0.217349 0.064850 0.279157
H15   H     H_    0.653506 0.142578 0.018290 0.123578
O31   O     O_2   0.614209 0.341757 0.052752 -0.451550
C52   C     C_2   0.917971 0.029101 0.376387 0.271357
H16   H     H_    0.895308 0.953304 0.397132 0.176794
O32   O     O_2   0.007626 0.058437 0.415483 -0.525017
N2    N     N_R   0.612875 0.698372 0.072396 0.090859
O33   O     O_R   0.694732 0.724978 0.036333 -0.361091
O34   O     O_R   0.553064 0.624709 0.032286 -0.281626

loop_
_geom_bond_atom_site_label_1
_geom_bond_atom_site_label_2
_geom_bond_distance
_ccdc_geom_bond_type
C4    C41   1.406419 S    
N1    O27   1.302161 A    
O25   Cr6   1.950794 S    
C43   O16   1.267803 A    
O25   C48   1.262772 A    
C42   C48   1.407078 S    
O14   C45   1.256747 A    
O21   C46   1.288411 A    
C1    C28   1.468239 S    
O4    Cr2   1.946892 S    
C24   C25   1.394620 A    
C32   C33   1.398686 A    
C52   O32   1.221358 D    
O8    Cr1   1.914522 S    
C9    C10   1.415085 A    
O11   Cr3   2.040094 S    
O24   Cr6   2.054760 S    
C47   O24   1.288093 A    
O4    C2    1.259629 A    
C5    O11   1.273633 A    
C31   C38   1.416238 A    
C9    C43   1.455601 S    
N2    O33   1.301727 A    
O12   C6    1.266459 A    
C20   C21   1.422430 A    
O20   Cr4   2.040635 S    
O17   Cr5   1.951522 S    
C30   C31   1.415183 A    
C50   H14   1.085611 S    
C11   C18   1.416908 A    
O6    C3    1.273077 A    
C49   O29   1.221415 D    
C26   C27   1.397164 A    
C7    C8    1.185856 T    
C24   N2    1.440223 S    
O21   Cr4   1.941501 S    
C11   C17   1.415780 A    
C35   C36   1.385570 A    
N1    O28   1.302173 A    
Cr3   O13   1.983714 S    
C37   C50   1.480556 S    
O23   Cr5   1.915999 S    
C16   C17   1.391781 A    
H1    C12   1.079922 S    
O1    Cr1   2.030281 S    
C10   C14   1.425748 A    
C39   C40   1.197611 T    
C14   C51   1.481935 S    
O10   Cr2   1.940625 S    
Cr1   O13   1.996174 S    
O1    C3    1.290503 A    
C44   O18   1.254229 A    
Cr6   O26   1.963619 S    
C29   C33   1.406517 A    
O19   C45   1.285137 A    
C8    C44   1.398892 S    
H5    C22   1.082784 S    
C6    C39   1.419050 S    
O5    Cr3   2.073726 S    
C25   H7    1.082633 S    
O12   Cr3   1.952134 S    
C36   C37   1.394857 A    
O17   C44   1.262551 A    
C12   C13   1.378731 A    
Cr5   O26   1.984049 S    
C14   C15   1.396307 A    
O14   Cr4   2.061139 S    
C19   C23   1.397955 A    
O7    Cr1   2.061339 S    
C49   H13   1.084235 S    
O6    Cr3   1.920066 S    
C26   N1    1.444527 S    
C19   C45   1.455362 S    
C21   C27   1.418004 A    
C15   H3    1.083457 S    
O23   C47   1.316140 A    
Cr4   O26   1.994911 S    
C51   O31   1.220102 D    
C19   C20   1.405378 A    
C50   O30   1.217267 D    
Cr2   O13   1.964885 S    
C9    C13   1.410839 A    
C22   C23   1.355003 A    
C32   C38   1.411388 A    
C1    O3    1.281567 A    
C33   H10   1.083377 S    
C30   C34   1.423448 A    
C23   H6    1.084379 S    
C34   H9    1.069841 S    
C32   C49   1.485451 S    
O22   Cr5   2.067855 S    
C25   C26   1.395011 A    
O18   Cr6   2.072947 S    
O9    Cr2   2.060638 S    
O2    Cr1   1.942625 S    
C17   C52   1.486271 S    
C22   C28   1.394384 A    
O15   C43   1.282598 A    
O8    C4    1.272295 A    
C29   C30   1.434486 A    
C2    O5    1.258085 A    
O19   Cr6   1.938781 S    
C52   H16   1.082630 S    
C12   C18   1.381912 A    
C16   H4    1.065036 S    
C13   H2    1.082412 S    
C40   C46   1.416509 S    
C15   C16   1.386823 A    
O16   Cr5   2.031376 S    
O2    C1    1.259353 A    
C34   C35   1.393639 A    
O20   C48   1.272382 A    
C35   H11   1.082979 S    
O15   Cr4   1.920434 S    
O7    C6    1.284915 A    
C2    C7    1.399504 S    
C31   C37   1.420233 A    
C5    C38   1.490926 S    
N2    O34   1.301072 A    
C51   H15   1.085578 S    
C41   C42   1.190650 T    
C21   C28   1.447570 A    
C36   H12   1.083649 S    
O3    Cr2   2.060080 S    
C27   H8    1.063242 S    
C4    O9    1.248890 A    
C46   O22   1.255178 A    
C10   C11   1.414561 A    
C3    C18   1.467793 S    
C20   C24   1.425369 A    
O10   C5    1.276645 A    
C29   C47   1.483418 S    
