data_mof_unit_31821.cif
_audit_creation_date              2012-12-10T21:28:03-0500
_audit_creation_method            fapswitch 2.2
_symmetry_space_group_name_H-M    P1
_symmetry_Int_Tables_number       1
_space_group_crystal_system       triclinic
_cell_length_a                    12.945749
_cell_length_b                    16.337349
_cell_length_c                    16.756907
_cell_angle_alpha                 85.925773
_cell_angle_beta                  94.70501
_cell_angle_gamma                 99.499655
_cell_volume                      3477.72471432

loop_
_atom_site_label
_atom_site_type_symbol
_atom_type_description
_atom_site_fract_x
_atom_site_fract_y
_atom_site_fract_z
_atom_type_partial_charge
C1    C     C_R   0.493883 0.487702 0.652651 0.856996
C2    C     C_R   0.547171 0.582501 0.216807 -0.256559
C3    C     C_R   0.469846 0.763181 0.444805 0.158439
C4    C     C_R   0.552190 0.240984 0.544081 0.162460
C5    C     C_R   0.489731 0.852542 0.439851 -0.010600
C6    C     C_R   0.571808 0.159569 0.530259 -0.008380
C7    C     C_R   0.528051 0.894519 0.510482 0.217868
C8    C     C_R   0.504530 0.112656 0.473845 0.222102
C9    C     C_R   0.563807 0.846658 0.576034 -0.341359
C10   C     C_R   0.434066 0.152943 0.424722 -0.343517
C11   C     C_R   0.568652 0.761516 0.571244 0.185108
C12   C     C_R   0.499863 0.511777 0.347232 0.840521
C13   C     C_R   0.426358 0.237152 0.431876 0.200210
C14   C     C_R   0.702825 0.517390 0.497766 0.871605
C15   C     C_R   0.297812 0.483179 0.503055 0.877815
C16   C     C_R   0.185140 0.472564 0.507482 -0.120794
C17   C     C_R   0.816480 0.530655 0.492874 -0.118933
C18   C     C_R   0.989529 0.615516 0.485313 0.082237
C19   C     C_R   0.014382 0.388328 0.512760 0.092285
C20   C     C_R   0.878935 0.610509 0.479283 0.062740
C21   C     C_R   0.123567 0.396439 0.531518 0.069710
C22   C     C_R   0.862647 0.459283 0.504450 -0.331148
C23   C     C_R   0.426277 0.544581 0.851533 -0.172286
C24   C     C_R   0.138518 0.542314 0.485346 -0.315017
C25   C     C_R   0.969193 0.462282 0.501827 0.094303
C26   C     C_R   0.032671 0.540721 0.491788 0.089756
C27   C     C_R   0.468541 0.479000 0.736491 -0.016034
C28   C     C_R   0.487168 0.518587 0.260684 -0.028184
C29   C     C_R   0.450823 0.549861 0.772679 -0.227553
C30   C     C_R   0.411078 0.461137 0.221675 -0.235376
C31   C     C_3   0.637539 0.721229 0.634494 -0.372109
C32   C     C_3   0.746663 0.774005 0.650241 -0.420664
C33   C     C_3   0.824439 0.722264 0.693725 -0.886818
C34   C     C_R   0.397678 0.465368 0.138906 -0.160502
C35   C     C_3   0.349643 0.274958 0.373648 -0.378607
C36   C     C_3   0.237040 0.227372 0.375636 -0.387505
C37   C     C_3   0.159788 0.274563 0.325480 -0.902394
C38   C     C_3   0.170541 0.329342 0.583951 -0.407849
C39   C     C_3   0.117597 0.309983 0.663506 -0.362534
C40   C     C_3   0.169818 0.247149 0.717683 -0.891121
C41   C     C_3   0.829860 0.688952 0.455545 -0.398348
C42   C     C_3   0.776299 0.686258 0.370398 -0.312598
C43   C     C_3   0.731509 0.766031 0.346451 -0.913172
C44   C     C_3   0.060884 0.699499 0.493061 -0.425572
C45   C     C_R   0.421069 0.468338 0.896557 0.329229
C46   C     C_3   0.083976 0.743359 0.410714 -0.344111
C47   C     C_3   0.132897 0.834167 0.419072 -0.927089
C48   C     C_3   0.949568 0.302981 0.498492 -0.443698
C49   C     C_3   0.903168 0.299036 0.410945 -0.322866
C50   C     C_3   0.856450 0.210546 0.390097 -0.905150
C51   C     C_3   0.572496 0.265145 0.630229 -0.350972
C52   C     C_3   0.677780 0.321644 0.649929 -0.300278
C53   C     C_3   0.709165 0.318975 0.739809 -0.938276
C54   C     C_3   0.381618 0.722437 0.387192 -0.371985
C55   C     C_3   0.409556 0.705743 0.302463 -0.297642
C56   C     C_R   0.460998 0.527547 0.094396 0.320127
C57   C     C_3   0.345564 0.744485 0.233169 -0.937070
C58   C     C_3   0.674314 0.130558 0.563064 -0.373396
C59   C     C_3   0.671405 0.084302 0.646427 -0.320627
C60   C     C_3   0.757522 0.030072 0.659773 -0.915146
C61   C     C_3   0.485458 0.899840 0.358097 -0.344503
C62   C     C_3   0.380317 0.930984 0.334199 -0.325040
C63   C     C_3   0.390786 0.994854 0.263050 -0.919622
C64   C     C_R   0.430174 0.396357 0.859294 -0.189671
C65   C     C_R   0.533455 0.587178 0.133695 -0.178059
C66   C     C_R   0.453514 0.401505 0.779290 -0.246752
H1    H     H_    0.186080 0.598738 0.463867 0.167968
H2    H     H_    0.581641 0.635648 0.099624 0.137421
H3    H     H_    0.460971 0.345268 0.752070 0.145703
H4    H     H_    0.605150 0.627712 0.246466 0.145252
H5    H     H_    0.794670 0.694249 0.751459 0.268385
H6    H     H_    0.836902 0.672047 0.655912 0.259281
H7    H     H_    0.901065 0.762642 0.706273 0.252624
H8    H     H_    0.778336 0.801247 0.592836 0.224336
H9    H     H_    0.740481 0.825887 0.688078 0.228666
H10   H     H_    0.597739 0.710176 0.691376 0.183142
H11   H     H_    0.651038 0.661539 0.614774 0.265452
H12   H     H_    0.814336 0.400260 0.517190 0.176739
H13   H     H_    0.157070 0.334611 0.351868 0.263810
H14   H     H_    0.183315 0.286773 0.262919 0.260093
H15   H     H_    0.080338 0.236596 0.324143 0.261573
H16   H     H_    0.231522 0.165364 0.351006 0.220978
H17   H     H_    0.213849 0.218101 0.438319 0.224579
H18   H     H_    0.347229 0.339128 0.386999 0.263366
H19   H     H_    0.376175 0.275458 0.312171 0.182729
H20   H     H_    0.164294 0.188049 0.687491 0.258931
H21   H     H_    0.253740 0.272258 0.732604 0.262074
H22   H     H_    0.129599 0.234065 0.774316 0.253387
H23   H     H_    0.595418 0.877715 0.629723 0.168830
H24   H     H_    0.123476 0.368217 0.695333 0.232000
H25   H     H_    0.033219 0.284134 0.652617 0.223636
H26   H     H_    0.165199 0.272111 0.551193 0.190131
H27   H     H_    0.254594 0.349594 0.601496 0.233672
H28   H     H_    0.672102 0.774097 0.388074 0.270058
H29   H     H_    0.795091 0.820732 0.347969 0.259402
H30   H     H_    0.693784 0.763147 0.284613 0.236980
H31   H     H_    0.834214 0.678872 0.327101 0.203766
H32   H     H_    0.712215 0.632471 0.366146 0.235048
H33   H     H_    0.776167 0.699936 0.500003 0.230126
H34   H     H_    0.385324 0.118122 0.379241 0.169209
H35   H     H_    0.887027 0.746867 0.456290 0.201525
H36   H     H_    0.079288 0.867443 0.448236 0.265420
H37   H     H_    0.209105 0.838644 0.455439 0.263596
H38   H     H_    0.145980 0.864814 0.358714 0.247316
H39   H     H_    0.137802 0.710992 0.380983 0.206742
H40   H     H_    0.011388 0.741288 0.370460 0.230870
H41   H     H_    0.025785 0.739032 0.531124 0.196843
H42   H     H_    0.135931 0.693270 0.528234 0.198168
H43   H     H_    0.915735 0.168421 0.402485 0.259512
H44   H     H_    0.787640 0.187530 0.425196 0.260257
H45   H     H_    0.361239 0.413558 0.255212 0.143180
H46   H     H_    0.829955 0.209970 0.325390 0.253126
H47   H     H_    0.840597 0.338220 0.399601 0.231306
H48   H     H_    0.965516 0.323455 0.369814 0.225800
H49   H     H_    0.998305 0.253148 0.509700 0.216581
H50   H     H_    0.886852 0.288041 0.540788 0.171497
H51   H     H_    0.648240 0.339106 0.773281 0.271529
H52   H     H_    0.720490 0.255308 0.762277 0.258271
H53   H     H_    0.784246 0.361663 0.751405 0.255979
H54   H     H_    0.741461 0.302997 0.618826 0.194080
H55   H     H_    0.672820 0.386869 0.630912 0.256585
H56   H     H_    0.456010 0.610003 0.740438 0.159964
H57   H     H_    0.504480 0.289496 0.647756 0.199438
H58   H     H_    0.567141 0.208208 0.670452 0.167419
H59   H     H_    0.261679 0.737927 0.246054 0.260104
H60   H     H_    0.377523 0.810551 0.219880 0.268230
H61   H     H_    0.349789 0.711876 0.177826 0.260104
H62   H     H_    0.494862 0.723127 0.295012 0.222918
H63   H     H_    0.387099 0.638334 0.295214 0.237740
H64   H     H_    0.343601 0.664156 0.414151 0.211893
H65   H     H_    0.317455 0.759675 0.383053 0.182331
H66   H     H_    0.748660 0.983767 0.613296 0.263416
H67   H     H_    0.338871 0.419799 0.109967 0.145541
H68   H     H_    0.836023 0.069376 0.657297 0.264959
H69   H     H_    0.752652 0.996394 0.719621 0.244890
H70   H     H_    0.686017 0.129324 0.693973 0.213819
H71   H     H_    0.593872 0.045147 0.654227 0.230840
H72   H     H_    0.697781 0.090368 0.519182 0.216400
H73   H     H_    0.738888 0.184006 0.564743 0.175743
H74   H     H_    0.452455 0.048548 0.277480 0.268814
H75   H     H_    0.411791 0.966218 0.209708 0.261222
H76   H     H_    0.314953 0.017759 0.248305 0.248168
H77   H     H_    0.318644 0.879187 0.316565 0.226043
H78   H     H_    0.415251 0.600700 0.878264 0.145013
H79   H     H_    0.351160 0.958436 0.384885 0.234541
H80   H     H_    0.552327 0.951947 0.356249 0.207027
H81   H     H_    0.503892 0.861507 0.311258 0.194767
H82   H     H_    0.423924 0.337022 0.893236 0.137557
N1    N     N_2   0.416519 0.463965 0.980432 -0.210069
N2    N     N_2   0.457649 0.530381 0.010217 -0.209794
N3    N     N_R   0.512890 0.717880 0.509760 -0.129896
N4    N     N_R   0.487110 0.282120 0.490240 -0.129079
N5    N     N_2   0.531766 0.982184 0.521308 -0.165346
N6    N     N_2   0.505528 0.026539 0.461567 -0.174034
O1    O     O_R   0.495390 0.422190 0.612650 -0.637367
O2    O     O_R   0.504610 0.577810 0.387350 -0.624686
O3    O     O_R   0.503660 0.562120 0.618910 -0.638764
O4    O     O_R   0.496340 0.437880 0.381090 -0.622411
O5    O     O_R   0.650190 0.441600 0.497400 -0.622403
O6    O     O_R   0.349810 0.558400 0.502600 -0.634386
O7    O     O_R   0.658460 0.581530 0.503670 -0.635020
O8    O     O_R   0.341540 0.418470 0.496330 -0.645278
Zn1   Zn    Zn3+2 0.494480 0.406570 0.495820 0.915336
Zn2   Zn    Zn3+2 0.505520 0.593430 0.504180 0.910737

loop_
_geom_bond_atom_site_label_1
_geom_bond_atom_site_label_2
_ccdc_geom_bond_type
C58   H73   S    
C49   H47   S    
O3    Zn2   S    
C34   C56   A    
C16   C21   A    
C23   C45   A    
C60   H68   S    
C27   C29   A    
C51   H57   S    
C63   H74   S    
C6    C58   S    
C15   O8    A    
C35   C36   S    
C18   C26   A    
C62   H77   S    
C2    C65   A    
C60   H66   S    
C32   H9    S    
C20   C41   S    
C54   H65   S    
C37   H13   S    
C12   C28   S    
C23   C29   A    
C40   H21   S    
C36   C37   S    
C19   C21   A    
C24   C26   A    
C13   C35   S    
C42   H32   S    
C57   H59   S    
C38   C39   S    
C3    C54   S    
C53   H51   S    
C66   H3    S    
C59   H71   S    
C36   H17   S    
C56   C65   A    
C46   H39   S    
C38   H26   S    
C59   H70   S    
C50   H44   S    
C43   H28   S    
C41   C42   S    
C40   H20   S    
C1    O1    A    
C24   H1    S    
C46   C47   S    
C21   C38   S    
C36   H16   S    
C55   H63   S    
C62   H79   S    
C43   H29   S    
C41   H33   S    
C8    N6    S    
C39   H24   S    
C18   C20   A    
C33   H6    S    
C48   H50   S    
C58   H72   S    
C49   H48   S    
C11   C31   S    
C59   C60   S    
C16   C24   A    
C47   H36   S    
C64   H82   S    
C51   H58   S    
C14   C17   S    
C37   H15   S    
C12   O2    A    
C54   H64   S    
C39   H25   S    
C44   C46   S    
C31   H11   S    
C44   H42   S    
C4    N4    A    
C37   H14   S    
C47   H37   S    
C30   C34   A    
C4    C51   S    
C51   C52   S    
C22   H12   S    
C4    C6    A    
C42   H31   S    
C9    H23   S    
C39   C40   S    
C5    C7    A    
C19   C48   S    
C6    C8    A    
C34   H67   S    
O1    Zn1   S    
C58   C59   S    
C22   C25   A    
C50   H43   S    
C64   C66   A    
C61   H80   S    
C62   C63   S    
C18   C44   S    
C52   H55   S    
C31   C32   S    
C7    N5    S    
C65   H2    S    
C29   H56   S    
C50   H46   S    
C43   H30   S    
C63   H75   S    
C5    C61   S    
C10   H34   S    
C9    C11   A    
C60   H69   S    
O4    Zn1   S    
C48   H49   S    
C52   H54   S    
C33   H7    S    
C48   C49   S    
C49   C50   S    
C55   C57   S    
O5    Zn1   S    
C23   H78   S    
C42   C43   S    
C56   N2    S    
O6    Zn2   S    
C57   H60   S    
O7    Zn2   S    
C52   C53   S    
O8    Zn1   S    
C44   H41   S    
C11   N3    A    
C7    C9    A    
C54   C55   S    
C47   H38   S    
C53   H52   S    
C17   C20   A    
C13   N4    A    
C3    C5    A    
C10   C13   A    
C57   H61   S    
C35   H18   S    
C53   H53   S    
C14   O5    A    
C45   C64   A    
C3    N3    A    
C17   C22   A    
C30   H45   S    
C32   C33   S    
C40   H22   S    
C14   O7    A    
C1    O3    A    
C25   C26   A    
C15   O6    A    
C27   C66   A    
N1    N2    D    
C32   H8    S    
C35   H19   S    
C31   H10   S    
C46   H40   S    
C38   H27   S    
C28   C30   A    
C63   H76   S    
C41   H35   S    
C45   N1    S    
C61   H81   S    
C61   C62   S    
C19   C25   A    
N4    Zn1   S    
C33   H5    S    
C55   H62   S    
O2    Zn2   S    
C8    C10   A    
N3    Zn2   S    
C1    C27   S    
C2    C28   A    
C12   O4    A    
N5    N6    D    
C2    H4    S    
C15   C16   S    
