data_mof_unit_45319.cif
_audit_creation_date              2013-03-05T16:08:30-0500
_audit_creation_method            fapswitch 2.2
_symmetry_space_group_name_H-M    P1
_symmetry_Int_Tables_number       1
_space_group_crystal_system       triclinic
_cell_length_a                    14.779439
_cell_length_b                    6.917987
_cell_length_c                    13.506022
_cell_angle_alpha                 90.000078
_cell_angle_beta                  99.84033
_cell_angle_gamma                 90.000014
_cell_volume                      1360.59311528

loop_
_atom_site_label
_atom_site_type_symbol
_atom_site_description
_atom_site_fract_x
_atom_site_fract_y
_atom_site_fract_z
_atom_type_partial_charge
O1    O     O_R   0.586930 0.505770 0.416350 -0.619142
O2    O     O_R   0.413070 0.005770 0.583650 -0.619142
O3    O     O_R   0.397900 0.173100 0.389630 -0.598196
O4    O     O_R   0.602100 0.673100 0.610370 -0.598198
C1    C     C_R   0.364205 0.345425 0.362879 0.977948
C2    C     C_R   0.635795 0.845426 0.637121 0.977937
O5    O     O_R   0.585280 0.175870 0.404330 -0.570884
O6    O     O_R   0.414720 0.675870 0.595670 -0.570882
O7    O     O_R   0.601790 0.008380 0.598460 -0.592755
O8    O     O_R   0.398210 0.508380 0.401540 -0.592750
C3    C     C_R   0.615186 0.344476 0.383818 1.030798
C4    C     C_R   0.384815 0.844476 0.616182 1.030835
O9    O     O_3   0.505200 0.340120 0.563670 -0.273865
O10   O     O_3   0.494800 0.840120 0.436330 -0.273861
V1    V     V_3+5 0.499040 0.064180 0.488190 1.178155
V2    V     V_3+5 0.500960 0.564180 0.511810 1.178156
C5    C     C_R   0.233312 0.941965 0.658824 -0.155658
C6    C     C_R   0.766692 0.441952 0.341180 -0.155689
C7    C     C_R   0.318472 0.853698 0.685949 -0.330161
C8    C     C_R   0.681530 0.353695 0.314053 -0.330170
C9    C     C_R   0.338918 0.778671 0.785333 0.461053
C10   C     C_R   0.661083 0.278672 0.214668 0.461066
C11   C     C_R   0.271906 0.786453 0.850848 0.441901
C12   C     C_R   0.728094 0.286455 0.149152 0.441895
C13   C     C_R   0.185963 0.879807 0.819117 -0.376466
C14   C     C_R   0.814037 0.379807 0.180883 -0.376472
C15   C     C_R   0.171332 0.957648 0.722590 -0.234015
C16   C     C_R   0.828669 0.457642 0.277411 -0.233993
C17   C     C_3   0.100552 0.051202 0.643088 0.805400
C18   C     C_3   0.899447 0.551220 0.356907 0.805425
C19   C     C_3   0.171193 0.027482 0.570465 0.312752
C20   C     C_3   0.828808 0.527502 0.429533 0.312766
H1    H     H_    0.196727 0.166741 0.543906 0.044786
H2    H     H_    0.803268 0.666762 0.456083 0.044781
C21   C     C_1   0.783601 0.877143 0.782710 -0.220735
C22   C     C_1   0.216399 0.377143 0.217290 -0.220748
C23   C     C_1   0.716273 0.860167 0.716693 -0.265932
C24   C     C_1   0.283726 0.360166 0.283307 -0.265919
O11   O     O_R   0.101720 0.231700 0.098560 -0.595635
O12   O     O_R   0.898280 0.731700 0.901440 -0.595630
O13   O     O_R   0.914700 0.558980 0.095690 -0.618204
O14   O     O_R   0.085300 0.058980 0.904310 -0.618209
C25   C     C_R   0.884638 0.390110 0.116030 1.113404
C26   C     C_R   0.115361 0.890109 0.883969 1.113409
O15   O     O_R   0.102080 0.561590 0.110390 -0.587755
O16   O     O_R   0.897920 0.061590 0.889610 -0.587758
O17   O     O_R   0.086950 0.728940 0.916330 -0.595122
O18   O     O_R   0.913050 0.228940 0.083670 -0.595125
C27   C     C_R   0.135980 0.391890 0.137643 1.011536
C28   C     C_R   0.864020 0.891890 0.862357 1.011540
O19   O     O_3   0.994770 0.394510 0.936380 -0.278009
O20   O     O_3   0.005230 0.894510 0.063620 -0.278008
V3    V     V_3+5 0.000970 0.670520 0.011800 1.197037
V4    V     V_3+5 0.999030 0.170520 0.988200 1.197030
O21   O     O_3   0.423093 0.692522 0.818133 -0.616340
C29   C     C_3   0.484351 0.834281 0.865023 -0.187857
H3    H     H_    0.495158 0.950972 0.811495 0.112033
H4    H     H_    0.551797 0.764734 0.891242 0.155257
H5    H     H_    0.460458 0.896703 0.932019 0.170976
O22   O     O_3   0.576906 0.192527 0.181867 -0.616343
C30   C     C_3   0.515650 0.334291 0.134979 -0.187852
H6    H     H_    0.504845 0.450982 0.188508 0.112035
H7    H     H_    0.448203 0.264747 0.108761 0.155256
H8    H     H_    0.539543 0.396712 0.067983 0.170978
O23   O     O_3   0.295476 0.727052 0.949761 -0.618073
C31   C     C_3   0.289126 0.524076 0.954538 -0.195224
H9    H     H_    0.216362 0.477109 0.938951 0.131664
H10   H     H_    0.317524 0.477655 0.032186 0.141939
H11   H     H_    0.329202 0.449483 0.903218 0.153234
O24   O     O_3   0.704521 0.227065 0.050238 -0.618072
C32   C     C_3   0.710869 0.024089 0.045454 -0.195238
H12   H     H_    0.783633 0.977118 0.061044 0.131662
H13   H     H_    0.682473 0.977678 0.967803 0.141942
H14   H     H_    0.670789 0.949492 0.096769 0.153238
O25   O     O_3   0.075725 0.247013 0.658815 -0.593202
C33   C     C_3   0.146586 0.358686 0.715110 -0.111524
H15   H     H_    0.122872 0.510424 0.715932 0.215852
H16   H     H_    0.210228 0.358810 0.681827 0.094283
H17   H     H_    0.161265 0.308628 0.794054 0.112268
O26   O     O_3   0.924266 0.747031 0.341168 -0.593206
C34   C     C_3   0.853399 0.858688 0.284874 -0.111573
H18   H     H_    0.877111 0.010425 0.284037 0.215837
H19   H     H_    0.789763 0.858820 0.318166 0.094298
H20   H     H_    0.838713 0.808609 0.205933 0.112269
N1    N     N_R   0.017910 0.932871 0.614007 0.260215
O27   O     O_R   0.997457 0.794745 0.671750 -0.458300
O28   O     O_R   0.958972 0.979807 0.534716 -0.288513
N2    N     N_R   0.982093 0.432903 0.385990 0.260213
O29   O     O_R   0.002544 0.294758 0.328257 -0.458323
O30   O     O_R   0.041033 0.479859 0.465276 -0.288498
O31   O     O_3   0.143438 0.885207 0.495999 -0.557467
C35   C     C_3   0.185600 0.919107 0.411656 0.033368
H21   H     H_    0.261653 0.916427 0.432286 0.073484
H22   H     H_    0.162175 0.058569 0.375032 0.145946
H23   H     H_    0.165201 0.802161 0.356099 0.163749
O32   O     O_3   0.856578 0.385259 0.504012 -0.557447
C36   C     C_3   0.814380 0.419115 0.588334 0.033472
H24   H     H_    0.738326 0.416225 0.567684 0.073486
H25   H     H_    0.837715 0.558665 0.624928 0.145805
H26   H     H_    0.834840 0.302251 0.643927 0.163771

loop_
_geom_bond_atom_site_label_1
_geom_bond_atom_site_label_2
_geom_bond_distance
_ccdc_geom_bond_type
C31   H10   1.108442 S    
O21   C29   1.409430 S    
C15   C17   1.510701 S    
N2    O30   1.300839 A    
O1    C3    1.294310 A    
C33   H17   1.106687 S    
O2    C4    1.294309 A    
C36   H26   1.109597 S    
C2    O7    1.306283 A    
C36   H24   1.111068 S    
C12   O24   1.384130 S    
N1    O27   1.301250 A    
O18   V4    2.000190 S    
C21   C23   1.222984 T    
C33   H16   1.109631 S    
C10   O22   1.382303 S    
O11   V4    1.982671 S    
C29   H3    1.113247 S    
C30   H7    1.109002 S    
C36   H25   1.112188 S    
C19   H1    1.116005 S    
O24   C32   1.409530 S    
O10   V2    2.158681 S    
C25   O18   1.293537 A    
C17   N1    1.467043 S    
C26   O17   1.293535 A    
O17   V3    2.000191 S    
C18   O26   1.428766 S    
O5    V1    1.999456 S    
C31   H9    1.108619 S    
O15   V3    1.973292 S    
O6    V2    1.999456 S    
C1    C24   1.463963 S    
O13   C25   1.295907 A    
O14   C26   1.295908 A    
C13   C26   1.474262 S    
C34   H19   1.109629 S    
O20   V4    2.158710 S    
C14   C25   1.474263 S    
C34   H18   1.107340 S    
N1    O28   1.300838 A    
C3    C8    1.472799 S    
C5    C15   1.364636 A    
C6    C16   1.364638 A    
C33   H15   1.107339 S    
O4    C2    1.318428 A    
O31   C35   1.408383 S    
C9    O21   1.382304 S    
C35   H23   1.109566 S    
O22   C30   1.409429 S    
O19   V3    2.158707 S    
C20   H2    1.116000 S    
O4    V2    1.973328 S    
C30   H8    1.113166 S    
O5    C3    1.294015 A    
O25   C33   1.414056 S    
O15   C27   1.304490 A    
O6    C4    1.294015 A    
O32   C36   1.408397 S    
O16   V4    1.973291 S    
C21   C28   1.463970 S    
C35   H22   1.112124 S    
C2    C23   1.463963 S    
O1    V2    1.999965 S    
O2    V1    1.999965 S    
O13   V3    1.999654 S    
O11   C27   1.292961 A    
C8    C10   1.422608 A    
O23   C31   1.409531 S    
C19   O31   1.416876 S    
O9    V1    2.158679 S    
C5    C19   1.497504 S    
C10   C12   1.437460 A    
C6    C20   1.497518 S    
C18   N2    1.467042 S    
C22   C24   1.222983 T    
C34   H20   1.106687 S    
O3    V1    1.973330 S    
O20   V3    1.697019 S    
C32   H13   1.108447 S    
C7    C9    1.422606 A    
C12   C14   1.424100 A    
O26   C34   1.414056 S    
O3    C1    1.318427 A    
C32   H14   1.112593 S    
C17   O25   1.428767 S    
C13   C15   1.392848 A    
O16   C28   1.304489 A    
C14   C16   1.392846 A    
C29   H5    1.113167 S    
O19   V4    1.697020 S    
C11   O23   1.384130 S    
C9    C11   1.437461 A    
O7    V1    1.974871 S    
C1    O8    1.306283 A    
C17   C19   1.558538 S    
O8    V2    1.974870 S    
O14   V4    1.999654 S    
C18   C20   1.558541 S    
C20   O32   1.416879 S    
O12   C28   1.292962 A    
C4    C7    1.472800 S    
C16   C18   1.510695 S    
C35   H21   1.111015 S    
C5    C7    1.390532 A    
C29   H4    1.109002 S    
C6    C8    1.390536 A    
C11   C13   1.424103 A    
C30   H6    1.113248 S    
C31   H11   1.112588 S    
C32   H12   1.108625 S    
N2    O29   1.301250 A    
O12   V3    1.982673 S    
O9    V2    1.697691 S    
O10   V1    1.697689 S    
C22   C27   1.463971 S    
