data_mof_unit_17451.cif
_audit_creation_date              2012-12-11T13:59:54-0500
_audit_creation_method            fapswitch 2.2
_symmetry_space_group_name_H-M    P1
_symmetry_Int_Tables_number       1
_space_group_crystal_system       triclinic
_cell_length_a                    11.268612
_cell_length_b                    11.259679
_cell_length_c                    18.742372
_cell_angle_alpha                 89.412328
_cell_angle_beta                  90.388288
_cell_angle_gamma                 120.599532
_cell_volume                      2046.78648512

loop_
_atom_site_label
_atom_site_type_symbol
_atom_type_description
_atom_site_fract_x
_atom_site_fract_y
_atom_site_fract_z
_atom_type_partial_charge
C1    C     C_R   0.541544 0.479367 0.852344 0.551622
C2    C     C_R   0.448540 0.583241 0.358901 0.529621
C3    C     C_R   0.139365 0.552637 0.357626 0.523021
C4    C     C_R   0.459104 0.938671 0.350884 0.504583
C5    C     C_2   0.004165 0.506948 0.579776 0.276098
C6    C     C_2   0.539113 0.481129 0.567493 0.289869
C7    C     C_2   0.558111 0.137839 0.564482 0.281973
C8    C     C_2   0.508001 0.006819 0.419394 0.280767
C9    C     C_2   0.447912 0.561237 0.435576 0.290332
C10   C     C_2   0.136059 0.557284 0.435236 0.294107
C11   C     C_2   0.070560 0.438820 0.472198 0.000925
C12   C     C_R   0.520162 0.062215 0.852436 0.618401
C13   C     C_2   0.560344 0.644820 0.473411 -0.020668
C14   C     C_2   0.435823 0.056522 0.450776 -0.013707
C15   C     C_2   0.439910 0.073260 0.527553 -0.033812
C16   C     C_2   0.578850 0.611149 0.545973 -0.022655
C17   C     C_2   0.055200 0.435628 0.548907 -0.014222
C18   C     C_2   0.009785 0.506388 0.920855 0.249728
C19   C     C_2   0.492244 0.503984 0.919506 0.274701
C20   C     C_2   0.491668 0.982500 0.918011 0.283906
C21   C     C_2   0.506816 0.009813 0.078908 0.250290
C22   C     C_2   0.504819 0.492792 0.080558 0.274992
C23   C     C_R   0.937560 0.458087 0.852605 0.545182
C24   C     C_2   0.983158 0.492309 0.082065 0.284416
C25   C     C_2   0.011869 0.599827 0.038284 -0.105820
C26   C     C_2   0.396554 0.415804 0.037666 -0.034335
C27   C     C_2   0.580211 0.974424 0.036904 -0.079730
C28   C     C_2   0.599075 0.010221 0.961295 -0.105870
C29   C     C_2   0.416868 0.395528 0.962988 -0.033888
C30   C     C_2   0.975585 0.580766 0.962790 -0.079227
C31   C     C_R   0.479568 0.541757 0.147650 0.555405
C32   C     C_R   0.062464 0.520405 0.147550 0.620323
C33   C     C_R   0.458267 0.937735 0.147375 0.546203
C34   C     C_R   0.574264 0.457943 0.638983 0.521580
C35   C     C_R   0.552876 0.139758 0.642290 0.530435
C36   C     C_R   0.938180 0.459011 0.648883 0.508099
Cr1   Cr    Cr6+3 0.464030 0.233680 0.750360 1.040580
Cr2   Cr    Cr6+3 0.766320 0.230350 0.750360 1.027743
Cr3   Cr    Cr6+3 0.769650 0.535970 0.750360 1.032003
Cr4   Cr    Cr6+3 0.233680 0.464030 0.249640 1.038275
Cr5   Cr    Cr6+3 0.230350 0.766320 0.249640 1.030709
Cr6   Cr    Cr6+3 0.535970 0.769650 0.249640 1.029602
H1    H     H_    0.024029 0.339169 0.446210 0.108782
H2    H     H_    0.704865 0.072931 0.943014 0.131016
H3    H     H_    0.376860 0.290134 0.945469 0.126335
H4    H     H_    0.912096 0.621346 0.943257 0.141895
H5    H     H_    0.246481 0.756634 0.435637 0.325479
H6    H     H_    0.269569 0.390032 0.434456 0.330254
H7    H     H_    0.654025 0.961075 0.426481 0.329883
H8    H     H_    0.757321 0.246092 0.563975 0.327126
H9    H     H_    0.425224 0.288128 0.548470 0.316190
H10   H     H_    0.945221 0.643478 0.569962 0.338196
H11   H     H_    0.830454 0.350352 0.026532 0.339147
H12   H     H_    0.645800 0.737335 0.450019 0.094227
H13   H     H_    0.702792 0.589553 0.096224 0.330979
H14   H     H_    0.414190 0.113625 0.092068 0.333643
H15   H     H_    0.349331 0.830272 0.974244 0.338527
H16   H     H_    0.586528 0.701928 0.902927 0.329587
H17   H     H_    0.112186 0.412293 0.907684 0.333602
H18   H     H_    0.352024 0.058580 0.422878 0.107873
H19   H     H_    0.340367 0.027575 0.553808 0.109973
H20   H     H_    0.635071 0.698916 0.581008 0.115732
H21   H     H_    0.059712 0.353412 0.577349 0.109348
H22   H     H_    0.075400 0.705678 0.056096 0.130796
H23   H     H_    0.291116 0.374386 0.055626 0.125556
H24   H     H_    0.619959 0.910194 0.056492 0.141965
O1    O     O_R   0.434100 0.092480 0.829780 -0.462207
O2    O     O_R   0.362730 0.477510 0.175360 -0.518259
O3    O     O_R   0.114780 0.637270 0.175360 -0.532008
O4    O     O_R   0.522490 0.885220 0.175360 -0.509260
O5    O     O_R   0.432250 0.092620 0.670380 -0.538321
O6    O     O_R   0.907380 0.339630 0.670380 -0.557641
O7    O     O_R   0.660370 0.567750 0.670380 -0.538314
O8    O     O_R   0.092620 0.432250 0.329620 -0.541818
O9    O     O_R   0.339630 0.907380 0.329620 -0.555180
O10   O     O_R   0.567750 0.660370 0.329620 -0.517875
O11   O     O_R   0.475790 0.362860 0.676880 -0.519998
O12   O     O_R   0.907520 0.341620 0.829780 -0.513948
O13   O     O_R   0.637140 0.112930 0.676880 -0.485629
O14   O     O_R   0.887070 0.524210 0.676880 -0.519493
O15   O     O_R   0.362860 0.475790 0.323120 -0.517502
O16   O     O_R   0.112930 0.637140 0.323120 -0.479211
O17   O     O_R   0.524210 0.887070 0.323120 -0.531893
O18   O     O_3   0.666667 0.333333 0.749450 -0.296475
O19   O     O_3   0.333333 0.666667 0.250550 -0.309154
O20   O     O_3   0.209700 0.680935 0.471025 -0.652909
O21   O     O_3   0.332659 0.457525 0.469899 -0.682909
O22   O     O_3   0.605367 0.992229 0.458056 -0.658834
O23   O     O_R   0.658380 0.565900 0.829780 -0.505692
O24   O     O_3   0.682019 0.211671 0.528663 -0.642245
O25   O     O_3   0.481791 0.373066 0.520174 -0.660236
O26   O     O_3   0.986107 0.601519 0.540125 -0.645758
O27   O     O_3   0.896254 0.355617 0.063496 -0.657570
O28   O     O_3   0.637487 0.537531 0.057195 -0.677890
O29   O     O_3   0.464154 0.097941 0.053413 -0.675887
O30   O     O_3   0.355017 0.896443 0.937208 -0.658603
O31   O     O_3   0.535403 0.636522 0.942336 -0.678212
O32   O     O_3   0.097095 0.462746 0.946244 -0.675454
O33   O     O_R   0.092480 0.434100 0.170220 -0.462045
O34   O     O_R   0.341620 0.907520 0.170220 -0.512722
O35   O     O_R   0.565900 0.658380 0.170220 -0.504854
O36   O     O_R   0.477510 0.362730 0.824640 -0.518262
O37   O     O_R   0.637270 0.114780 0.824640 -0.533882
O38   O     O_R   0.885220 0.522490 0.824640 -0.509520

loop_
_geom_bond_atom_site_label_1
_geom_bond_atom_site_label_2
_ccdc_geom_bond_type
H14   O29   S    
C4    C8    S    
Cr4   O33   S    
C19   O31   S    
Cr3   O38   S    
C31   O35   A    
Cr3   O18   S    
C34   O11   A    
Cr1   O36   S    
C14   H18   S    
C21   C33   S    
Cr2   O13   S    
C6    O25   S    
C5    C36   S    
Cr6   O4    S    
C21   O29   S    
C3    O8    A    
C9    C13   D    
C4    O9    A    
H9    O25   S    
H8    O24   S    
C11   C17   S    
H15   O30   S    
C8    C14   D    
Cr1   O18   S    
C11   H1    S    
C18   C30   D    
C7    C15   D    
C21   C27   D    
C35   O5    A    
C22   O28   S    
H7    O22   S    
H16   O31   S    
C16   H20   S    
H13   O28   S    
C31   O2    A    
C12   O1    A    
Cr2   O6    S    
H6    O21   S    
C1    C19   S    
C22   C31   S    
H11   O27   S    
C18   C23   S    
H5    O20   S    
C24   C25   D    
C12   O37   A    
C36   O14   A    
C20   C28   D    
C7    O24   S    
Cr1   O11   S    
C28   H2    S    
C6    C34   S    
C29   H3    S    
C8    O22   S    
C25   H22   S    
Cr4   O19   S    
C24   C32   S    
Cr2   O37   S    
Cr5   O9    S    
C23   O38   A    
C12   C20   S    
C3    O16   A    
C15   H19   S    
Cr5   O34   S    
Cr6   O19   S    
C33   O4    A    
Cr5   O19   S    
Cr1   O5    S    
C22   C26   D    
H10   O26   S    
C19   C29   D    
Cr6   O35   S    
C2    O10   A    
Cr5   O3    S    
C13   H12   S    
C25   C30   S    
C10   O20   S    
C1    O23   A    
Cr2   O18   S    
C26   H23   S    
C7    C35   S    
Cr4   O15   S    
C30   H4    S    
Cr6   O17   S    
C32   O3    A    
Cr2   O12   S    
Cr6   O10   S    
C32   O33   A    
C33   O34   A    
Cr3   O14   S    
C3    C10   S    
C24   O27   S    
C17   H21   S    
C4    O17   A    
Cr5   O16   S    
Cr1   O1    S    
C35   O13   A    
Cr4   O8    S    
Cr3   O7    S    
C23   O12   A    
C20   O30   S    
C5    O26   S    
C10   C11   D    
C34   O7    A    
C6    C16   D    
C5    C17   D    
C26   C29   S    
Cr4   O2    S    
C13   C16   S    
C27   C28   S    
C27   H24   S    
H17   O32   S    
C14   C15   S    
C2    O15   A    
C18   O32   S    
C2    C9    S    
C1    O36   A    
Cr3   O23   S    
C9    O21   S    
C36   O6    A    
