data_mof_unit_26518.cif
_audit_creation_date              2012-12-10T18:09:49-0500
_audit_creation_method            fapswitch 2.2
_symmetry_space_group_name_H-M    P1
_symmetry_Int_Tables_number       1
_space_group_crystal_system       triclinic
_cell_length_a                    10.655999
_cell_length_b                    12.567277
_cell_length_c                    13.303938
_cell_angle_alpha                 85.341394
_cell_angle_beta                  91.55928
_cell_angle_gamma                 101.276405
_cell_volume                      1741.33902068

loop_
_atom_site_label
_atom_site_type_symbol
_atom_type_description
_atom_site_fract_x
_atom_site_fract_y
_atom_site_fract_z
_atom_type_partial_charge
C1    C     C_R   0.475611 0.442230 0.690526 0.856956
C2    C     C_R   0.426704 0.459172 0.970755 0.114221
C3    C     C_R   0.425397 0.488259 0.866012 0.030823
C4    C     C_R   0.742035 0.500256 0.498858 0.847959
C5    C     C_R   0.426373 0.540791 0.038674 -0.103576
C6    C     C_R   0.444766 0.652391 0.003381 -0.063353
C7    C     C_R   0.439104 0.678769 0.899680 0.506902
C8    C     C_R   0.410819 0.595429 0.834033 -0.360098
C9    C     C_R   0.416345 0.515090 0.141925 -0.033558
C10   C     C_R   0.499570 0.702445 0.172923 -0.391802
C11   C     C_R   0.446477 0.411314 0.797840 -0.094385
C12   C     C_3   0.120997 0.498343 0.501871 0.100418
C13   C     C_R   0.287918 0.077664 0.375517 -0.242087
C14   C     C_R   0.685394 0.809205 0.594003 -0.022017
C15   C     C_R   0.738061 0.918983 0.598998 -0.266556
C16   C     C_R   0.502316 0.558522 0.310411 0.898450
C17   C     C_R   0.667968 0.996863 0.563662 -0.169617
C18   C     C_R   0.548054 0.965357 0.516023 0.021897
C19   C     C_R   0.502963 0.852628 0.506792 0.204619
C20   C     C_R   0.475469 0.041359 0.472121 -0.082592
C21   C     C_R   0.362674 0.003660 0.415207 0.086764
C22   C     C_R   0.326734 0.893341 0.397374 0.389278
C23   C     C_3   0.065372 0.474645 0.395287 -0.424537
C24   C     C_R   0.399897 0.820498 0.441471 -0.357047
C25   C     C_R   0.508221 0.153805 0.484880 -0.006037
C26   C     C_R   0.324388 0.186694 0.392525 0.004625
C27   C     C_R   0.257896 0.499465 0.501718 0.813625
C28   C     C_3   0.908491 0.415745 0.584089 -0.432449
C29   C     C_3   0.051994 0.411093 0.583597 -0.139727
C30   C     C_3   0.919943 0.470469 0.393848 -0.148544
C31   C     C_3   0.955636 0.613439 0.521095 -0.412314
C32   C     C_3   0.878405 0.499215 0.498906 0.098962
C33   C     C_3   0.598777 0.800609 0.818591 0.096553
C34   C     C_3   0.097722 0.611799 0.526088 -0.410267
C35   C     C_3   0.708203 0.798546 0.896626 -0.397566
C36   C     C_3   0.836448 0.804955 0.845976 -0.952703
C37   C     C_3   0.564073 0.921312 0.077908 0.089435
C38   C     C_3   0.516538 0.987152 0.156001 -0.392204
C39   C     C_3   0.614158 0.089938 0.175129 -0.909203
C40   C     C_1   0.316498 0.425889 0.178841 0.171477
C41   C     C_3   0.224451 0.792736 0.268805 0.053419
C42   C     C_3   0.098595 0.770456 0.209465 -0.323118
C43   C     C_3   0.108137 0.700971 0.121989 -0.938186
C44   C     C_1   0.067147 0.298841 0.568742 0.201004
C45   C     C_R   0.474109 0.734652 0.072499 0.515003
C46   C     C_1   0.852367 0.362803 0.364436 0.215270
C47   C     C_R   0.476168 0.592050 0.206413 -0.157707
C48   C     C_R   0.451440 0.304324 0.834675 -0.188404
C49   C     C_R   0.447876 0.275139 0.937339 -0.163446
C50   C     C_R   0.440567 0.352177 0.004859 -0.148213
H1    H     H_    0.847054 0.334254 0.575502 0.175883
H2    H     H_    0.387991 0.619612 0.757241 0.200322
H3    H     H_    0.263820 0.242948 0.366925 0.161674
H4    H     H_    0.200877 0.051784 0.332746 0.192252
H5    H     H_    0.589169 0.188637 0.529777 0.122848
H6    H     H_    0.740990 0.749250 0.620866 0.141764
H7    H     H_    0.713073 0.080744 0.569625 0.140251
H8    H     H_    0.833182 0.943769 0.630056 0.163216
H9    H     H_    0.377853 0.739630 0.421024 0.214226
H10   H     H_    0.094078 0.430698 0.658974 0.114477
H11   H     H_    0.088844 0.397501 0.372430 0.194818
H12   H     H_    0.147532 0.676472 0.471169 0.223996
H13   H     H_    0.937187 0.675732 0.460936 0.195801
H14   H     H_    0.926578 0.638027 0.594269 0.182495
H15   H     H_    0.135844 0.631150 0.602675 0.186307
H16   H     H_    0.616411 0.881459 0.775916 0.181355
H17   H     H_    0.601364 0.738110 0.765013 0.155735
H18   H     H_    0.717348 0.868918 0.942669 0.216585
H19   H     H_    0.689714 0.722503 0.946963 0.216133
H20   H     H_    0.831663 0.736650 0.797130 0.257752
H21   H     H_    0.911658 0.799482 0.904575 0.272976
H22   H     H_    0.863660 0.883655 0.800443 0.264127
H23   H     H_    0.897394 0.532168 0.334804 0.114341
H24   H     H_    0.598148 0.978433 0.011781 0.174309
H25   H     H_    0.648593 0.888346 0.108120 0.106075
H26   H     H_    0.425376 0.010733 0.129105 0.240118
H27   H     H_    0.499543 0.937416 0.228689 0.203550
H28   H     H_    0.705924 0.068494 0.203069 0.271868
H29   H     H_    0.577021 0.134310 0.233056 0.277593
H30   H     H_    0.631386 0.144396 0.104799 0.255276
H31   H     H_    0.246341 0.712900 0.297290 0.129885
H32   H     H_    0.300281 0.835762 0.216572 0.170138
H33   H     H_    0.020974 0.727201 0.260584 0.217092
H34   H     H_    0.111314 0.539757 0.338855 0.149877
H35   H     H_    0.073758 0.848948 0.179258 0.228143
H36   H     H_    0.182797 0.744070 0.068367 0.292012
H37   H     H_    0.014900 0.685144 0.081139 0.259796
H38   H     H_    0.132333 0.621718 0.150424 0.261771
H39   H     H_    0.529505 0.762812 0.226471 0.175485
H40   H     H_    0.465058 0.244079 0.784326 0.164682
H41   H     H_    0.451590 0.327384 0.083710 0.149765
H42   H     H_    0.457374 0.193616 0.965042 0.153918
H43   H     H_    0.884132 0.440702 0.658458 0.151870
N1    N     N_R   0.433240 0.222190 0.444680 -0.106093
N2    N     N_R   0.566070 0.776970 0.554790 -0.122290
N3    N     N_1   0.235021 0.355393 0.206399 -0.248554
N4    N     N_1   0.078690 0.210977 0.557209 -0.205581
N5    N     N_1   0.799702 0.278577 0.341465 -0.211005
O1    O     O_R   0.468120 0.366740 0.627160 -0.614177
O2    O     O_3   0.462451 0.841513 0.042904 -0.605881
O3    O     O_3   0.210492 0.856942 0.348792 -0.655063
O4    O     O_R   0.510770 0.544830 0.662520 -0.633599
O5    O     O_R   0.663880 0.410950 0.482330 -0.619162
O6    O     O_R   0.706530 0.589040 0.517700 -0.633798
O7    O     O_R   0.489230 0.455170 0.337480 -0.607244
O8    O     O_R   0.531880 0.633260 0.372840 -0.636816
O9    O     O_R   0.293470 0.410960 0.482300 -0.619700
O10   O     O_R   0.336120 0.589050 0.517670 -0.656952
O11   O     O_3   0.475844 0.785958 0.861986 -0.603751
Zn1   Zn    Zn3+2 0.471520 0.381090 0.476390 0.958150
Zn2   Zn    Zn3+2 0.528480 0.618910 0.523610 0.912611

loop_
_geom_bond_atom_site_label_1
_geom_bond_atom_site_label_2
_ccdc_geom_bond_type
C26   N1    A    
C14   H6    S    
O7    Zn1   S    
C6    C45   A    
C12   C29   S    
C41   C42   S    
C35   C36   S    
C1    C11   S    
C37   H24   S    
C1    O1    A    
C11   C48   A    
C7    C8    A    
C38   H26   S    
C12   C23   S    
C22   O3    S    
O5    Zn1   S    
C43   H38   S    
C27   O10   A    
C28   C29   S    
C5    C6    A    
C28   H1    S    
C20   C25   A    
C4    O5    A    
C34   H12   S    
C16   C47   S    
C18   C19   A    
C2    C50   A    
C33   C35   S    
C10   H39   S    
C8    H2    S    
C36   H21   S    
C16   O8    A    
C37   H25   S    
C25   N1    A    
C48   H40   S    
C21   C22   A    
O4    Zn2   S    
C40   N3    T    
C34   H15   S    
C36   H20   S    
C33   H16   S    
O8    Zn2   S    
C23   H34   S    
C12   C27   S    
C23   C30   S    
C31   H13   S    
C28   C32   S    
C3    C8    A    
C30   H23   S    
O1    Zn1   S    
N1    Zn1   S    
C9    C40   S    
C7    O11   S    
C28   H43   S    
C39   H29   S    
C39   H28   S    
C5    C9    A    
C37   C38   S    
C44   N4    T    
C31   C32   S    
C29   H10   S    
C27   O9    A    
C41   H31   S    
C10   C45   A    
C17   C18   A    
C31   C34   S    
C13   C21   A    
C42   H35   S    
C4    C32   S    
C16   O7    A    
C48   C49   A    
C9    C47   A    
C29   C44   S    
C15   H8    S    
C22   C24   A    
C13   C26   A    
C2    C5    A    
C33   O11   S    
C42   C43   S    
C49   H42   S    
C12   C34   S    
C26   H3    S    
C14   N2    A    
C19   N2    A    
C33   H17   S    
C13   H4    S    
C15   C17   A    
C43   H36   S    
C31   H14   S    
C30   C46   S    
C42   H33   S    
C25   H5    S    
C45   O2    S    
O6    Zn2   S    
C6    C7    A    
C38   H27   S    
O10   Zn2   S    
C43   H37   S    
C39   H30   S    
C2    C3    A    
N2    Zn2   S    
C30   C32   S    
C38   C39   S    
C35   H18   S    
C24   H9    S    
C41   H32   S    
C4    O6    A    
O9    Zn1   S    
C41   O3    S    
C19   C24   A    
C18   C20   A    
C46   N5    T    
C3    C11   A    
C50   H41   S    
C23   H11   S    
C20   C21   A    
C35   H19   S    
C49   C50   A    
C10   C47   A    
C14   C15   A    
C1    O4    A    
C37   O2    S    
C36   H22   S    
C17   H7    S    
