data_mof_unit_51825.cif
_audit_creation_date              2012-12-10T17:47:03-0500
_audit_creation_method            fapswitch 2.2
_symmetry_space_group_name_H-M    P1
_symmetry_Int_Tables_number       1
_space_group_crystal_system       triclinic
_cell_length_a                    9.965685
_cell_length_b                    10.726504
_cell_length_c                    13.619088
_cell_angle_alpha                 93.040632
_cell_angle_beta                  83.502825
_cell_angle_gamma                 92.860146
_cell_volume                      1443.03812195

loop_
_atom_site_label
_atom_site_type_symbol
_atom_type_description
_atom_site_fract_x
_atom_site_fract_y
_atom_site_fract_z
_atom_type_partial_charge
C1    C     C_R   0.504207 0.738683 0.493896 0.849208
C2    C     C_R   0.604199 0.942404 0.530856 -0.232348
C3    C     C_R   0.594527 0.069486 0.537518 -0.159066
C4    C     C_R   0.476225 0.500488 0.685396 0.878704
C5    C     C_R   0.487951 0.124384 0.499534 -0.105239
C6    C     C_R   0.847990 0.659680 0.634187 -0.143834
C7    C     C_R   0.911067 0.736193 0.702496 -0.200830
C8    C     C_R   0.049437 0.733246 0.704976 -0.189131
C9    C     C_R   0.125820 0.654645 0.638544 -0.123807
C10   C     C_R   0.065234 0.574431 0.569242 0.151865
C11   C     C_R   0.921340 0.575914 0.568054 0.138679
C12   C     C_1   0.458637 0.501356 0.789096 -0.177756
C13   C     C_R   0.934982 0.435311 0.428970 -0.013286
C14   C     C_R   0.079126 0.437798 0.427208 -0.061731
C15   C     C_R   0.495916 0.259229 0.500020 0.894867
C16   C     C_R   0.523758 0.499509 0.314612 0.884468
C17   C     C_1   0.541269 0.499734 0.210984 -0.164043
C18   C     C_2   0.557879 0.500559 0.019417 -0.167217
C19   C     C_2   0.441848 0.502480 0.980774 -0.150233
C20   C     C_1   0.446476 0.502039 0.876858 0.004099
C21   C     C_1   0.553295 0.500068 0.123276 0.021731
C22   C     C_2   0.161252 0.376797 0.342624 0.404861
C23   C     C_R   0.339370 0.851906 0.364370 -0.191249
C24   C     C_3   0.049122 0.059369 0.345521 -0.401766
C25   C     C_3   0.050225 0.077820 0.234939 -0.777110
C26   C     C_2   0.868624 0.366302 0.350019 0.536762
C27   C     C_R   0.224372 0.898204 0.333839 -0.140304
C28   C     C_R   0.182847 0.016087 0.368911 0.186528
C29   C     C_R   0.265080 0.091197 0.427882 -0.245459
C30   C     C_R   0.389298 0.049219 0.452271 0.073674
C31   C     C_R   0.415368 0.923190 0.430676 0.101362
C32   C     C_R   0.512851 0.869649 0.480094 -0.094224
H1    H     H_    0.344938 0.503889 0.026331 0.179476
H2    H     H_    0.224247 0.176431 0.460070 0.153753
H3    H     H_    0.668744 0.124890 0.575350 0.170637
H4    H     H_    0.247676 0.325198 0.353908 0.121534
H5    H     H_    0.136302 0.141598 0.208364 0.278504
H6    H     H_    0.058985 0.986971 0.192230 0.233817
H7    H     H_    0.954577 0.118860 0.220865 0.279138
H8    H     H_    0.967630 0.989324 0.369482 0.220506
H9    H     H_    0.025085 0.148423 0.387240 0.223737
H10   H     H_    0.870696 0.406060 0.278235 0.080908
H11   H     H_    0.742620 0.671559 0.632780 0.196205
H12   H     H_    0.852469 0.799817 0.752582 0.148533
H13   H     H_    0.098525 0.794413 0.757175 0.149997
H14   H     H_    0.232241 0.662361 0.641536 0.200143
H15   H     H_    0.654773 0.499015 0.973852 0.161849
H16   H     H_    0.680461 0.900812 0.567890 0.157672
H17   H     H_    0.366888 0.758860 0.337444 0.164363
H18   H     H_    0.164291 0.839540 0.286709 0.147803
N1    N     N_R   0.857120 0.501200 0.500900 -0.155835
N2    N     N_R   0.142720 0.501280 0.500940 -0.161099
O1    O     O_R   0.385310 0.683220 0.500000 -0.634451
O2    O     O_2   0.814261 0.263408 0.363608 -0.596891
O3    O     O_R   0.614640 0.683250 0.500010 -0.641166
O4    O     O_R   0.368830 0.499960 0.640340 -0.627136
O5    O     O_R   0.598160 0.499980 0.640350 -0.627880
O6    O     O_R   0.385360 0.316750 0.499990 -0.659376
O7    O     O_R   0.614690 0.316780 0.500000 -0.557818
O8    O     O_R   0.401840 0.500020 0.359650 -0.624563
O9    O     O_R   0.631170 0.500040 0.359660 -0.621767
O10   O     O_2   0.136084 0.387623 0.257900 -0.624001
Zn1   Zn    Zn3+2 0.346870 0.499980 0.499990 0.921173
Zn2   Zn    Zn3+2 0.653130 0.500020 0.500010 0.954062

loop_
_geom_bond_atom_site_label_1
_geom_bond_atom_site_label_2
_ccdc_geom_bond_type
C4    O5    A    
O9    Zn2   S    
C6    C7    A    
C23   C27   A    
C25   H6    S    
C22   O10   D    
C18   C21   S    
C22   H4    S    
C9    C10   A    
C31   C32   A    
C27   H18   S    
C3    H3    S    
C3    C5    A    
C10   N2    A    
O3    Zn2   S    
C14   C22   S    
C2    C3    A    
C1    O3    A    
O4    Zn1   S    
C9    H14   S    
C16   O9    A    
C23   H17   S    
C7    H12   S    
C25   H7    S    
C24   H9    S    
O1    Zn1   S    
C4    O4    A    
C12   C20   T    
O7    Zn2   S    
C29   C30   A    
O8    Zn1   S    
C26   O2    D    
C28   C29   A    
C24   H8    S    
C18   H15   S    
C18   C19   D    
C6    H11   S    
C16   O8    A    
C30   C31   A    
C15   O6    A    
C17   C21   T    
C13   C26   S    
C5    C15   S    
C4    C12   S    
C10   C11   A    
C24   C28   S    
C6    C11   A    
C11   N1    A    
C24   C25   S    
C26   H10   S    
O5    Zn2   S    
C2    C32   A    
C5    C30   A    
C19   H1    S    
O6    Zn1   S    
C7    C8    A    
C1    O1    A    
C8    H13   S    
C16   C17   S    
C13   C14   A    
C2    H16   S    
C13   N1    A    
C15   O7    A    
C29   H2    S    
C1    C32   S    
C14   N2    A    
N1    Zn2   S    
C19   C20   S    
C25   H5    S    
C8    C9    A    
C27   C28   A    
N2    Zn1   S    
C23   C31   A    
