data_mof_unit_52092.cif
_audit_creation_date              2012-12-10T17:02:16-0500
_audit_creation_method            fapswitch 2.2
_symmetry_space_group_name_H-M    P1
_symmetry_Int_Tables_number       1
_space_group_crystal_system       triclinic
_cell_length_a                    10.618302
_cell_length_b                    10.721361
_cell_length_c                    10.078996
_cell_angle_alpha                 90.579642
_cell_angle_beta                  90.04244
_cell_angle_gamma                 90.009222
_cell_volume                      1147.36055547

loop_
_atom_site_label
_atom_site_type_symbol
_atom_type_description
_atom_site_fract_x
_atom_site_fract_y
_atom_site_fract_z
_atom_type_partial_charge
C1    C     C_R   0.501682 0.262912 0.499368 0.904221
C2    C     C_R   0.066477 0.385764 0.545755 0.025513
C3    C     C_R   0.128136 0.493721 0.499462 -0.120050
C4    C     C_R   0.062604 0.596805 0.450763 0.151883
C5    C     C_R   0.933806 0.594542 0.451529 -0.222703
C6    C     C_R   0.871352 0.490654 0.499583 -0.090243
C7    C     C_2   0.491134 0.932215 0.388385 -0.130690
C8    C     C_2   0.483438 0.868771 0.501449 -0.297538
C9    C     C_2   0.483103 0.066232 0.389032 -0.120508
C10   C     C_2   0.510907 0.131302 0.498541 -0.328189
C11   C     C_2   0.538716 0.593026 0.927915 0.257006
C12   C     C_R   0.260652 0.499672 0.499918 0.900083
C13   C     C_2   0.504724 0.598422 0.073040 -0.054528
C14   C     C_R   0.497066 0.737190 0.500474 0.937624
C15   C     C_R   0.739137 0.497034 0.499963 0.858819
C16   C     C_R   0.132670 0.279429 0.589767 -0.221275
C17   C     C_R   0.068821 0.173371 0.632686 0.165530
C18   C     C_R   0.936491 0.170628 0.629922 0.232795
C19   C     C_R   0.870515 0.275670 0.586397 -0.204675
C20   C     C_R   0.934816 0.383993 0.545008 0.048829
H1    H     H_    0.544174 0.089343 0.589449 0.167272
H2    H     H_    0.435378 0.442722 0.893070 0.186462
H3    H     H_    0.488166 0.688636 0.119028 0.138607
H4    H     H_    0.234395 0.276770 0.589977 0.170557
H5    H     H_    0.768758 0.271182 0.584831 0.157861
H6    H     H_    0.881859 0.674820 0.416253 0.161855
H7    H     H_    0.502995 0.885871 0.292835 0.172776
H8    H     H_    0.462879 0.912051 0.596578 0.173268
H9    H     H_    0.456496 0.111461 0.297166 0.197534
N1    N     N_2   0.501340 0.501330 0.852150 -0.210289
N2    N     N_2   0.501380 0.501360 0.147810 -0.053320
O1    O     O_R   0.499980 0.319060 0.613040 -0.614151
O2    O     O_R   0.500020 0.319100 0.386900 -0.588593
O3    O     O_R   0.316750 0.499980 0.613090 -0.611751
O4    O     O_R   0.316790 0.500020 0.386950 -0.588229
O5    O     O_R   0.499980 0.680900 0.613100 -0.625980
O6    O     O_R   0.500020 0.680940 0.386960 -0.617590
O7    O     O_R   0.683210 0.499980 0.613050 -0.632155
O8    O     O_R   0.683250 0.500020 0.386910 -0.585758
Zn1   Zn    Zn3+2 0.499970 0.499970 0.650990 0.964066
Zn2   Zn    Zn3+2 0.500030 0.500030 0.349010 1.015070
I1    I     I_    0.151041 0.760892 0.378751 -0.332220
N3    N     N_2   0.616807 0.688692 0.875239 -0.287023
H10   H     H_    0.659912 0.667890 0.786413 0.276291
C21   C     C_3   0.568868 0.814814 0.885430 -0.751357
H11   H     H_    0.565394 0.846007 0.990638 0.236322
H12   H     H_    0.632582 0.879156 0.831762 0.239722
H13   H     H_    0.473382 0.820751 0.840737 0.261218
I2    I     I_    0.593003 0.336802 0.087699 -0.280033
I3    I     I_    0.178518 0.019249 0.695011 -0.385185
N4    N     N_2   0.867836 0.063868 0.671111 -0.305313
H14   H     H_    0.908506 0.014954 0.747473 0.262614
C22   C     C_3   0.825701 0.983903 0.563489 -0.759268
H15   H     H_    0.764764 0.908890 0.603306 0.229501
H16   H     H_    0.907860 0.940407 0.512853 0.272819
H17   H     H_    0.770225 0.037931 0.490396 0.252495

loop_
_geom_bond_atom_site_label_1
_geom_bond_atom_site_label_2
_ccdc_geom_bond_type
C17   I3    S    
N3    H10   S    
C15   O7    A    
C11   N3    S    
C5    H6    S    
C2    C16   A    
C9    C10   D    
C7    H7    S    
C19   C20   A    
C9    H9    S    
O2    Zn2   S    
O1    Zn1   S    
C17   C18   A    
N1    Zn1   S    
C7    C8    D    
O8    Zn2   S    
H2    N1    S    
C21   H11   S    
C12   O4    A    
O7    Zn1   S    
N3    C21   S    
C15   O8    A    
C4    I1    S    
N2    I2    S    
O3    Zn1   S    
C18   N4    S    
C2    C3    A    
C22   H16   S    
C10   H1    S    
O6    Zn2   S    
C5    C6    A    
O4    Zn2   S    
C21   H13   S    
C11   C13   S    
C19   H5    S    
C1    O2    A    
N4    H14   S    
O5    Zn1   S    
C6    C20   A    
C13   H3    S    
C8    H8    S    
C16   H4    S    
C18   C19   A    
C21   H12   S    
C22   H17   S    
C7    C9    S    
C2    C20   A    
C16   C17   A    
C14   O5    A    
C8    C14   S    
C3    C12   S    
N2    Zn2   S    
N4    C22   S    
C6    C15   S    
C22   H15   S    
C12   O3    A    
C13   N2    D    
C1    O1    A    
C1    C10   S    
C3    C4    A    
C11   N1    D    
C4    C5    A    
C14   O6    A    
