data_mof_unit_30394.cif
_audit_creation_date              2012-12-10T20:34:51-0500
_audit_creation_method            fapswitch 2.2
_symmetry_space_group_name_H-M    P1
_symmetry_Int_Tables_number       1
_space_group_crystal_system       triclinic
_cell_length_a                    10.633467
_cell_length_b                    10.670317
_cell_length_c                    9.860786
_cell_angle_alpha                 90.003388
_cell_angle_beta                  90.196777
_cell_angle_gamma                 90.030759
_cell_volume                      1118.82231189

loop_
_atom_site_label
_atom_site_type_symbol
_atom_type_description
_atom_site_fract_x
_atom_site_fract_y
_atom_site_fract_z
_atom_type_partial_charge
C1    C     C_R   0.503711 0.259963 0.500088 0.874593
C2    C     C_3   0.878731 0.500105 0.499222 0.069704
C3    C     C_3   0.928325 0.619299 0.572126 0.476920
C4    C     C_3   0.928123 0.498203 0.350983 -0.359030
C5    C     C_R   0.517435 0.063875 0.623559 0.145585
C6    C     C_R   0.523271 0.128574 0.501211 -0.113082
C7    C     C_R   0.552855 0.064838 0.381088 -0.233115
C8    C     C_R   0.553069 0.935199 0.381104 -0.187267
C9    C     C_R   0.523612 0.871406 0.501224 -0.090003
C10   C     C_R   0.517644 0.936109 0.623573 0.147132
C11   C     C_3   0.422442 0.928757 0.734570 -0.488128
C12   C     C_R   0.257623 0.499548 0.499648 0.856945
C13   C     C_3   0.422128 0.070827 0.734467 -0.494966
C14   C     C_R   0.436623 0.409299 0.070929 0.221271
C15   C     C_R   0.571594 0.582561 0.072282 -0.139220
C16   C     C_R   0.571535 0.582632 0.928245 -0.141678
C17   C     C_R   0.436789 0.409190 0.928303 0.222722
C18   C     C_3   0.299069 0.384189 0.921618 -0.523967
C19   C     C_3   0.298678 0.385050 0.075411 -0.520825
C20   C     C_R   0.503910 0.740020 0.500050 0.906294
C21   C     C_R   0.742345 0.499875 0.499920 0.894622
C22   C     C_3   0.072192 0.382196 0.574817 -0.419132
C23   C     C_3   0.927795 0.381932 0.573939 -0.514948
C24   C     C_3   0.072852 0.619645 0.570148 -0.446602
C25   C     C_3   0.070787 0.496798 0.351017 -0.405103
C26   C     C_3   0.121214 0.499566 0.498929 0.110776
H1    H     H_    0.106424 0.381800 0.681567 0.182317
H2    H     H_    0.894382 0.582081 0.294301 0.213911
H3    H     H_    0.107987 0.704286 0.516136 0.194999
H4    H     H_    0.567298 0.114040 0.286297 0.169517
H5    H     H_    0.567667 0.886012 0.286333 0.165453
H6    H     H_    0.331767 0.887076 0.700486 0.201842
H7    H     H_    0.462373 0.887822 0.829031 0.207396
H8    H     H_    0.331307 0.111929 0.700164 0.196969
H9    H     H_    0.461744 0.112086 0.828939 0.205416
H10   H     H_    0.627464 0.650791 0.126899 0.149337
H11   H     H_    0.107706 0.295391 0.525370 0.174983
H12   H     H_    0.627287 0.650973 0.874068 0.151132
H13   H     H_    0.245300 0.463335 0.876581 0.216015
H14   H     H_    0.277716 0.290669 0.877633 0.195561
H15   H     H_    0.245555 0.465427 0.117971 0.213836
H16   H     H_    0.276366 0.292260 0.120576 0.199391
H17   H     H_    0.892770 0.295692 0.522603 0.194205
H18   H     H_    0.893049 0.379916 0.680306 0.186006
H19   H     H_    0.108841 0.624360 0.676210 0.136195
H20   H     H_    0.895855 0.620272 0.679361 0.078929
H21   H     H_    0.105771 0.579371 0.293171 0.184286
H22   H     H_    0.103642 0.410374 0.298745 0.178594
H23   H     H_    0.892850 0.413566 0.296622 0.172117
N1    N     N_R   0.499150 0.499140 0.142800 -0.108516
N2    N     N_R   0.499150 0.499180 0.857150 -0.107149
O1    O     O_R   0.500020 0.316790 0.614690 -0.615853
O2    O     O_R   0.500000 0.316760 0.385350 -0.625065
O3    O     O_R   0.314800 0.500000 0.614670 -0.628194
O4    O     O_R   0.314790 0.499960 0.385330 -0.627127
O5    O     O_R   0.500000 0.683240 0.614650 -0.616673
O6    O     O_R   0.499980 0.683210 0.385310 -0.623523
O7    O     O_R   0.685210 0.500040 0.614670 -0.637351
O8    O     O_R   0.685200 0.500000 0.385330 -0.623977
Zn1   Zn    Zn3+2 0.500010 0.500020 0.653130 0.941201
Zn2   Zn    Zn3+2 0.499990 0.499980 0.346870 0.941451
F1    F     F_    0.882731 0.726556 0.509414 -0.687129

loop_
_geom_bond_atom_site_label_1
_geom_bond_atom_site_label_2
_ccdc_geom_bond_type
C2    C4    S    
C18   H13   S    
C16   N2    A    
O6    Zn2   S    
C6    C7    A    
O1    Zn1   S    
C9    C10   A    
C25   H21   S    
C3    H20   S    
C5    C13   S    
C25   H22   S    
C19   H16   S    
C4    H23   S    
C20   O5    A    
C21   O7    A    
C17   N2    A    
C2    C21   S    
C17   C18   S    
C20   O6    A    
C5    C10   A    
C7    H4    S    
O3    Zn1   S    
C1    O2    A    
C11   C13   S    
C14   C17   A    
C3    C24   S    
C14   N1    A    
C15   N1    A    
C24   H19   S    
O4    Zn2   S    
C4    H2    S    
C24   C26   S    
C11   H6    S    
C4    C25   S    
C2    C3    S    
C22   H1    S    
C5    C6    A    
C1    O1    A    
O8    Zn2   S    
C12   O4    A    
C7    C8    A    
C10   C11   S    
C23   H18   S    
O7    Zn1   S    
C15   C16   A    
C21   O8    A    
C19   H15   S    
C15   H10   S    
C11   H7    S    
C23   H17   S    
C18   C19   S    
C22   C26   S    
C3    F1    S    
C16   H12   S    
C2    C23   S    
N1    Zn2   S    
C18   H14   S    
C22   C23   S    
C13   H8    S    
N2    Zn1   S    
C9    C20   S    
C25   C26   S    
C24   H3    S    
C22   H11   S    
O2    Zn2   S    
C14   C19   S    
C13   H9    S    
C12   O3    A    
C8    H5    S    
O5    Zn1   S    
C12   C26   S    
C8    C9    A    
C1    C6    S    
