data_mof_unit_44798.cif
_audit_creation_date              2012-12-10T18:31:49-0500
_audit_creation_method            fapswitch 2.2
_symmetry_space_group_name_H-M    P1
_symmetry_Int_Tables_number       1
_space_group_crystal_system       triclinic
_cell_length_a                    10.642337
_cell_length_b                    14.938107
_cell_length_c                    15.478299
_cell_angle_alpha                 81.478513
_cell_angle_beta                  90.212695
_cell_angle_gamma                 104.26856
_cell_volume                      2357.06516691

loop_
_atom_site_label
_atom_site_type_symbol
_atom_type_description
_atom_site_fract_x
_atom_site_fract_y
_atom_site_fract_z
_atom_type_partial_charge
C1    C     C_R   0.481333 0.441336 0.662267 0.893502
C2    C     C_3   0.121659 0.498210 0.500312 -0.044510
C3    C     C_3   0.100324 0.574901 0.425717 -0.604015
C4    C     C_3   0.079687 0.522165 0.590106 0.364142
C5    C     C_R   0.475829 0.405242 0.755502 -0.020700
C6    C     C_R   0.553156 0.593362 0.245549 -0.064176
C7    C     C_R   0.407986 0.282080 0.878200 -0.166475
C8    C     C_R   0.413558 0.312731 0.788578 -0.252592
C9    C     C_R   0.532869 0.466529 0.812242 -0.235113
C10   C     C_R   0.529276 0.437772 0.902368 0.013534
C11   C     C_R   0.462553 0.344358 0.935942 0.056559
C12   C     C_R   0.741808 0.500030 0.500949 0.995642
C13   C     C_R   0.581172 0.502047 0.959826 0.066333
C14   C     C_R   0.547064 0.476307 0.049565 -0.003332
C15   C     C_R   0.489852 0.381497 0.082373 -0.350074
C16   C     C_R   0.446858 0.315859 0.026447 0.512522
C17   C     C_R   0.664355 0.591510 0.930817 -0.205360
C18   C     C_R   0.701443 0.656687 0.987567 -0.233322
C19   C     C_R   0.653282 0.635856 0.073675 0.160070
C20   C     C_R   0.572800 0.546136 0.104161 0.126231
C21   C     C_R   0.684245 0.703107 0.130117 -0.212304
C22   C     C_R   0.636503 0.681154 0.216644 -0.151327
C23   C     C_R   0.520823 0.558667 0.337841 0.879121
C24   C     C_R   0.515998 0.529545 0.187699 -0.273656
C25   C     C_R   0.735683 0.851225 0.603966 0.460240
C26   C     C_R   0.679731 0.757049 0.600482 -0.123652
C27   C     C_R   0.513075 0.793793 0.510879 -0.049317
C28   C     C_R   0.559979 0.889991 0.514081 -0.103840
C29   C     C_R   0.675706 0.919235 0.560397 -0.071794
C30   C     C_R   0.496356 0.957358 0.472376 0.038734
C31   C     C_R   0.544824 0.052331 0.482243 0.010920
C32   C     C_R   0.668241 0.080262 0.516587 -0.297111
C33   C     C_R   0.730887 0.015480 0.559386 0.526945
C34   C     C_R   0.258126 0.499229 0.499951 0.921982
C35   C     C_R   0.386879 0.933583 0.420494 -0.321146
C36   C     C_R   0.326996 0.001209 0.379845 0.547684
C37   C     C_R   0.365107 0.092547 0.399168 0.006357
C38   C     C_R   0.470361 0.117579 0.454612 -0.161667
C39   C     C_R   0.298357 0.159114 0.364832 -0.263484
C40   C     C_R   0.332836 0.247727 0.388325 -0.126490
C41   C     C_R   0.491617 0.205934 0.483589 0.623640
C42   C     C_3   0.895042 0.402281 0.485825 -0.368633
C43   C     C_3   0.037601 0.403483 0.479359 -0.455585
C44   C     C_3   0.955898 0.579456 0.430108 0.355063
C45   C     C_3   0.932514 0.518229 0.593080 0.246544
C46   C     C_3   0.878420 0.499739 0.501743 -0.100301
H1    H     H_    0.847205 0.380981 0.425606 0.191637
H2    H     H_    0.958956 0.646129 0.455126 0.095312
H3    H     H_    0.667364 0.731273 0.261146 0.166526
H4    H     H_    0.765343 0.724330 0.963358 0.151787
H5    H     H_    0.480594 0.356061 0.151672 0.171397
H6    H     H_    0.283241 0.300033 0.361121 0.152241
H7    H     H_    0.055999 0.341845 0.521798 0.187198
H8    H     H_    0.719364 0.153137 0.508883 0.201593
H9    H     H_    0.220035 0.143127 0.320308 0.193960
H10   H     H_    0.132434 0.560622 0.362248 0.192067
N1    N     N_R   0.573860 0.731700 0.552730 -0.122727
N2    N     N_R   0.426060 0.268290 0.447230 -0.130479
O1    O     O_R   0.462770 0.383110 0.605620 -0.595933
O2    O     O_R   0.510160 0.531900 0.639510 -0.614228
O3    O     O_R   0.661510 0.425600 0.483070 -0.576832
O4    O     O_R   0.708900 0.574390 0.516960 -0.647664
O5    O     O_R   0.489840 0.468100 0.360490 -0.624755
O6    O     O_R   0.537230 0.616890 0.394380 -0.615297
O7    O     O_R   0.291100 0.425610 0.483040 -0.645553
O8    O     O_R   0.338490 0.574400 0.516930 -0.622209
Zn1   Zn    Zn3+2 0.468350 0.400660 0.477370 0.970393
Zn2   Zn    Zn3+2 0.531650 0.599340 0.522630 0.950825
H11   H     H_    0.127688 0.597803 0.587801 0.065126
H12   H     H_    0.163451 0.644499 0.433820 0.161655
O9    O     O_3   0.392495 0.223082 0.060140 -0.614755
C47   C     C_3   0.268611 0.214887 0.097432 -0.358699
H13   H     H_    0.206528 0.246904 0.050530 0.161858
H14   H     H_    0.275942 0.245980 0.158777 0.166517
H15   H     H_    0.219650 0.139615 0.114521 0.195517
H16   H     H_    0.443017 0.465854 0.209731 0.150747
H17   H     H_    0.356553 0.210624 0.902225 0.178900
H18   H     H_    0.365036 0.265182 0.745815 0.138029
H19   H     H_    0.574539 0.538367 0.784996 0.151720
H20   H     H_    0.847276 0.347083 0.540280 0.233127
H21   H     H_    0.705542 0.612039 0.865149 0.137235
H22   H     H_    0.747739 0.771448 0.107998 0.141032
O10   O     O_3   0.852361 0.046543 0.592718 -0.572453
C48   C     C_3   0.842155 0.095867 0.662416 -0.263428
H23   H     H_    0.762891 0.056386 0.710468 0.159862
H24   H     H_    0.828372 0.166483 0.637987 0.151947
H25   H     H_    0.934395 0.105788 0.697604 0.182772
O11   O     O_3   0.571216 0.229551 0.551638 -0.614396
C49   C     C_3   0.506208 0.182944 0.631126 -0.312562
H26   H     H_    0.506518 0.107859 0.641740 0.154958
H27   H     H_    0.404380 0.189458 0.634366 0.153105
H28   H     H_    0.558684 0.214719 0.685511 0.202218
O12   O     O_3   0.221178 0.975235 0.328682 -0.617313
C50   C     C_3   0.266416 0.964901 0.246125 -0.340566
H29   H     H_    0.336628 0.029856 0.214735 0.185632
H30   H     H_    0.182571 0.951153 0.202971 0.195812
H31   H     H_    0.310817 0.904351 0.250936 0.167625
O13   O     O_3   0.844059 0.875910 0.653332 -0.578367
C51   C     C_3   0.952542 0.861211 0.610537 -0.235796
H32   H     H_    0.964666 0.896943 0.541485 0.181778
H33   H     H_    0.946258 0.785429 0.613305 0.116481
H34   H     H_    0.041017 0.891530 0.644815 0.189073
H35   H     H_    0.724344 0.703770 0.632385 0.137950
H36   H     H_    0.431192 0.765583 0.473774 0.136495
H37   H     H_    0.346349 0.863551 0.407815 0.148556
H38   H     H_    0.062071 0.394247 0.411884 0.186000
O14   O     O_3   0.889106 0.588385 0.350139 -0.594723
C52   C     C_3   0.924014 0.542360 0.284200 -0.260240
H39   H     H_    0.944653 0.474423 0.309141 0.145078
H40   H     H_    0.008309 0.588847 0.244656 0.166046
H41   H     H_    0.841754 0.528397 0.239755 0.188767
H42   H     H_    0.921776 0.589066 0.602240 0.013096
O15   O     O_3   0.863029 0.447752 0.659753 -0.597826
C53   C     C_3   0.848596 0.485511 0.736394 -0.264980
H43   H     H_    0.787136 0.536149 0.724810 0.138444
H44   H     H_    0.944190 0.519664 0.760790 0.194875
H45   H     H_    0.799372 0.427901 0.788004 0.188639
O16   O     O_3   0.127046 0.480685 0.668606 -0.596879
C54   C     C_3   0.104692 0.382557 0.679279 -0.235389
H46   H     H_    0.005996 0.346693 0.661967 0.195827
H47   H     H_    0.114529 0.357056 0.749389 0.174593
H48   H     H_    0.180116 0.362145 0.642978 0.146226

loop_
_geom_bond_atom_site_label_1
_geom_bond_atom_site_label_2
_ccdc_geom_bond_type
O8    Zn2   S    
C42   H20   S    
O12   C50   S    
C19   C20   A    
C48   H25   S    
C34   O8    A    
C53   H43   S    
C45   H42   S    
C7    C8    A    
C45   C46   S    
C7    C11   A    
C30   C35   A    
C1    C5    S    
O6    Zn2   S    
C36   C37   A    
C19   C21   A    
C48   H24   S    
C41   N2    A    
C1    O1    A    
C42   C46   S    
C30   C31   A    
C54   H48   S    
C15   C16   A    
C6    C22   A    
C29   C33   A    
C27   H36   S    
C52   H39   S    
C18   C19   A    
C9    H19   S    
C20   C24   A    
O16   C54   S    
O1    Zn1   S    
C36   O12   S    
C43   H7    S    
C39   H9    S    
O10   C48   S    
O7    Zn1   S    
O14   C52   S    
N2    Zn1   S    
C15   H5    S    
C49   H27   S    
C9    C10   A    
C7    H17   S    
C2    C34   S    
C23   O5    A    
C21   C22   A    
C8    H18   S    
C4    O16   S    
C16   O9    S    
C47   H15   S    
C34   O7    A    
C32   H8    S    
C4    H11   S    
C44   C46   S    
C4    C45   S    
C54   H47   S    
C25   C29   A    
O5    Zn1   S    
C3    C44   S    
C40   N2    A    
C53   H45   S    
C14   C20   A    
C3    H12   S    
C48   H23   S    
C38   C41   A    
C47   H14   S    
C27   N1    A    
C1    O2    A    
C39   C40   A    
C24   H16   S    
C50   H31   S    
C25   C26   A    
C40   H6    S    
C35   C36   A    
C2    C4    S    
C5    C9    A    
C37   C38   A    
C35   H37   S    
C26   H35   S    
C12   O4    A    
C3    H10   S    
O3    Zn1   S    
C31   C32   A    
C2    C43   S    
C6    C24   A    
C17   C18   A    
C21   H22   S    
C49   H28   S    
C50   H30   S    
C33   O10   S    
C22   H3    S    
C12   C46   S    
C23   O6    A    
C51   H33   S    
C42   C43   S    
N1    Zn2   S    
C18   H4    S    
O15   C53   S    
C44   O14   S    
C41   O11   S    
C28   C29   A    
C47   H13   S    
C10   C13   A    
C5    C8    A    
C53   H44   S    
C54   H46   S    
C52   H41   S    
O4    Zn2   S    
C31   C38   A    
C13   C17   A    
C32   C33   A    
C28   C30   A    
C2    C3    S    
O9    C47   S    
C37   C39   A    
C51   H32   S    
C12   O3    A    
C6    C23   S    
C52   H40   S    
C17   H21   S    
C42   H1    S    
C50   H29   S    
C26   N1    A    
C11   C16   A    
C10   C11   A    
C45   O15   S    
C25   O13   S    
C51   H34   S    
O11   C49   S    
O2    Zn2   S    
O13   C51   S    
C27   C28   A    
C14   C15   A    
C49   H26   S    
C13   C14   A    
C43   H38   S    
C44   H2    S    
