data_mof_unit_42285.cif
_audit_creation_date              2013-03-05T15:41:32-0500
_audit_creation_method            fapswitch 2.2
_symmetry_space_group_name_H-M    P1
_symmetry_Int_Tables_number       1
_space_group_crystal_system       triclinic
_cell_length_a                    24.73999
_cell_length_b                    17.448471
_cell_length_c                    15.673969
_cell_angle_alpha                 89.738979
_cell_angle_beta                  129.912371
_cell_angle_gamma                 90.430653
_cell_volume                      5189.60173925

loop_
_atom_site_label
_atom_site_type_symbol
_atom_site_description
_atom_site_fract_x
_atom_site_fract_y
_atom_site_fract_z
_atom_type_partial_charge
C1    C     C_R   0.333487 0.391077 0.198483 -0.194997
C2    C     C_R   0.351475 0.641967 0.244827 -0.189017
C3    C     C_R   0.833487 0.891077 0.198484 -0.195000
C4    C     C_R   0.851473 0.141965 0.244819 -0.189011
H1    H     H_    0.280650 0.393273 0.170307 0.113349
H2    H     H_    0.303934 0.655177 0.231065 0.119522
H3    H     H_    0.780650 0.893273 0.170308 0.113351
H4    H     H_    0.803930 0.155175 0.231048 0.119522
N1    N     N_R   0.389430 0.421450 0.294590 -0.062453
N2    N     N_R   0.389430 0.578550 0.294590 -0.065940
N3    N     N_R   0.889430 0.921450 0.294590 -0.062455
N4    N     N_R   0.889430 0.078550 0.294590 -0.065938
C5    C     C_R   0.669120 0.405215 0.809312 -0.075115
C6    C     C_R   0.648124 0.641324 0.753568 -0.136930
C7    C     C_R   0.169115 0.905194 0.809309 -0.075243
C8    C     C_R   0.148134 0.141315 0.753592 -0.137064
H5    H     H_    0.722369 0.411335 0.840058 0.085572
H6    H     H_    0.693939 0.658684 0.764700 0.106588
H7    H     H_    0.222367 0.911286 0.840065 0.085593
H8    H     H_    0.193961 0.158663 0.764750 0.106647
N5    N     N_R   0.612200 0.424040 0.705410 -0.036757
N6    N     N_R   0.612200 0.575960 0.705410 -0.048217
N7    N     N_R   0.112200 0.924040 0.705410 -0.036796
N8    N     N_R   0.112200 0.075960 0.705410 -0.048356
C9    C     C_R   0.591896 0.360521 0.406361 -0.162522
C10   C     C_R   0.616106 0.600247 0.408747 -0.101547
C11   C     C_R   0.091909 0.860530 0.406363 -0.162545
C12   C     C_R   0.116103 0.100247 0.408741 -0.101551
H9    H     H_    0.566851 0.348089 0.321052 0.159563
H10   H     H_    0.596494 0.593715 0.324869 0.188890
H11   H     H_    0.066862 0.848097 0.321055 0.159586
H12   H     H_    0.096489 0.093714 0.324863 0.188889
N9    N     N_R   0.581780 0.422390 0.443390 -0.038592
N10   N     N_R   0.581780 0.577610 0.443390 -0.060178
N11   N     N_R   0.081780 0.922390 0.443390 -0.038597
N12   N     N_R   0.081780 0.077610 0.443390 -0.060175
C13   C     C_R   0.411244 0.358443 0.591918 -0.138345
C14   C     C_R   0.389521 0.607163 0.592921 -0.152156
C15   C     C_R   0.911247 0.858441 0.591918 -0.138339
C16   C     C_R   0.889536 0.107196 0.592927 -0.152142
H13   H     H_    0.437338 0.344771 0.677692 0.099524
H14   H     H_    0.411695 0.606028 0.678837 0.102754
H15   H     H_    0.937340 0.844769 0.677692 0.099520
H16   H     H_    0.911708 0.106066 0.678842 0.102747
N13   N     N_R   0.419850 0.423100 0.556610 -0.036119
N14   N     N_R   0.419850 0.576900 0.556610 -0.034444
N15   N     N_R   0.919850 0.923100 0.556610 -0.036122
N16   N     N_R   0.919850 0.076900 0.556610 -0.034441
C17   C     C_R   0.660562 0.355402 0.590240 0.192309
C18   C     C_R   0.689954 0.602271 0.591712 0.176090
C19   C     C_R   0.160586 0.855419 0.590249 0.192527
C20   C     C_R   0.189954 0.102268 0.591705 0.176159
N17   N     N_R   0.627410 0.423100 0.556610 -0.068968
N18   N     N_R   0.627410 0.576900 0.556610 -0.061009
N19   N     N_R   0.127410 0.923100 0.556610 -0.068818
N20   N     N_R   0.127410 0.076900 0.556610 -0.061009
C21   C     C_R   0.336636 0.358712 0.405730 -0.138268
C22   C     C_R   0.314129 0.608557 0.407663 -0.149848
C23   C     C_R   0.836639 0.858710 0.405731 -0.138268
C24   C     C_R   0.814141 0.108590 0.407666 -0.149845
H17   H     H_    0.294863 0.346205 0.319063 0.097988
H18   H     H_    0.265820 0.609854 0.322212 0.086955
H19   H     H_    0.794865 0.846201 0.319064 0.097990
H20   H     H_    0.765829 0.109892 0.322217 0.086953
N21   N     N_R   0.374220 0.422390 0.443390 -0.035427
N22   N     N_R   0.374220 0.577610 0.443390 -0.031440
N23   N     N_R   0.874220 0.922390 0.443390 -0.035432
N24   N     N_R   0.874220 0.077610 0.443390 -0.031438
C25   C     C_R   0.577728 0.397788 0.804225 -0.150923
C26   C     C_R   0.558758 0.639490 0.756792 -0.132879
C27   C     C_R   0.077721 0.897780 0.804218 -0.150917
C28   C     C_R   0.058765 0.139485 0.756807 -0.132842
H21   H     H_    0.547343 0.398818 0.831805 0.108535
H22   H     H_    0.523033 0.654686 0.771263 0.101521
H23   H     H_    0.047336 0.898812 0.831795 0.108531
H24   H     H_    0.023044 0.154679 0.771287 0.101499
N25   N     N_R   0.555000 0.424040 0.705410 -0.041976
N26   N     N_R   0.555000 0.575960 0.705410 -0.043265
N27   N     N_R   0.055000 0.924040 0.705410 -0.041970
N28   N     N_R   0.055000 0.075960 0.705410 -0.043252
C29   C     C_R   0.422855 0.392580 0.196350 0.298303
C30   C     C_R   0.440434 0.643177 0.241294 0.356774
C31   C     C_R   0.922855 0.892578 0.196351 0.298311
C32   C     C_R   0.940433 0.143174 0.241288 0.356776
N29   N     N_R   0.446630 0.421450 0.294590 -0.087583
N30   N     N_R   0.446630 0.578550 0.294590 -0.089247
N31   N     N_R   0.946630 0.921450 0.294590 -0.087591
N32   N     N_R   0.946630 0.078550 0.294590 -0.089251
C33   C     C_R   0.352440 0.371821 0.135052 0.001499
C34   C     C_R   0.382935 0.684837 0.212259 -0.007011
C35   C     C_R   0.852440 0.871819 0.135052 0.001505
C36   C     C_R   0.882933 0.184833 0.212249 -0.007015
C37   C     C_R   0.649085 0.385309 0.870875 0.129450
C38   C     C_R   0.615588 0.682264 0.785505 0.143363
C39   C     C_R   0.149076 0.885289 0.870866 0.129497
C40   C     C_R   0.115600 0.182254 0.785531 0.143473
C41   C     C_R   0.644137 0.318986 0.498194 -0.065499
C42   C     C_R   0.683968 0.618040 0.499975 -0.099644
C43   C     C_R   0.144160 0.819003 0.498200 -0.065619
C44   C     C_R   0.183965 0.118037 0.499966 -0.099612
C45   C     C_R   0.357882 0.317367 0.497628 0.013281
C46   C     C_R   0.323709 0.630247 0.500636 0.018411
C47   C     C_R   0.857887 0.817362 0.497629 0.013280
C48   C     C_R   0.823731 0.130299 0.500643 0.018406
Ni1   Ni    Ni4+2 0.382890 0.500000 0.370170 0.202150
Ni2   Ni    Ni4+2 0.882890 1.000000 0.370170 0.202152
Ni3   Ni    Ni4+2 0.618740 0.500000 0.629830 0.200855
Ni4   Ni    Ni4+2 0.118740 0.000000 0.629830 0.200841
Ni5   Ni    Ni4+2 0.514090 0.500000 0.370170 0.303736
Ni6   Ni    Ni4+2 0.014090 1.000000 0.370170 0.303740
Ni7   Ni    Ni4+2 0.487550 0.500000 0.629830 0.213335
Ni8   Ni    Ni4+2 0.987550 0.000000 0.629830 0.213330
C49   C     C_3   0.357364 0.190005 0.568994 -0.506797
C50   C     C_3   0.310593 0.699564 0.621917 -0.484137
C51   C     C_3   0.857370 0.690003 0.569007 -0.506785
C52   C     C_3   0.810598 0.199590 0.621930 -0.484177
H25   H     H_    0.405114 0.208705 0.653055 0.143435
H26   H     H_    0.321000 0.646872 0.670834 0.149452
H27   H     H_    0.905120 0.708706 0.653065 0.143430
H28   H     H_    0.821018 0.146893 0.670844 0.149460
H29   H     H_    0.376420 0.158274 0.531564 0.180271
H30   H     H_    0.362345 0.728246 0.662971 0.175206
H31   H     H_    0.876424 0.658265 0.531579 0.180266
H32   H     H_    0.862342 0.228295 0.662986 0.175199
C53   C     C_3   0.811244 0.638680 0.580694 0.104171
C54   C     C_3   0.762306 0.251302 0.623448 0.071048
C55   C     C_3   0.311239 0.138675 0.580674 0.104188
C56   C     C_3   0.262319 0.751306 0.623438 0.071087
H33   H     H_    0.331060 0.150529 0.666034 0.085037
H34   H     H_    0.246355 0.716588 0.663787 0.090499
H35   H     H_    0.831063 0.650546 0.666050 0.084991
H36   H     H_    0.746335 0.216560 0.663771 0.090510
H37   H     H_    0.322057 0.318697 0.628434 0.163842
H38   H     H_    0.214300 0.582112 0.492361 0.163516
H39   H     H_    0.822056 0.818700 0.628428 0.163843
H40   H     H_    0.714321 0.082132 0.492343 0.163512
H41   H     H_    0.743267 0.745708 0.617944 0.149460
H42   H     H_    0.641972 0.160500 0.495967 0.163633
H43   H     H_    0.243278 0.245694 0.617961 0.149460
H44   H     H_    0.141977 0.660512 0.496008 0.163646
C57   C     C_3   0.280325 0.300583 0.540465 -0.392209
C58   C     C_3   0.204836 0.636102 0.446585 -0.402228
C59   C     C_3   0.780326 0.800584 0.540459 -0.392221
C60   C     C_3   0.704855 0.136128 0.446577 -0.402181
C61   C     C_3   0.253400 0.230349 0.376124 -0.416135
C62   C     C_3   0.262439 0.752209 0.435536 -0.394115
C63   C     C_3   0.753409 0.730339 0.376131 -0.416134
C64   C     C_3   0.762456 0.252259 0.435571 -0.394149
C65   C     C_3   0.313549 0.260035 0.495751 0.367845
C66   C     C_3   0.275798 0.677938 0.500919 0.366394
C67   C     C_3   0.813554 0.760031 0.495755 0.367842
C68   C     C_3   0.775814 0.177978 0.500931 0.366404
H45   H     H_    0.720019 0.778567 0.319835 0.164180
H46   H     H_    0.741886 0.239016 0.349918 0.150363
H47   H     H_    0.220012 0.278580 0.319835 0.164176
H48   H     H_    0.241859 0.738952 0.349882 0.150345
H49   H     H_    0.275577 0.201270 0.341591 0.161792
H50   H     H_    0.312479 0.784771 0.477179 0.160627
H51   H     H_    0.775589 0.701258 0.341604 0.161791
H52   H     H_    0.812494 0.284829 0.477235 0.160620
C69   C     C_3   0.732292 0.665866 0.497734 0.339526
C70   C     C_3   0.692311 0.267426 0.500881 0.340348
C71   C     C_3   0.232288 0.165866 0.497725 0.339498
C72   C     C_3   0.192317 0.767421 0.500876 0.340363
C73   C     C_3   0.729306 0.746960 0.534908 -0.470579
C74   C     C_3   0.655544 0.188791 0.448269 -0.456514
C75   C     C_3   0.229309 0.246955 0.534918 -0.470596
C76   C     C_3   0.155539 0.688785 0.448289 -0.456492
C77   C     C_3   0.705688 0.675218 0.377087 -0.375841
C78   C     C_3   0.708669 0.301500 0.427216 -0.373116
C79   C     C_3   0.205678 0.175229 0.377077 -0.375827
C80   C     C_3   0.208661 0.801467 0.427181 -0.373081
H53   H     H_    0.700908 0.620329 0.337883 0.174014
H54   H     H_    0.726343 0.361862 0.446615 0.175345
H55   H     H_    0.200890 0.120344 0.337858 0.174017
H56   H     H_    0.226335 0.861830 0.446548 0.175337
H57   H     H_    0.651689 0.699899 0.322244 0.201773
H58   H     H_    0.659887 0.301914 0.338415 0.166040
H59   H     H_    0.151680 0.199915 0.322245 0.201782
H60   H     H_    0.159872 0.801868 0.338385 0.166024
H61   H     H_    0.251730 0.353111 0.490967 0.170432
H62   H     H_    0.178909 0.620472 0.359111 0.162308
H63   H     H_    0.751732 0.853111 0.490957 0.170434
H64   H     H_    0.678937 0.120506 0.359103 0.162298
H65   H     H_    0.674911 0.770411 0.475558 0.201542
H66   H     H_    0.605253 0.196698 0.361891 0.176680
H67   H     H_    0.174914 0.270408 0.475581 0.201534
H68   H     H_    0.105242 0.696689 0.361916 0.176680
H69   H     H_    0.284409 0.778425 0.176660 0.133717
H70   H     H_    0.210182 0.372916 0.988758 0.133707
H71   H     H_    0.784416 0.278434 0.176656 0.133714
H72   H     H_    0.710180 0.872910 0.988760 0.133709
H73   H     H_    0.789649 0.375333 0.013648 0.128581
H74   H     H_    0.711046 0.780304 0.819372 0.127242
H75   H     H_    0.289643 0.875346 0.013672 0.128594
H76   H     H_    0.211043 0.280302 0.819372 0.127244
C81   C     C_2   0.694910 0.357336 0.985830 -0.208428
C82   C     C_2   0.639777 0.754699 0.846771 -0.210310
C83   C     C_2   0.194897 0.857310 0.985819 -0.208425
C84   C     C_2   0.139790 0.254687 0.846800 -0.210338
C85   C     C_2   0.764381 0.350906 0.044043 -0.110300
C86   C     C_2   0.691544 0.795141 0.862494 -0.113818
C87   C     C_2   0.264371 0.850901 0.044049 -0.110286
C88   C     C_2   0.191547 0.295136 0.862504 -0.113808
H77   H     H_    0.373715 0.773487 0.103378 0.169752
H78   H     H_    0.326546 0.314539 0.987884 0.171557
H79   H     H_    0.873713 0.273475 0.103360 0.169750
H80   H     H_    0.826544 0.814542 0.987880 0.171564
C89   C     C_2   0.355628 0.756209 0.148097 -0.119648
C90   C     C_2   0.304371 0.344421 0.019626 -0.113134
C91   C     C_2   0.855627 0.256204 0.148083 -0.119654
C92   C     C_2   0.804369 0.844420 0.019625 -0.113159
C93   C     C_2   0.304092 0.795200 0.134172 -0.141706
C94   C     C_2   0.234432 0.345713 0.958687 -0.139783
C95   C     C_2   0.804097 0.295202 0.134163 -0.141689
C96   C     C_2   0.734431 0.845711 0.958686 -0.139777
H81   H     H_    0.670199 0.331711 0.016732 0.138366
H82   H     H_    0.621078 0.769695 0.891150 0.135520
H83   H     H_    0.170182 0.831670 0.016708 0.138358
H84   H     H_    0.121096 0.269680 0.891188 0.135514
N33   N     N_2   0.822791 0.556976 0.578501 -0.101716
H85   H     H_    0.873328 0.540228 0.644935 0.178048
C97   C     C_3   0.795799 0.519880 0.475352 -0.926311
H86   H     H_    0.821778 0.463543 0.493451 0.242654
H87   H     H_    0.806685 0.554486 0.428293 0.254134
H88   H     H_    0.738599 0.508323 0.424872 0.255211
N34   N     N_2   0.801352 0.317533 0.696272 -0.122839
H89   H     H_    0.839464 0.302415 0.778732 0.176057
C98   C     C_3   0.822994 0.380406 0.663643 -0.933506
H90   H     H_    0.862790 0.416084 0.737629 0.247599
H91   H     H_    0.777493 0.418073 0.604658 0.272181
H92   H     H_    0.847296 0.359626 0.628551 0.254621
N35   N     N_2   0.322782 0.056973 0.578458 -0.101724
H93   H     H_    0.373318 0.040221 0.644887 0.178082
C99   C     C_3   0.295789 0.019892 0.475298 -0.926377
H94   H     H_    0.321769 0.963558 0.493382 0.242690
H95   H     H_    0.306671 0.054511 0.428243 0.254151
H96   H     H_    0.238589 0.008331 0.424820 0.255219
N36   N     N_2   0.301380 0.817545 0.696229 -0.122833
H97   H     H_    0.339479 0.802440 0.778698 0.176068
C100  C     C_3   0.323063 0.880363 0.663585 -0.933771
H98   H     H_    0.362874 0.916041 0.737560 0.247661
H99   H     H_    0.277583 0.918046 0.604580 0.272164
H100  H     H_    0.347359 0.859527 0.628510 0.254663
N37   N     N_2   0.676219 0.313666 0.681673 -0.115784
H101  H     H_    0.728213 0.304906 0.749742 0.155278
C101  C     C_3   0.627611 0.253169 0.657148 -0.904767
H102  H     H_    0.635252 0.239295 0.733438 0.255067
H103  H     H_    0.637497 0.200711 0.629732 0.231602
H104  H     H_    0.572194 0.271799 0.591821 0.260129
N38   N     N_2   0.755385 0.595468 0.701690 -0.120797
H105  H     H_    0.776449 0.645870 0.745953 0.140106
C102  C     C_3   0.768717 0.528114 0.766191 -0.933970
H106  H     H_    0.741898 0.532208 0.801335 0.247671
H107  H     H_    0.826210 0.523596 0.836321 0.247122
H108  H     H_    0.751771 0.475892 0.715021 0.265279
N39   N     N_2   0.176267 0.813684 0.681699 -0.115796
H109  H     H_    0.228266 0.804943 0.749765 0.155244
C103  C     C_3   0.127672 0.753181 0.657208 -0.904820
H110  H     H_    0.135307 0.739339 0.733500 0.255090
H111  H     H_    0.137579 0.700710 0.629846 0.231600
H112  H     H_    0.072250 0.771787 0.591854 0.260124
N40   N     N_2   0.255389 0.095444 0.701670 -0.120761
H113  H     H_    0.276425 0.145839 0.745963 0.140136
C104  C     C_3   0.268679 0.028075 0.766120 -0.934657
H114  H     H_    0.241444 0.031927 0.800564 0.247894
H115  H     H_    0.326093 0.023809 0.836725 0.247195
H116  H     H_    0.252150 0.975848 0.715119 0.265476
N41   N     N_R   0.456481 0.407718 0.149983 0.225533
O1    O     O_R   0.505376 0.460009 0.193931 -0.395714
O2    O     O_R   0.440880 0.367752 0.066911 -0.437995
N42   N     N_R   0.479321 0.660402 0.205020 0.205978
O3    O     O_R   0.476745 0.613266 0.138505 -0.371734
O4    O     O_R   0.504684 0.729053 0.218883 -0.461449
N43   N     N_R   0.956481 0.907712 0.149984 0.225531
O5    O     O_R   0.005373 0.960008 0.193924 -0.395711
O6    O     O_R   0.940887 0.867737 0.066923 -0.438001
N44   N     N_R   0.979319 0.160396 0.205013 0.205974
O7    O     O_R   0.976739 0.113261 0.138494 -0.371735
O8    O     O_R   0.004684 0.229047 0.218877 -0.461459

loop_
_geom_bond_atom_site_label_1
_geom_bond_atom_site_label_2
_geom_bond_distance
_ccdc_geom_bond_type
C22   H18   1.081115 S    
C91   C95   1.338157 D    
C16   C48   1.374002 A    
C60   H64   1.112611 S    
C83   H83   1.087286 S    
H44   C76   1.109779 S    
C44   C71   1.471589 S    
C76   H68   1.113260 S    
C17   N37   1.420049 S    
C62   C80   1.522692 S    
C26   N26   1.340355 A    
C6    H6    1.071666 S    
C25   N25   1.343400 A    
N43   O5    1.300062 A    
C3    N3    1.336575 A    
C58   C66   1.551797 S    
C4    H4    1.077517 S    
C103  H112  1.111776 S    
C63   H51   1.113202 S    
C27   N27   1.343396 A    
C97   H88   1.108888 S    
C57   C65   1.555593 S    
N40   H113  1.030086 S    
N31   Ni6   1.873660 S    
C2    H2    1.077516 S    
C56   N36   1.466905 S    
C7    H7    1.078324 S    
C53   N33   1.460925 S    
N2    Ni1   1.880389 S    
C11   C43   1.372899 A    
C18   N18   1.338806 A    
N24   Ni2   1.879179 S    
N18   Ni3   1.860382 S    
C78   H58   1.112808 S    
C1    H1    1.079373 S    
C3    C35   1.387393 A    
C8    H8    1.071672 S    
N43   O6    1.299979 A    
N39   H109  1.027953 S    
C98   H92   1.106771 S    
C25   C37   1.375666 A    
C7    C39   1.380400 A    
C102  H106  1.104024 S    
C31   N43   1.435529 S    
N38   C102  1.441921 S    
H75   C87   1.084282 S    
N7    Ni4   1.847871 S    
N1    Ni1   1.890006 S    
N6    Ni3   1.857332 S    
H74   C86   1.085638 S    
C88   C94   1.456963 S    
C56   C72   1.581736 S    
H73   C85   1.084286 S    
C53   H35   1.110132 S    
C9    H9    1.075332 S    
C30   N42   1.426580 S    
C100  H98   1.110821 S    
C64   H52   1.112370 S    
N21   Ni1   1.869296 S    
C21   H17   1.076476 S    
N25   Ni7   1.851172 S    
C39   C83   1.465966 S    
N33   H85   1.031961 S    
C59   C73   1.522589 S    
C61   C65   1.554097 S    
C98   H91   1.106332 S    
C23   N23   1.316679 A    
C70   C74   1.555307 S    
N40   C104  1.441921 S    
C8    C40   1.392015 A    
N8    N28   1.415127 A    
C85   C95   1.458158 S    
C63   H45   1.112407 S    
N36   H97   1.032434 S    
C61   H47   1.112407 S    
N3    N31   1.415127 A    
N42   O3    1.299691 A    
C32   N44   1.426581 S    
C87   C93   1.458154 S    
C82   C86   1.334853 D    
C64   C78   1.522705 S    
C99   H94   1.110326 S    
C25   H21   1.081435 S    
N26   Ni7   1.840910 S    
N8    Ni4   1.857332 S    
C54   H36   1.111937 S    
C4    N4    1.335079 A    
C71   C79   1.561209 S    
C104  H114  1.103520 S    
C19   N19   1.341588 A    
C28   H24   1.078985 S    
C14   C46   1.374009 A    
H71   C95   1.085594 S    
C80   H60   1.112809 S    
C7    N7    1.342538 A    
C19   N39   1.420037 S    
C60   C68   1.551809 S    
C75   H67   1.114533 S    
C29   C33   1.391031 A    
C8    N8    1.338702 A    
N33   C97   1.447901 S    
C62   C66   1.548718 S    
N41   O1    1.300061 A    
C51   C53   1.545666 S    
H79   C91   1.086715 S    
C99   H95   1.108879 S    
C79   H59   1.113895 S    
C82   H82   1.087553 S    
C57   C75   1.522591 S    
C64   H46   1.113137 S    
N23   Ni2   1.869296 S    
C83   C87   1.337419 D    
C81   H81   1.087287 S    
C77   H57   1.113896 S    
C22   N22   1.325254 A    
C69   C77   1.561220 S    
C101  H103  1.106385 S    
N9    N17   1.361257 A    
C1    C33   1.387396 A    
C64   C68   1.548690 S    
C27   H23   1.081435 S    
C18   C42   1.374367 A    
C49   C55   1.545663 S    
N4    N32   1.415127 A    
C11   H11   1.075331 S    
C92   C96   1.336535 D    
C12   H12   1.076482 S    
N30   Ni5   1.884086 S    
C51   H31   1.111218 S    
N6    N26   1.415127 A    
C97   H86   1.110322 S    
N38   H105  1.030065 S    
N34   C98   1.445402 S    
C102  H107  1.110042 S    
N37   H101  1.027951 S    
C15   H15   1.080193 S    
C3    H3    1.079373 S    
C11   N11   1.327035 A    
C90   C94   1.336529 D    
N12   Ni6   1.862568 S    
N11   N19   1.361257 A    
C20   C44   1.374354 A    
C73   H65   1.114535 S    
N4    Ni2   1.880389 S    
C28   N28   1.340357 A    
C5    C37   1.380408 A    
C100  H99   1.106304 S    
C54   N34   1.466912 S    
C59   H63   1.114171 S    
C37   C81   1.465964 S    
C55   H33   1.110138 S    
C26   H22   1.078993 S    
C98   H90   1.110817 S    
N12   N20   1.361264 A    
C49   C65   1.547983 S    
C84   C88   1.334849 D    
H38   C58   1.112938 S    
C19   C43   1.379333 A    
C50   C56   1.514899 S    
H78   C90   1.085027 S    
C24   N24   1.325268 A    
N34   H89   1.032434 S    
C70   C78   1.562084 S    
H77   C89   1.086714 S    
C71   C75   1.552872 S    
H80   C92   1.085025 S    
N14   Ni7   1.864377 S    
N28   Ni8   1.840910 S    
N3    Ni2   1.890006 S    
C29   N41   1.435533 S    
C60   C74   1.546580 S    
C55   N35   1.460922 S    
C1    N1    1.336573 A    
N36   C100  1.445408 S    
N5    Ni3   1.847871 S    
N16   N24   1.361264 A    
N39   C103  1.449009 S    
C81   C85   1.337412 D    
N17   Ni3   1.870225 S    
N35   C99   1.447904 S    
C78   H54   1.103786 S    
C50   H26   1.115006 S    
N11   Ni6   1.873239 S    
H69   C93   1.085592 S    
C46   C66   1.455707 S    
C49   H25   1.113010 S    
N27   Ni8   1.851172 S    
C72   C76   1.555326 S    
N42   O4    1.300745 A    
N16   Ni8   1.864377 S    
C10   C42   1.369429 A    
C10   H10   1.076481 S    
C51   H27   1.113010 S    
H70   C94   1.084709 S    
N13   N21   1.361257 A    
H41   C73   1.112074 S    
C84   H84   1.087551 S    
C99   H96   1.108890 S    
N44   O8    1.300744 A    
C23   H19   1.076475 S    
N1    N29   1.415127 A    
C63   C77   1.524661 S    
H76   C88   1.085642 S    
C50   C66   1.544950 S    
N22   Ni1   1.879179 S    
N5    N25   1.415127 A    
C103  H110  1.110034 S    
C2    N2    1.335070 A    
C52   C68   1.544963 S    
C42   C69   1.471592 S    
C31   C35   1.391038 A    
C20   N20   1.338829 A    
H43   C75   1.112075 S    
C15   N15   1.329000 A    
N35   H93   1.031961 S    
C101  H104  1.111776 S    
C9    C41   1.372887 A    
C40   C84   1.462842 S    
C20   N40   1.423432 S    
C16   N16   1.312424 A    
N2    N30   1.415127 A    
C55   C71   1.574861 S    
C59   C67   1.555599 S    
C52   H32   1.113517 S    
C10   N10   1.325430 A    
C74   H66   1.113262 S    
H37   C57   1.113245 S    
C58   H62   1.112611 S    
C53   C69   1.574863 S    
C48   C68   1.455721 S    
C32   N32   1.350036 A    
C21   N21   1.316669 A    
C35   C92   1.467793 S    
C103  H111  1.106378 S    
C56   H34   1.111922 S    
C31   N31   1.345786 A    
C38   C82   1.462852 S    
C34   C89   1.465623 S    
C101  H102  1.110034 S    
C97   H87   1.108881 S    
N14   N22   1.361264 A    
C15   C47   1.390135 A    
C33   C90   1.467784 S    
C62   H50   1.112363 S    
C47   C67   1.465247 S    
C26   C38   1.382627 A    
C49   H29   1.111217 S    
C21   C45   1.377017 A    
C61   H49   1.113202 S    
N19   Ni4   1.870225 S    
N29   Ni5   1.873660 S    
C30   C34   1.393148 A    
C61   C79   1.524657 S    
C5    H5    1.078339 S    
C89   C93   1.338162 D    
C24   H20   1.081113 S    
C100  H100  1.106754 S    
C23   C47   1.377024 A    
C6    N6    1.338702 A    
C102  H108  1.103964 S    
N41   O2    1.299980 A    
N32   Ni6   1.884086 S    
H40   C60   1.112939 S    
C104  H115  1.109747 S    
C30   N30   1.350041 A    
N13   Ni7   1.853753 S    
C5    N5    1.342506 A    
C13   C45   1.390137 A    
N10   N18   1.361264 A    
C12   C44   1.369406 A    
C79   H55   1.104185 S    
C22   C46   1.372386 A    
C17   N17   1.341620 A    
C63   C67   1.554093 S    
C50   H30   1.113511 S    
C45   C65   1.465240 S    
H39   C59   1.113246 S    
N37   C101  1.449002 S    
C6    C38   1.392017 A    
C58   C76   1.546603 S    
N9    Ni5   1.873239 S    
C57   H61   1.114170 S    
C13   H13   1.080194 S    
C52   H28   1.115000 S    
C104  H116  1.103748 S    
C29   N29   1.345783 A    
C54   C70   1.581751 S    
C14   N14   1.312413 A    
C72   C80   1.562066 S    
H42   C74   1.109788 S    
C17   C41   1.379311 A    
C43   C72   1.477478 S    
C28   C40   1.382623 A    
C14   H14   1.080159 S    
C80   H56   1.103778 S    
C16   H16   1.080154 S    
C27   C39   1.375642 A    
C12   N12   1.325426 A    
C2    C34   1.386903 A    
C41   C70   1.477485 S    
C77   H53   1.104183 S    
C51   C67   1.547994 S    
N10   Ni5   1.862568 S    
N20   Ni4   1.860382 S    
N44   O7    1.299689 A    
C36   C91   1.465616 S    
C52   C54   1.514938 S    
C32   C36   1.393133 A    
C62   H48   1.113135 S    
C86   C96   1.456974 S    
C24   C48   1.372420 A    
C13   N13   1.328997 A    
H72   C96   1.084710 S    
N15   N23   1.361257 A    
C69   C73   1.552865 S    
C18   N38   1.423459 S    
N15   Ni8   1.853753 S    
C9    N9    1.327036 A    
C4    C36   1.386907 A    
N7    N27   1.415127 A    
