data_mof_unit_35571.cif
_audit_creation_date              2012-12-10T17:48:51-0500
_audit_creation_method            fapswitch 2.2
_symmetry_space_group_name_H-M    P1
_symmetry_Int_Tables_number       1
_space_group_crystal_system       triclinic
_cell_length_a                    10.735547
_cell_length_b                    14.693293
_cell_length_c                    14.683679
_cell_angle_alpha                 64.467645
_cell_angle_beta                  103.651196
_cell_angle_gamma                 103.207705
_cell_volume                      2009.64020358

loop_
_atom_site_label
_atom_site_type_symbol
_atom_type_description
_atom_site_fract_x
_atom_site_fract_y
_atom_site_fract_z
_atom_type_partial_charge
C1    C     C_R   0.477035 0.120135 0.311609 0.813971
C2    C     C_3   0.877697 0.000645 0.497441 0.144636
C3    C     C_3   0.918525 0.894793 0.570761 -0.355481
C4    C     C_3   0.965636 0.079384 0.538916 -0.429388
C5    C     C_R   0.453586 0.187279 0.202294 -0.117473
C6    C     C_R   0.518871 0.810982 0.796510 -0.125771
C7    C     C_R   0.391830 0.210681 0.023452 0.392908
C8    C     C_R   0.417344 0.147179 0.127789 -0.265613
C9    C     C_R   0.462328 0.291629 0.172872 -0.252951
C10   C     C_R   0.425744 0.356773 0.070907 -0.007756
C11   C     C_R   0.396688 0.317804 0.993009 0.064077
C12   C     C_R   0.260262 0.999860 0.500730 0.768084
C13   C     C_R   0.427094 0.461892 0.044988 -0.016351
C14   C     C_R   0.439054 0.530590 0.943909 -0.008827
C15   C     C_R   0.401162 0.492880 0.866746 -0.208119
C16   C     C_R   0.374510 0.387859 0.888529 0.114238
C17   C     C_R   0.415558 0.501355 0.115553 0.355719
C18   C     C_R   0.438747 0.606107 0.089494 -0.130527
C19   C     C_R   0.468893 0.674608 0.993192 -0.009938
C20   C     C_R   0.476131 0.636589 0.921000 -0.088135
C21   C     C_R   0.486185 0.780639 0.966546 0.437235
C22   C     C_R   0.505433 0.847902 0.866562 -0.382358
C23   C     C_R   0.521321 0.879691 0.688291 0.855010
C24   C     C_R   0.519181 0.706421 0.827711 0.351708
C25   C     C_R   0.728479 0.291004 0.658656 -0.311368
C26   C     C_R   0.690014 0.206815 0.633072 0.078436
C27   C     C_R   0.514275 0.282937 0.512532 0.019794
C28   C     C_R   0.547607 0.370881 0.535660 0.007586
C29   C     C_R   0.658257 0.373496 0.609792 0.167633
C30   C     C_R   0.476988 0.456048 0.487353 -0.014326
C31   C     C_R   0.520550 0.543663 0.511847 0.103278
C32   C     C_R   0.632703 0.542337 0.585618 -0.199813
C33   C     C_R   0.698989 0.458660 0.633941 -0.197308
C34   C     C_R   0.739902 0.000564 0.498679 0.747411
C35   C     C_R   0.365044 0.456465 0.414715 -0.223050
C36   C     C_R   0.300200 0.540550 0.362650 0.475633
C37   C     C_R   0.337500 0.626139 0.388873 -0.043861
C38   C     C_R   0.449416 0.628806 0.463047 -0.142232
C39   C     C_R   0.261920 0.706594 0.346335 0.211609
C40   C     C_R   0.308369 0.794504 0.367639 0.510574
C41   C     C_R   0.483609 0.716052 0.487172 -0.067014
C42   C     C_3   0.048766 0.028206 0.389343 -0.367050
C43   C     C_3   0.904867 0.033148 0.385974 -0.000170
C44   C     C_3   0.061383 0.894108 0.569678 -0.384511
C45   C     C_3   0.108713 0.080447 0.538707 -0.381229
C46   C     C_3   0.122619 0.000796 0.499820 0.114549
Cu1   Cu    Cu3+1 0.465900 0.918260 0.475680 0.983343
Cu2   Cu    Cu3+1 0.534100 0.081740 0.524320 0.931548
H1    H     H_    0.058001 0.971950 0.360388 0.206815
H2    H     H_    0.951071 0.060115 0.618183 0.179093
H3    H     H_    0.115797 0.871846 0.648879 0.156128
H4    H     H_    0.905994 0.877801 0.649924 0.156001
H5    H     H_    0.508496 0.928998 0.843229 0.172234
H6    H     H_    0.428149 0.633638 0.144490 0.202563
H7    H     H_    0.411152 0.065837 0.150635 0.164000
H8    H     H_    0.500240 0.322239 0.230585 0.211095
H9    H     H_    0.094353 0.103470 0.337834 0.131140
H10   H     H_    0.386842 0.547009 0.788647 0.209502
H11   H     H_    0.784133 0.461140 0.690315 0.141520
H12   H     H_    0.564807 0.723479 0.543727 0.173238
H13   H     H_    0.813102 0.291892 0.715850 0.141055
H14   H     H_    0.744322 0.143211 0.670428 0.126135
H15   H     H_    0.433464 0.274618 0.456044 0.131791
H16   H     H_    0.893370 0.115408 0.345243 0.110204
H17   H     H_    0.672698 0.605003 0.608209 0.140354
H18   H     H_    0.325907 0.392727 0.393724 0.180711
H19   H     H_    0.067040 0.835689 0.542135 0.181436
H20   H     H_    0.856606 0.832168 0.551573 0.177144
H21   H     H_    0.163069 0.063179 0.617522 0.182075
H22   H     H_    0.150163 0.158224 0.488791 0.177712
H23   H     H_    0.940168 0.157409 0.491169 0.184610
N1    N     N_R   0.585360 0.204570 0.560800 -0.181199
N2    N     N_R   0.414550 0.795430 0.439160 -0.200909
O1    O     O_R   0.455060 0.022100 0.338110 -0.537343
O2    O     O_R   0.512640 0.160150 0.379180 -0.586235
O3    O     O_R   0.288900 0.930980 0.479450 -0.536106
O4    O     O_R   0.346480 0.069030 0.520520 -0.600752
O5    O     O_R   0.487360 0.839850 0.620820 -0.533338
O6    O     O_R   0.544940 0.977900 0.661890 -0.599327
O7    O     O_R   0.653520 0.930970 0.479480 -0.588823
O8    O     O_R   0.711100 0.069020 0.520550 -0.595347
C47   C     C_3   0.326877 0.351903 0.800946 -0.314186
C48   C     C_3   0.289134 0.433025 0.694404 -0.894157
H24   H     H_    0.212571 0.472383 0.694921 0.256396
H25   H     H_    0.375015 0.489094 0.667527 0.270034
H26   H     H_    0.250705 0.396081 0.639455 0.255848
H27   H     H_    0.403783 0.315979 0.795399 0.250175
H28   H     H_    0.238606 0.294725 0.818424 0.240714
O9    O     O_3   0.570396 0.676146 0.768944 -0.756102
H29   H     H_    0.611853 0.614818 0.814921 0.325348
O10   O     O_3   0.364544 0.168400 0.951934 -0.784618
H30   H     H_    0.366208 0.093832 0.986522 0.325353
O11   O     O_3   0.366673 0.441924 0.205256 -0.751328
H31   H     H_    0.303035 0.385365 0.194742 0.329084
O12   O     O_3   0.477269 0.816682 0.037267 -0.750836
H32   H     H_    0.491445 0.892276 0.006191 0.322360
O13   O     O_3   0.248179 0.880437 0.318050 -0.723243
H33   H     H_    0.204374 0.883648 0.249516 0.302419
O14   O     O_3   0.201689 0.536387 0.284515 -0.664616
H34   H     H_    0.216219 0.601054 0.224230 0.362980
O15   O     O_3   0.140447 0.695308 0.290618 -0.716731
H35   H     H_    0.084546 0.736451 0.297428 0.329697
C49   C     C_3   0.810580 0.983956 0.315752 -0.386338
C50   C     C_3   0.799581 0.868144 0.352058 -0.761852
H36   H     H_    0.894772 0.840831 0.385456 0.240820
H37   H     H_    0.731730 0.827904 0.408131 0.250448
H38   H     H_    0.758805 0.846826 0.285869 0.241697
H39   H     H_    0.712312 0.004598 0.301060 0.207475
H40   H     H_    0.843825 0.019611 0.240040 0.197622

loop_
_geom_bond_atom_site_label_1
_geom_bond_atom_site_label_2
_ccdc_geom_bond_type
O11   H31   S    
O12   H32   S    
C26   N1    A    
C19   C20   A    
C24   O9    S    
C50   H37   S    
O13   H33   S    
C7    C8    A    
C45   C46   S    
Cu2   O8    S    
C7    C11   A    
O15   H35   S    
C30   C35   A    
C1    C5    S    
C1    O1    A    
Cu2   O6    S    
C36   C37   A    
C19   C21   A    
C3    H20   S    
Cu1   O3    S    
C30   C31   A    
C15   C16   A    
C6    C22   A    
C29   C33   A    
C40   N2    A    
C42   H9    S    
C18   C19   A    
C42   C46   S    
C20   C24   A    
C41   H12   S    
C34   O7    A    
O14   H34   S    
C49   H39   S    
C34   O8    A    
C9    C10   A    
O10   H30   S    
C2    C34   S    
C7    O10   S    
C33   H11   S    
C21   C22   A    
Cu2   O2    S    
Cu1   O7    S    
Cu2   N1    S    
C8    H7    S    
C50   H36   S    
C44   C46   S    
C43   H16   S    
C39   O15   S    
C22   H5    S    
C4    C45   S    
C25   C29   A    
C3    C44   S    
C45   H21   S    
C1    O2    A    
Cu1   Cu2   S    
C14   C20   A    
Cu1   N2    S    
C38   C41   A    
C12   C46   S    
C40   O13   S    
C21   O12   S    
C35   H18   S    
C25   C26   A    
C4    H2    S    
C35   C36   A    
Cu2   O4    S    
C2    C4    S    
C5    C9    A    
C37   C38   A    
C11   C16   A    
C48   H24   S    
C2    C43   S    
C6    C24   A    
C12   O4    A    
C16   C47   S    
C17   C18   A    
C9    H8    S    
C25   H13   S    
C27   H15   S    
C44   H3    S    
C48   H25   S    
C12   O3    A    
C15   H10   S    
C17   O11   S    
C42   C43   S    
C39   C40   A    
C28   C29   A    
C45   H22   S    
C31   C32   A    
Cu1   O1    S    
C10   C13   A    
C5    C8    A    
C3    H4    S    
C31   C38   A    
C13   C17   A    
C49   H40   S    
C32   C33   A    
C28   C30   A    
C2    C3    S    
C26   H14   S    
C37   C39   A    
C47   H28   S    
C6    C23   S    
C36   O14   S    
C4    H23   S    
C23   O5    A    
C43   C49   S    
C10   C11   A    
C18   H6    S    
C42   H1    S    
C41   N2    A    
C48   H26   S    
C47   C48   S    
C49   C50   S    
C14   C15   A    
C44   H19   S    
Cu1   O5    S    
C23   O6    A    
O9    H29   S    
C13   C14   A    
C50   H38   S    
C27   N1    A    
C47   H27   S    
C32   H17   S    
C27   C28   A    
