data_mof_unit_41335.cif
_audit_creation_date              2012-12-10T20:40:03-0500
_audit_creation_method            fapswitch 2.2
_symmetry_space_group_name_H-M    P1
_symmetry_Int_Tables_number       1
_space_group_crystal_system       triclinic
_cell_length_a                    23.436357
_cell_length_b                    10.756788
_cell_length_c                    9.898462
_cell_angle_alpha                 88.126634
_cell_angle_beta                  90.387403
_cell_angle_gamma                 91.003788
_cell_volume                      2493.63721125

loop_
_atom_site_label
_atom_site_type_symbol
_atom_type_description
_atom_site_fract_x
_atom_site_fract_y
_atom_site_fract_z
_atom_type_partial_charge
C1    C     C_R   0.502331 0.260079 0.501354 0.882189
C2    C     C_R   0.118999 0.584761 0.410759 0.617387
C3    C     C_R   0.235244 0.535622 0.606136 0.343004
C4    C     C_R   0.389277 0.502128 0.499753 0.958766
C5    C     C_R   0.295120 0.538658 0.612705 0.138826
C6    C     C_R   0.326698 0.505107 0.498302 -0.202806
C7    C     C_R   0.298020 0.472021 0.379735 -0.249621
C8    C     C_R   0.239035 0.465941 0.374730 0.418244
C9    C     C_R   0.207571 0.497837 0.487676 0.083768
C10   C     C_R   0.757552 0.398502 0.430017 -0.076056
C11   C     C_R   0.698526 0.402548 0.434522 -0.259649
C12   C     C_R   0.968055 0.299750 0.621376 -0.220853
C13   C     C_R   0.671961 0.500003 0.498448 -0.032009
C14   C     C_R   0.704616 0.596369 0.555554 0.192565
C15   C     C_R   0.764006 0.590110 0.552725 -0.167959
C16   C     C_R   0.500030 0.739458 0.497853 0.896497
C17   C     C_R   0.790264 0.491931 0.489493 0.277798
C18   C     C_R   0.473163 0.058682 0.597211 0.166997
C19   C     C_R   0.504432 0.127191 0.500459 -0.182143
C20   C     C_R   0.529029 0.067171 0.389417 0.208786
C21   C     C_R   0.523871 0.937781 0.385204 -0.224996
C22   C     C_R   0.498049 0.870879 0.492032 -0.149733
C23   C     C_R   0.027542 0.296847 0.619499 0.219242
C24   C     C_R   0.471274 0.931628 0.594147 0.105725
C25   C     C_3   0.478550 0.913997 0.742912 -0.436623
C26   C     C_3   0.479786 0.053427 0.747690 -0.489576
C27   C     C_R   0.457746 0.439196 0.072911 0.033245
C28   C     C_R   0.610273 0.500795 0.500046 0.887725
C29   C     C_R   0.537326 0.573144 0.070156 0.354556
C30   C     C_R   0.537671 0.572236 0.926401 0.342870
C31   C     C_R   0.457178 0.441449 0.930377 0.051420
C32   C     C_3   0.442552 0.307539 0.926579 0.164078
C33   C     C_3   0.444997 0.302918 0.080570 0.177272
C34   C     C_R   0.058712 0.392475 0.548633 -0.060197
C35   C     C_R   0.879357 0.578640 0.408473 0.527443
C36   C     C_R   0.878987 0.396743 0.553395 0.523740
C37   C     C_R   0.938573 0.393596 0.551076 -0.035113
C38   C     C_R   0.968889 0.487050 0.477374 -0.013647
C39   C     C_R   0.938955 0.580185 0.404926 -0.038122
C40   C     C_3   0.658211 0.792806 0.514439 -0.688376
C41   C     C_3   0.579380 0.080411 0.167107 -0.756508
C42   C     C_3   0.063317 0.089232 0.610803 -0.669895
C43   C     C_3   0.064129 0.888737 0.335355 -0.667028
C44   C     C_3   0.338571 0.706710 0.734553 -0.655843
C45   C     C_R   0.029002 0.487947 0.477001 -0.097699
C46   C     C_R   0.059110 0.584895 0.405921 -0.055909
C47   C     C_R   0.028337 0.677990 0.332850 0.218236
C48   C     C_R   0.968814 0.673353 0.331829 -0.221931
C49   C     C_R   0.118624 0.397868 0.548679 0.625671
Cl1   Cl    Cl    0.585820 0.670610 0.154692 -0.566123
Cl2   Cl    Cl    0.587896 0.665688 0.838386 -0.554989
Cl3   Cl    Cl    0.373781 0.285701 0.849939 -0.480952
Cl4   Cl    Cl    0.379584 0.265664 0.165181 -0.476223
Cl5   Cl    Cl    0.194356 0.583348 0.744030 -0.536068
Cl6   Cl    Cl    0.205313 0.416126 0.225982 -0.467248
H1    H     H_    0.945013 0.226787 0.677296 0.192193
H2    H     H_    0.481474 0.248727 0.121481 0.119046
H3    H     H_    0.946075 0.745272 0.275572 0.193054
H4    H     H_    0.321392 0.448922 0.290627 0.257620
H5    H     H_    0.777976 0.323196 0.380063 0.155039
H6    H     H_    0.702047 0.740394 0.688405 0.258782
H7    H     H_    0.694804 0.835802 0.458183 0.241202
H8    H     H_    0.635543 0.866680 0.567326 0.239792
H9    H     H_    0.627927 0.750486 0.441846 0.254077
H10   H     H_    0.591132 0.199126 0.329565 0.218242
H11   H     H_    0.612969 0.010915 0.189216 0.262854
H12   H     H_    0.673507 0.329410 0.388658 0.143901
H13   H     H_    0.597177 0.153376 0.096660 0.234773
H14   H     H_    0.542138 0.036022 0.116594 0.257859
H15   H     H_    0.036983 0.174683 0.782929 0.234556
H16   H     H_    0.021355 0.046477 0.584381 0.205071
H17   H     H_    0.088579 0.019734 0.669797 0.259068
H18   H     H_    0.086915 0.114812 0.516643 0.262295
H19   H     H_    0.038567 0.795448 0.165633 0.234801
H20   H     H_    0.022063 0.929468 0.357344 0.204262
H21   H     H_    0.089833 0.958050 0.275272 0.260277
H22   H     H_    0.087104 0.868012 0.431839 0.262435
H23   H     H_    0.789946 0.662839 0.596793 0.148192
H24   H     H_    0.304187 0.544197 0.821388 0.311511
H25   H     H_    0.362192 0.725950 0.829361 0.232100
H26   H     H_    0.299584 0.764062 0.730309 0.267318
H27   H     H_    0.366426 0.733039 0.647464 0.220182
H28   H     H_    0.543874 0.887875 0.305756 0.215859
H29   H     H_    0.440489 0.870273 0.792193 0.211670
H30   H     H_    0.520063 0.872826 0.772449 0.263312
H31   H     H_    0.441164 0.085980 0.798351 0.258628
H32   H     H_    0.521488 0.091885 0.782831 0.201747
H33   H     H_    0.477891 0.257723 0.880793 0.067603
N1    N     N_R   0.850906 0.488693 0.483246 -0.352036
N2    N     N_R   0.146738 0.493076 0.481737 -0.332014
N3    N     N_R   0.499610 0.499140 0.142800 -0.179453
N4    N     N_R   0.499610 0.499180 0.857150 -0.184329
N5    N     N_2   0.678301 0.700594 0.612482 -0.260545
N6    N     N_2   0.561869 0.137042 0.290560 -0.296400
N7    N     N_2   0.055240 0.197662 0.690678 -0.238279
N8    N     N_2   0.056451 0.776925 0.259530 -0.238867
N9    N     N_2   0.323353 0.575944 0.733067 -0.240556
O1    O     O_R   0.500010 0.316790 0.614690 -0.619576
O2    O     O_R   0.583850 0.500060 0.614640 -0.561473
O3    O     O_R   0.583840 0.500020 0.385300 -0.585279
O4    O     O_2   0.849908 0.666128 0.337902 -0.547833
O5    O     O_2   0.849250 0.309671 0.626255 -0.554538
O6    O     O_2   0.149150 0.310185 0.615915 -0.472195
O7    O     O_2   0.149876 0.675018 0.345819 -0.485978
O8    O     O_R   0.500000 0.316760 0.385350 -0.598195
O9    O     O_R   0.416160 0.499980 0.614700 -0.560344
O10   O     O_R   0.416150 0.499940 0.385360 -0.601335
O11   O     O_R   0.500000 0.683240 0.614650 -0.587519
O12   O     O_R   0.499990 0.683210 0.385310 -0.590383
Zn1   Zn    Zn3+2 0.500000 0.500020 0.653130 1.027545
Zn2   Zn    Zn3+2 0.500000 0.499980 0.346870 1.028103

loop_
_geom_bond_atom_site_label_1
_geom_bond_atom_site_label_2
_ccdc_geom_bond_type
C36   N1    A    
C30   Cl2   S    
O1    Zn1   S    
C6    C7    A    
C10   H5    S    
C19   C20   A    
C18   C26   S    
C49   N2    A    
C7    C8    A    
C41   N6    S    
C45   C46   A    
C27   C33   S    
C12   C23   A    
C37   C38   A    
C40   H8    S    
C18   C24   A    
C36   C37   A    
C44   H27   S    
O12   Zn2   S    
C38   C39   A    
C3    Cl5   S    
H6    N5    S    
C15   H23   S    
C10   C17   A    
C32   H33   S    
C40   H7    S    
C36   O5    S    
C18   C19   A    
N3    Zn2   S    
C12   C37   A    
C2    N2    A    
C32   Cl3   S    
C38   C45   A    
C21   H28   S    
C23   N7    S    
C8    C9    A    
C34   C49   A    
C25   H29   S    
C16   C22   S    
C47   N8    S    
C13   C28   S    
C27   N3    A    
C40   N5    S    
C14   N5    S    
C28   O3    A    
O8    Zn2   S    
C21   C22   A    
C43   H20   S    
C8    Cl6   S    
C7    H4    S    
C11   H12   S    
C16   O12   A    
C41   H13   S    
C29   Cl1   S    
C33   Cl4   S    
C4    O10   A    
C1    C19   S    
C27   C31   A    
C42   N7    S    
H19   N8    S    
C44   H25   S    
C17   N1    S    
C24   C25   S    
C4    C6    S    
C44   H26   S    
C26   H32   S    
C35   O4    S    
C25   C26   S    
O2    Zn1   S    
C4    O9    A    
C2    C46   A    
C9    N2    S    
C35   C39   A    
C29   C30   A    
C3    C9    A    
C44   N9    S    
C47   C48   A    
C2    O7    S    
C26   H31   S    
C23   C34   A    
C25   H30   S    
C43   N8    S    
C34   C45   A    
C12   H1    S    
C35   N1    A    
C28   O2    A    
C30   N4    A    
H10   N6    S    
C5    N9    S    
C22   C24   A    
C29   N3    A    
C41   H14   S    
O9    Zn1   S    
C43   H21   S    
C15   C17   A    
C20   N6    S    
C46   C47   A    
C42   H18   S    
C33   H2    S    
O10   Zn2   S    
H24   N9    S    
C31   C32   S    
C3    C5    A    
C1    O1    A    
C49   O6    S    
C48   H3    S    
C41   H11   S    
C43   H22   S    
C40   H9    S    
C32   C33   S    
H15   N7    S    
C11   C13   A    
N4    Zn1   S    
C5    C6    A    
C42   H16   S    
O11   Zn1   S    
C10   C11   A    
C16   O11   A    
C20   C21   A    
O3    Zn2   S    
C31   N4    A    
C14   C15   A    
C42   H17   S    
C13   C14   A    
C1    O8    A    
C39   C48   A    
