data_mof_unit_67949.cif
_audit_creation_date              2013-03-05T16:41:05-0500
_audit_creation_method            fapswitch 2.2
_symmetry_space_group_name_H-M    P1
_symmetry_Int_Tables_number       1
_space_group_crystal_system       triclinic
_cell_length_a                    8.725517
_cell_length_b                    10.62145
_cell_length_c                    9.951032
_cell_angle_alpha                 87.118755
_cell_angle_beta                  97.746065
_cell_angle_gamma                 89.595565
_cell_volume                      912.57853735

loop_
_atom_site_label
_atom_site_type_symbol
_atom_site_description
_atom_site_fract_x
_atom_site_fract_y
_atom_site_fract_z
_atom_type_partial_charge
O1    O     O_R   0.500020 0.316790 0.614690 -0.623878
O2    O     O_R   0.500000 0.316760 0.385350 -0.526701
C1    C     C_R   0.500594 0.259862 0.503562 0.943186
O3    O     O_R   0.271760 0.500010 0.587850 -0.584861
O4    O     O_R   0.271740 0.499970 0.358500 -0.590380
C2    C     C_R   0.202287 0.499918 0.465550 0.874446
Zn1   Zn    Zn3+2 0.500010 0.500020 0.653130 0.989812
Zn2   Zn    Zn3+2 0.499990 0.499980 0.346870 1.009990
O5    O     O_R   0.500000 0.683240 0.614650 -0.611090
O6    O     O_R   0.499980 0.683210 0.385310 -0.643784
O7    O     O_R   0.728260 0.500030 0.641500 -0.616120
O8    O     O_R   0.728240 0.499990 0.412150 -0.613363
C3    C     C_R   0.497048 0.739457 0.495432 0.856058
C4    C     C_R   0.797282 0.502345 0.534412 0.888875
C5    C     C_2   0.040262 0.482393 0.450981 -0.337938
C6    C     C_2   0.959296 0.518170 0.550502 -0.333101
C7    C     C_R   0.365381 0.062098 0.506813 0.130645
C8    C     C_R   0.504399 0.126441 0.511417 -0.059657
C9    C     C_R   0.638411 0.063789 0.487095 -0.213116
H1    H     H_    0.744118 0.114244 0.478829 0.190501
C10   C     C_R   0.636483 0.933898 0.480477 -0.173483
H2    H     H_    0.743286 0.882193 0.477571 0.178815
C11   C     C_R   0.495799 0.871717 0.481229 -0.089838
C12   C     C_R   0.356411 0.939259 0.469873 -0.149567
C13   C     C_3   0.220122 0.911703 0.542532 0.192362
C14   C     C_3   0.260708 0.033575 0.613998 0.357840
H3    H     H_    0.231001 0.823439 0.608526 0.118791
C15   C     C_R   0.402606 0.423239 0.063034 0.149998
N1    N     N_R   0.498950 0.499140 0.142680 -0.099703
C16   C     C_R   0.592467 0.577967 0.078386 -0.100574
H4    H     H_    0.670690 0.638371 0.138115 0.143624
C17   C     C_R   0.591399 0.579024 0.934962 -0.068657
H5    H     H_    0.667635 0.641713 0.887281 0.157456
N2    N     N_R   0.498950 0.499180 0.857030 -0.104918
C18   C     C_R   0.402231 0.424338 0.920838 0.204665
C19   C     C_3   0.402267 0.285104 0.919066 -0.596104
C20   C     C_3   0.402625 0.281502 0.073377 0.354389
H6    H     H_    0.295498 0.251179 0.859407 0.233179
H7    H     H_    0.509818 0.252079 0.884141 0.245747
C21   C     C_2   0.975306 0.409826 0.332151 1.070905
O9    O     O_2   0.984817 0.451486 0.216756 -0.623843
O10   O     O_R   0.905932 0.293664 0.352922 -0.786357
H8    H     H_    0.870245 0.252755 0.264562 0.343500
C22   C     C_2   0.255749 0.235307 0.124576 0.880760
O11   O     O_2   0.237827 0.247714 0.242792 -0.586347
O12   O     O_R   0.141545 0.176572 0.038419 -0.861815
H9    H     H_    0.051775 0.148410 0.086959 0.334047
O13   O     O_3   0.541175 0.235767 0.154068 -0.608175
C23   C     C_3   0.592402 0.114318 0.124754 0.052751
H10   H     H_    0.694107 0.089402 0.201209 0.174240
H11   H     H_    0.637604 0.116208 0.026381 0.145161
C24   C     C_3   0.472495 0.010941 0.135744 -0.365708
H12   H     H_    0.420739 0.020449 0.229994 0.245291
H13   H     H_    0.379085 0.021995 0.049330 0.274419
C25   C     C_3   0.543105 0.879239 0.136879 -0.876249
H14   H     H_    0.593347 0.864421 0.042560 0.245125
H15   H     H_    0.451225 0.808733 0.145592 0.290153
H16   H     H_    0.636356 0.863479 0.223471 0.254703
C26   C     C_2   0.019805 0.593370 0.668360 0.961449
O14   O     O_2   0.092313 0.541640 0.770134 -0.605644
O15   O     O_R   0.977539 0.720547 0.667562 -0.843781
H17   H     H_    0.019051 0.760953 0.755029 0.345541
O16   O     O_3   0.078679 0.923651 0.454012 -0.586533
C27   C     C_3   0.060904 0.823731 0.364239 0.147229
H18   H     H_    0.952876 0.773253 0.378914 0.153142
H19   H     H_    0.156999 0.752570 0.381173 0.111818
C28   C     C_3   0.046701 0.878449 0.217954 -0.378661
H20   H     H_    0.942287 0.940605 0.196597 0.209676
H21   H     H_    0.149907 0.936016 0.204900 0.248695
C29   C     C_3   0.034834 0.774871 0.116401 -0.856964
H22   H     H_    0.140485 0.713971 0.133402 0.287901
H23   H     H_    0.023218 0.818216 0.011554 0.266381
H24   H     H_    0.931942 0.716188 0.126727 0.262159
O17   O     O_3   0.143917 0.128275 0.605769 -0.608055
C30   C     C_3   0.031854 0.101721 0.693060 0.097229
H25   H     H_    0.081927 0.064882 0.795617 0.187196
H26   H     H_    0.947987 0.032536 0.647530 0.191283
C31   C     C_3   0.949307 0.225106 0.712414 -0.307823
H27   H     H_    0.034657 0.293047 0.758085 0.269428
H28   H     H_    0.896044 0.265056 0.612124 0.240349
C32   C     C_3   0.823529 0.206891 0.803049 -0.902376
H29   H     H_    0.727157 0.156931 0.747104 0.297976
H30   H     H_    0.780913 0.299913 0.829667 0.291129
H31   H     H_    0.866050 0.150706 0.897585 0.262843
C33   C     C_2   0.351436 0.001528 0.753635 0.752843
O18   O     O_2   0.298849 0.927108 0.832878 -0.670967
O19   O     O_R   0.503321 0.040734 0.782398 -0.850290
H32   H     H_    0.564663 0.988212 0.858473 0.340720

loop_
_geom_bond_atom_site_label_1
_geom_bond_atom_site_label_2
_geom_bond_distance
_ccdc_geom_bond_type
O19   H32   1.007414 S    
C9    H1    1.080593 S    
C25   H14   1.105742 S    
C32   H29   1.099277 S    
C33   O18   1.223590 D    
C22   O11   1.220888 D    
Zn1   O7    2.010471 S    
Zn2   N1    2.031167 S    
C15   N1    1.370755 A    
C9    C10   1.384610 A    
C8    C9    1.396511 A    
C16   H4    1.079775 S    
O7    C4    1.292079 A    
C31   H28   1.105285 S    
C5    C6    1.359007 D    
C3    C11   1.404612 S    
C1    C8    1.415261 S    
N2    C18   1.360318 A    
C13   O16   1.417281 S    
O5    C3    1.298049 A    
C2    C5    1.416174 S    
C18   C19   1.479862 S    
C15   C18   1.414019 A    
C22   O12   1.396233 S    
C23   H11   1.102929 S    
C11   C12   1.396112 A    
C29   H22   1.111483 S    
C24   C25   1.523460 S    
C21   O10   1.396440 S    
C26   O14   1.222404 D    
C10   H2    1.082828 S    
O3    Zn1   2.009903 S    
C32   H30   1.110090 S    
C24   H13   1.103229 S    
C33   O19   1.388961 S    
C10   C11   1.398767 A    
C26   O15   1.397088 S    
C7    C12   1.373124 A    
O17   C30   1.413647 S    
C28   H20   1.111870 S    
C27   C28   1.528871 S    
C12   C13   1.496009 S    
O3    C2    1.284459 A    
C31   H27   1.109607 S    
C13   C14   1.529025 S    
O1    C1    1.287313 A    
C6    C26   1.491783 S    
C27   H19   1.114848 S    
C30   H25   1.105790 S    
N1    C16   1.368460 A    
Zn2   O8    2.009903 S    
C23   C24   1.532066 S    
C29   H24   1.109690 S    
C7    C8    1.392985 A    
C20   O13   1.425844 S    
C30   H26   1.110165 S    
Zn2   O6    2.002184 S    
C21   O9    1.223271 D    
O8    C4    1.284304 A    
C25   H15   1.109836 S    
Zn1   N2    2.029854 S    
C4    C6    1.413285 S    
O10   H8    1.012623 S    
C7    C14   1.515790 S    
C32   H31   1.106849 S    
C24   H12   1.103091 S    
Zn1   O5    1.964397 S    
O12   H9    1.013464 S    
O13   C23   1.419055 S    
O1    Zn1   2.002185 S    
C19   H7    1.104544 S    
O2    Zn2   1.964396 S    
O6    C3    1.277334 A    
O4    Zn2   2.010471 S    
C13   H3    1.113201 S    
C28   C29   1.525597 S    
C17   H5    1.081909 S    
C20   C22   1.517394 S    
C19   H6    1.107862 S    
O2    C1    1.294547 A    
C27   H18   1.110700 S    
C16   C17   1.425473 A    
C31   C32   1.519086 S    
O4    C2    1.294602 A    
C15   C20   1.503793 S    
C14   C33   1.524954 S    
C14   O17   1.418336 S    
O15   H17   1.013768 S    
C30   C31   1.524065 S    
C5    C21   1.493560 S    
O16   C27   1.417298 S    
C19   C20   1.533685 S    
C23   H10   1.109434 S    
C25   H16   1.107765 S    
C29   H23   1.110549 S    
C28   H21   1.110405 S    
C17   N2    1.370570 A    
