data_mof_unit_20950.cif
_audit_creation_date              2012-12-11T17:47:24-0500
_audit_creation_method            fapswitch 2.2
_symmetry_space_group_name_H-M    P1
_symmetry_Int_Tables_number       1
_space_group_crystal_system       triclinic
_cell_length_a                    14.97447
_cell_length_b                    15.155705
_cell_length_c                    15.189749
_cell_angle_alpha                 110.861178
_cell_angle_beta                  109.459315
_cell_angle_gamma                 107.927191
_cell_volume                      2657.8408803

loop_
_atom_site_label
_atom_site_type_symbol
_atom_type_description
_atom_site_fract_x
_atom_site_fract_y
_atom_site_fract_z
_atom_type_partial_charge
C1    C     C_R   0.974910 0.251478 0.064224 -0.158711
C2    C     C_R   0.083032 0.800925 0.001571 -0.262848
C3    C     C_R   0.320951 0.770130 0.323230 0.043959
C4    C     C_R   0.692197 0.149755 0.684118 0.067784
C5    C     C_R   0.298513 0.500593 0.927789 -0.189868
C6    C     C_R   0.671467 0.498263 0.955644 -0.119120
C7    C     C_R   0.934526 0.500279 0.300667 0.070955
C8    C     C_R   0.953788 0.502702 0.677980 0.038017
C9    C     C_R   0.063397 0.982233 0.987262 0.420257
C10   C     C_R   0.067880 0.138744 0.159181 0.438894
C11   C     C_R   0.183338 0.091309 0.797217 -0.316215
C12   C     C_R   0.884229 0.961218 0.285980 -0.267871
C13   C     C_R   0.118013 0.076767 0.844080 0.667652
C14   C     C_R   0.970125 0.010307 0.272114 0.597894
C15   C     C_R   0.649924 0.156684 0.108459 0.108555
C16   C     C_R   0.285604 0.754554 0.812098 0.121522
C17   C     C_R   0.686777 0.256687 0.198838 -0.228991
C18   C     C_R   0.189230 0.673996 0.715146 -0.192651
C19   C     C_R   0.786820 0.303010 0.292618 0.089288
C20   C     C_R   0.099821 0.691353 0.681981 0.050278
C21   C     C_R   0.847085 0.248416 0.295884 -0.194873
C22   C     C_R   0.108959 0.791093 0.744454 -0.174101
C23   C     C_R   0.313000 0.748701 0.222889 -0.116964
C24   C     C_R   0.697539 0.203079 0.783503 -0.151143
C25   C     C_R   0.808890 0.149257 0.207160 -0.118760
C26   C     C_R   0.204849 0.870134 0.842656 -0.108156
C27   C     C_R   0.710908 0.103095 0.113462 -0.149067
C28   C     C_R   0.292234 0.851396 0.877139 -0.203062
C29   C     C_R   0.844209 0.420997 0.480191 -0.246915
C30   C     C_R   0.979413 0.600874 0.488464 -0.236115
C31   C     C_R   0.927545 0.511316 0.580435 0.071718
C32   C     C_R   0.910623 0.504340 0.388625 0.060088
C33   C     C_R   0.995808 0.602942 0.584129 0.050480
C34   C     C_R   0.839147 0.413276 0.384077 0.047835
C35   C     C_R   0.167551 0.113906 0.956944 0.052952
C36   C     C_R   0.948438 0.990270 0.166532 0.031567
C37   C     C_R   0.344601 0.183670 0.972000 -0.168201
C38   C     C_R   0.755501 0.887866 0.098558 -0.207184
C39   C     C_R   0.150147 0.917522 0.494206 0.541033
C40   C     C_R   0.887666 0.059817 0.540744 0.560899
C41   C     C_R   0.236530 0.935771 0.472888 0.479826
C42   C     C_R   0.794822 0.999676 0.540577 0.463850
C43   C     C_R   0.318428 0.913297 0.523354 -0.177160
C44   C     C_R   0.698412 0.002384 0.488627 -0.183103
C45   C     C_R   0.206791 0.411404 0.896181 0.667836
C46   C     C_R   0.772602 0.589283 0.029355 0.483038
C47   C     C_R   0.317106 0.882270 0.598958 -0.158121
C48   C     C_R   0.692815 0.053849 0.428064 -0.142396
C49   C     C_R   0.235613 0.871370 0.623850 -0.120715
C50   C     C_R   0.784704 0.112652 0.428669 -0.169576
C51   C     C_R   0.150718 0.885937 0.570760 -0.478295
C52   C     C_R   0.882708 0.119153 0.487474 -0.455513
C53   C     C_R   0.504161 0.024057 0.589314 -0.243967
C54   C     C_R   0.517243 0.872601 0.430955 -0.253052
C55   C     C_R   0.602343 0.046289 0.592750 0.067819
C56   C     C_R   0.417856 0.852550 0.426441 0.066720
C57   C     C_R   0.608924 0.971000 0.510534 0.071802
C58   C     C_R   0.412715 0.929361 0.508467 0.066825
C59   C     C_R   0.296549 0.143541 0.860267 0.509929
C60   C     C_R   0.776541 0.902292 0.200726 0.551161
C61   C     C_R   0.033844 0.032862 0.141316 -0.161871
C62   C     C_R   0.105003 0.086881 0.009676 -0.159436
C63   C     C_R   0.280896 0.167189 0.019679 -0.340774
C64   C     C_R   0.840595 0.928492 0.080625 -0.289887
C65   C     C_R   0.045310 0.959013 0.062668 -0.086886
C66   C     C_R   0.093453 0.162114 0.086325 -0.047388
C67   C     C_R   0.992562 0.589930 0.297567 -0.158021
C68   C     C_R   0.940724 0.410595 0.685518 -0.133649
C69   C     C_3   0.456162 0.397055 0.859792 -0.120400
C70   C     C_3   0.504523 0.599703 0.989313 -0.115286
C71   C     C_3   0.410069 0.463216 0.821168 -0.163235
C72   C     C_3   0.548814 0.533395 0.027613 -0.138903
C73   C     C_3   0.392057 0.499980 0.918727 0.167305
C74   C     C_3   0.568389 0.496943 0.931216 0.161185
C75   C     C_3   0.436299 0.433657 0.956717 -0.132727
C76   C     C_3   0.524957 0.563079 0.892337 -0.166754
C77   C     C_R   0.299047 0.590033 0.994483 -0.200922
C78   C     C_R   0.684141 0.408236 0.938350 -0.182519
C79   C     C_R   0.907064 0.410555 0.207670 -0.098326
C80   C     C_R   0.017504 0.590151 0.781693 -0.106101
C81   C     C_R   0.217923 0.734354 0.308683 -0.095914
C82   C     C_R   0.788009 0.209032 0.692545 -0.109225
C83   C     C_R   0.079894 0.268162 0.990130 0.510915
C84   C     C_R   0.997433 0.800332 0.095605 0.598386
C85   C     C_R   0.059535 0.234598 0.058415 -0.032908
C86   C     C_R   0.040397 0.857419 0.053983 0.015553
H1    H     H_    0.934509 0.232218 0.107055 0.180450
H2    H     H_    0.141047 0.831986 0.978680 0.184614
H3    H     H_    0.145968 0.061321 0.711162 0.187950
H4    H     H_    0.901861 0.967078 0.363074 0.159785
H5    H     H_    0.431832 0.226212 0.022030 0.149385
H6    H     H_    0.673043 0.842165 0.031930 0.148007
H7    H     H_    0.684069 0.027100 0.043678 0.123220
H8    H     H_    0.365845 0.913453 0.953112 0.135761
H9    H     H_    0.641678 0.300310 0.194349 0.122519
H10   H     H_    0.183244 0.597905 0.665813 0.129326
H11   H     H_    0.925436 0.284329 0.366485 0.140177
H12   H     H_    0.041647 0.806239 0.717556 0.191927
H13   H     H_    0.857915 0.110875 0.210952 0.133286
H14   H     H_    0.212662 0.946581 0.891862 0.173662
H15   H     H_    0.793172 0.350168 0.477262 0.129322
H16   H     H_    0.036212 0.670546 0.495243 0.146093
H17   H     H_    0.398688 0.381874 0.984314 0.149765
H18   H     H_    0.564534 0.614993 0.865764 0.125511
H19   H     H_    0.377756 0.767912 0.204505 0.109592
H20   H     H_    0.643879 0.172073 0.810934 0.113076
H21   H     H_    0.319905 0.195063 0.105718 0.168429
H22   H     H_    0.822245 0.913895 0.999864 0.156917
H23   H     H_    0.085793 0.872999 0.589495 0.185676
H24   H     H_    0.954054 0.168050 0.489115 0.179788
H25   H     H_    0.381171 0.868593 0.640750 0.150571
H26   H     H_    0.619198 0.055781 0.387593 0.149047
H27   H     H_    0.240549 0.851452 0.684794 0.187403
H28   H     H_    0.780073 0.157118 0.387602 0.171371
H29   H     H_    0.496456 0.082561 0.648799 0.148756
H30   H     H_    0.521475 0.816466 0.366071 0.144758
H31   H     H_    0.350545 0.434802 0.736801 0.128684
H32   H     H_    0.607101 0.562152 0.112647 0.138479
H33   H     H_    0.440027 0.316034 0.804170 0.163205
H34   H     H_    0.523207 0.683039 0.041976 0.172756
H35   H     H_    0.012523 0.672352 0.347254 0.108681
H36   H     H_    0.896513 0.328413 0.619174 0.117355
H37   H     H_    0.353149 0.673167 0.024354 0.139491
H38   H     H_    0.621316 0.324953 0.890810 0.148710
H39   H     H_    0.851503 0.327734 0.171860 0.126594
H40   H     H_    0.033087 0.671268 0.807510 0.141199
H41   H     H_    0.193004 0.728970 0.366106 0.110084
H42   H     H_    0.818225 0.191142 0.638200 0.115950
N1    N     N_R   0.947560 0.293820 0.002910 -0.086231
N2    N     N_R   0.052440 0.706180 0.997090 -0.074462
N3    N     N_R   0.208960 0.706170 0.152110 -0.039274
N4    N     N_R   0.791040 0.293830 0.847890 -0.042479
N5    N     N_R   0.154330 0.443160 0.946140 -0.058097
N6    N     N_R   0.845670 0.556840 0.053860 -0.083932
N7    N     N_R   0.002190 0.556820 0.208880 -0.050832
N8    N     N_R   0.997810 0.443180 0.791120 -0.049397
N9    N     N_R   0.210550 0.556810 0.002910 -0.071778
N10   N     N_R   0.789450 0.443190 0.997090 -0.066008
N11   N     N_R   0.945970 0.443180 0.152110 -0.043788
N12   N     N_R   0.054030 0.556820 0.847890 -0.047738
N13   N     N_R   0.151530 0.706170 0.208880 -0.048274
N14   N     N_R   0.848470 0.293830 0.791120 -0.047494
N15   N     N_R   0.004980 0.293810 0.946140 -0.072183
N16   N     N_R   0.995020 0.706190 0.053860 -0.120406
Ni1   Ni    Ni4+2 0.869690 0.369690 0.000000 0.199601
Ni2   Ni    Ni4+2 0.130310 0.630310 0.000000 0.203279
Ni3   Ni    Ni4+2 0.001390 0.369680 0.869810 0.285085
Ni4   Ni    Ni4+2 0.998610 0.630320 0.130190 0.236334
C87   C     C_1   0.554767 0.111183 0.006827 -0.001922
N17   N     N_1   0.479264 0.072661 0.923459 -0.047920
C88   C     C_1   0.379386 0.740291 0.842852 0.012367
N18   N     N_1   0.455609 0.729955 0.867510 -0.106889
O1    O     O_3   0.007415 0.025260 0.777109 -0.652736
H43   H     H_    0.971644 0.031688 0.821581 0.323217
O2    O     O_3   0.073300 0.069541 0.361009 -0.698993
H44   H     H_    0.127273 0.087888 0.337682 0.344975
O3    O     O_3   0.066065 0.930419 0.438957 -0.682886
H45   H     H_    0.009789 0.908918 0.459068 0.320663
O4    O     O_3   0.982561 0.061022 0.595157 -0.699276
H46   H     H_    0.039800 0.106869 0.587712 0.325586
O5    O     O_3   0.235832 0.971310 0.400687 -0.697130
H47   H     H_    0.300837 0.980778 0.393328 0.310983
O6    O     O_3   0.803294 0.945539 0.596704 -0.688144
H48   H     H_    0.730934 0.901783 0.584111 0.310831
O7    O     O_3   0.033200 0.902301 0.886337 -0.794884
H49   H     H_    0.967309 0.837468 0.862739 0.321333
O8    O     O_3   0.066893 0.218299 0.239412 -0.771851
H50   H     H_    0.060551 0.197551 0.292479 0.314252
O9    O     O_3   0.163074 0.307325 0.813650 -0.737635
H51   H     H_    0.212038 0.305665 0.783234 0.297457
O10   O     O_3   0.795220 0.694482 0.081086 -0.776142
H52   H     H_    0.727368 0.696279 0.048801 0.323188
O11   O     O_3   0.178851 0.304569 0.996652 -0.772913
H53   H     H_    0.233757 0.326174 0.069814 0.309508
O12   O     O_3   0.008147 0.847190 0.196581 -0.688572
H54   H     H_    0.995763 0.792410 0.218792 0.349240
O13   O     O_3   0.361887 0.154743 0.814725 -0.781512
H55   H     H_    0.315794 0.121429 0.735307 0.313514
O14   O     O_3   0.690905 0.856469 0.214336 -0.781612
H56   H     H_    0.719486 0.870961 0.289855 0.314710

loop_
_geom_bond_atom_site_label_1
_geom_bond_atom_site_label_2
_ccdc_geom_bond_type
C16   C28   A    
C49   H27   S    
O10   H52   S    
N5    N9    A    
O7    H49   S    
C22   H12   S    
C41   O5    S    
C14   O2    S    
N2    Ni2   S    
C18   H10   S    
O9    H51   S    
C40   O4    S    
C79   N11   A    
O6    H48   S    
C82   N14   A    
C66   C85   S    
O5    H47   S    
C65   C86   S    
C39   C41   A    
O11   H53   S    
C60   O14   S    
N7    N11   A    
O3    H45   S    
C74   C76   S    
N4    Ni1   S    
C12   H4    S    
C19   C21   A    
C77   N9    A    
C13   C35   A    
C1    N1    A    
C14   C36   A    
C71   C76   S    
C4    C24   A    
C6    C78   A    
C84   N16   A    
N10   Ni1   S    
C23   H19   S    
C9    O7    S    
C38   H6    S    
C71   H31   S    
C46   O10   S    
N3    Ni2   S    
C28   H8    S    
C2    C86   A    
C1    H1    S    
C69   C71   S    
C24   N4    A    
N13   Ni4   S    
C2    N2    A    
C39   C51   A    
C3    C23   A    
C25   H13   S    
O4    H46   S    
C70   H34   S    
C10   O8    S    
C49   C51   A    
C54   H30   S    
C3    C81   A    
C50   C52   A    
C88   N18   T    
C31   C33   A    
C2    H2    S    
N5    Ni3   S    
C16   C88   S    
C84   O12   S    
C78   H38   S    
N1    Ni1   S    
N3    N13   A    
N8    N12   A    
C40   C42   A    
C79   H39   S    
C51   H23   S    
C81   H41   S    
C75   H17   S    
C41   C43   A    
C42   C44   A    
C72   C75   S    
C11   C59   A    
C67   H35   S    
C63   H21   S    
C47   C49   A    
C37   C63   A    
C6    C74   S    
C38   C64   A    
C10   C66   A    
C1    C85   A    
C54   C56   A    
C37   H5    S    
C29   H15   S    
C9    C62   A    
N9    Ni2   S    
C59   O13   S    
C72   C74   S    
C68   H36   S    
O8    H50   S    
C71   C73   S    
C62   C66   A    
C42   O6    S    
C40   C52   A    
C5    C45   A    
C29   C34   A    
C69   H33   S    
C50   H28   S    
C32   C34   A    
C67   N7    A    
C76   H18   S    
C77   H37   S    
C46   N6    A    
C21   H11   S    
C3    C56   S    
C11   H3    S    
C15   C27   A    
O12   H54   S    
C52   H24   S    
C44   C57   S    
C13   O1    S    
C30   H16   S    
C70   C73   S    
C23   N3    A    
C69   C74   S    
C68   N8    A    
C48   C50   A    
C82   H42   S    
C37   C59   A    
O13   H55   S    
C17   H9    S    
C20   C33   S    
C83   C85   A    
C12   C14   A    
C8    C68   A    
C55   C57   A    
C4    C55   S    
C70   C76   S    
C38   C60   A    
C27   H7    S    
C10   C61   A    
C24   H20   S    
C73   C75   S    
C53   C55   A    
N12   Ni2   S    
C36   C61   S    
N15   Ni3   S    
C15   C87   S    
N2    N16   A    
C7    C79   A    
C15   C17   A    
C21   C25   A    
N11   Ni1   S    
C7    C32   S    
C6    C46   A    
C30   C33   A    
C48   H26   S    
C8    C31   S    
C26   C28   A    
N14   Ni3   S    
C20   C22   A    
C43   C47   A    
C19   C34   S    
C45   O9    S    
N6    N10   A    
C70   C72   S    
C53   C58   A    
N1    N15   A    
C25   C27   A    
N4    N14   A    
N6    Ni4   S    
C45   N5    A    
C83   O11   S    
C29   C31   A    
C44   C48   A    
C80   N12   A    
C87   N17   T    
C78   N10   A    
C30   C32   A    
C11   C13   A    
C80   H40   S    
C47   H25   S    
C81   N13   A    
C17   C19   A    
C56   C58   A    
C69   C75   S    
C35   C62   S    
C18   C20   A    
C5    C73   S    
C9    C65   A    
N8    Ni3   S    
C7    C67   A    
O14   H56   S    
C12   C60   A    
C61   C65   A    
C4    C82   A    
C16   C18   A    
N7    Ni4   S    
C22   C26   A    
C72   H32   S    
O2    H44   S    
C8    C80   A    
C43   C58   S    
C84   C86   A    
C83   N15   A    
C35   C63   A    
O1    H43   S    
C36   C64   A    
C5    C77   A    
C54   C57   A    
C39   O3    S    
C53   H29   S    
C64   H22   S    
C26   H14   S    
N16   Ni4   S    
