data_mof_unit_66923.cif
_audit_creation_date              2013-03-05T15:57:28-0500
_audit_creation_method            fapswitch 2.2
_symmetry_space_group_name_H-M    P1
_symmetry_Int_Tables_number       1
_space_group_crystal_system       triclinic
_cell_length_a                    17.466733
_cell_length_b                    18.997032
_cell_length_c                    8.503415
_cell_angle_alpha                 90.307406
_cell_angle_beta                  102.472201
_cell_angle_gamma                 89.714437
_cell_volume                      2754.92259043

loop_
_atom_site_label
_atom_site_type_symbol
_atom_site_description
_atom_site_fract_x
_atom_site_fract_y
_atom_site_fract_z
_atom_type_partial_charge
P1    P     P_3+3 0.834140 0.419320 0.003900 0.517118
P2    P     P_3+3 0.834140 0.580680 0.503900 0.519751
P3    P     P_3+3 0.334140 0.919320 0.003900 0.518673
P4    P     P_3+3 0.334140 0.080680 0.503900 0.519069
O1    O     O_2   0.841960 0.394640 0.833410 -0.377546
O2    O     O_2   0.841960 0.605360 0.333410 -0.403866
O3    O     O_2   0.341960 0.894640 0.833410 -0.378091
O4    O     O_2   0.341960 0.105360 0.333410 -0.364393
O5    O     O_3   0.907950 0.463080 0.102990 -0.353909
O6    O     O_3   0.907950 0.536920 0.602990 -0.360975
O7    O     O_3   0.407950 0.963080 0.102990 -0.349334
O8    O     O_3   0.407950 0.036920 0.602990 -0.366443
O9    O     O_3   0.972780 0.329600 0.629720 -0.371608
O10   O     O_3   0.972780 0.670400 0.129720 -0.363513
O11   O     O_3   0.472780 0.829600 0.629720 -0.374406
O12   O     O_3   0.472780 0.170400 0.129720 -0.350888
O13   O     O_2   0.841312 0.277192 0.679597 -0.335889
O14   O     O_2   0.834654 0.718451 0.176236 -0.391574
O15   O     O_2   0.365584 0.739378 0.698436 -0.350504
O16   O     O_2   0.332175 0.214958 0.156647 -0.299865
O17   O     O_3   0.746099 0.464282 0.988445 -0.625501
O18   O     O_3   0.751815 0.528372 0.490859 -0.598957
O19   O     O_3   0.245897 0.965572 0.985419 -0.632940
O20   O     O_3   0.245444 0.037197 0.486013 -0.628274
O21   O     O_3   0.943073 0.184166 0.655892 -0.515830
O22   O     O_3   0.932659 0.811499 0.130342 -0.520924
O23   O     O_3   0.458690 0.699156 0.512309 -0.590776
O24   O     O_3   0.432557 0.311235 0.151276 -0.530864
H1    H     H_    0.053424 0.146197 0.739621 0.140928
H2    H     H_    0.049651 0.788600 0.189949 0.094703
H3    H     H_    0.523649 0.709746 0.750726 0.168848
H4    H     H_    0.545555 0.332722 0.253677 0.205202
C1    C     C_3   0.020097 0.130127 0.484304 0.121325
C2    C     C_3   0.028730 0.890825 0.080282 0.145431
C3    C     C_3   0.532765 0.607904 0.643504 0.246436
C4    C     C_3   0.512098 0.381948 0.022328 0.213407
H5    H     H_    0.575220 0.596355 0.753249 0.164929
H6    H     H_    0.573230 0.392610 0.015500 0.083755
H7    H     H_    0.080400 0.111062 0.486797 0.081196
H8    H     H_    0.044242 0.913045 0.202899 0.160502
P5    P     P_3+3 0.165830 0.418670 0.685610 0.445583
P6    P     P_3+3 0.165830 0.581330 0.185610 0.462115
P7    P     P_3+3 0.665830 0.918670 0.685610 0.472240
P8    P     P_3+3 0.665830 0.081330 0.185610 0.461972
P9    P     P_3+3 0.096678 0.262765 0.111621 0.428156
P10   P     P_3+3 0.103602 0.730483 0.614372 0.474042
P11   P     P_3+3 0.598035 0.764494 0.112616 0.451879
P12   P     P_3+3 0.596686 0.237001 0.612825 0.458918
O25   O     O_2   0.157990 0.394030 0.856030 -0.366384
O26   O     O_2   0.157990 0.605970 0.356030 -0.373710
O27   O     O_2   0.657990 0.894030 0.856030 -0.395042
O28   O     O_2   0.657990 0.105970 0.356030 -0.376870
O29   O     O_3   0.027110 0.329490 0.059550 -0.417412
O30   O     O_3   0.027110 0.670510 0.559550 -0.402561
O31   O     O_3   0.527110 0.829490 0.059550 -0.411905
O32   O     O_3   0.527110 0.170510 0.559550 -0.429835
O33   O     O_2   0.151970 0.268709 0.992278 -0.336032
O34   O     O_2   0.165272 0.715207 0.513665 -0.373967
O35   O     O_2   0.647280 0.763917 0.981461 -0.383374
O36   O     O_2   0.651787 0.230562 0.493172 -0.354099
O37   O     O_3   0.241020 0.479491 0.729342 -0.557429
O38   O     O_3   0.249434 0.528227 0.229529 -0.561288
O39   O     O_3   0.747401 0.973819 0.729220 -0.533663
O40   O     O_3   0.744100 0.022732 0.228565 -0.508072
O41   O     O_3   0.045805 0.184256 0.057797 -0.555186
O42   O     O_3   0.064641 0.811046 0.541498 -0.463720
O43   O     O_3   0.543456 0.686766 0.085897 -0.465840
O44   O     O_3   0.545815 0.315618 0.557311 -0.477328
C5    C     C_3   0.965626 0.198052 0.046568 0.353828
C6    C     C_3   0.001791 0.827510 0.613499 0.421701
C7    C     C_3   0.474868 0.700119 0.144341 0.399479
C8    C     C_3   0.466787 0.305314 0.562826 0.443055
H9    H     H_    0.941782 0.232467 0.942364 0.173846
H10   H     H_    0.003638 0.800963 0.729287 0.030139
H11   H     H_    0.429810 0.725258 0.048441 0.111738
H12   H     H_    0.439718 0.261995 0.481737 0.130064
H13   H     H_    0.955644 0.223502 0.157816 0.029340
H14   H     H_    0.003185 0.884720 0.638684 0.172301
H15   H     H_    0.486032 0.734831 0.252526 0.048565
H16   H     H_    0.462909 0.294676 0.688562 -0.019767
C9    C     C_3   0.920813 0.129976 0.023563 -0.712344
C10   C     C_3   0.925610 0.809944 0.499030 -0.884764
C11   C     C_3   0.441873 0.632313 0.193727 -0.686036
C12   C     C_3   0.418929 0.370302 0.504653 -0.832677
H17   H     H_    0.396656 0.642357 0.262670 0.221807
H18   H     H_    0.390758 0.365613 0.375781 0.277974
H19   H     H_    0.862601 0.137230 0.052643 0.188421
H20   H     H_    0.922632 0.753826 0.463976 0.293794
H21   H     H_    0.912117 0.112704 0.896615 0.301017
H22   H     H_    0.920768 0.841883 0.390604 0.283059
H23   H     H_    0.411749 0.603535 0.086957 0.270479
H24   H     H_    0.457435 0.416566 0.518391 0.347753
C13   C     C_3   0.237458 0.469699 0.320582 0.397049
C14   C     C_3   0.209579 0.542563 0.775341 0.333560
C15   C     C_3   0.717333 0.957624 0.269562 0.467812
C16   C     C_3   0.732668 0.033825 0.814911 0.437696
H25   H     H_    0.289322 0.464505 0.421047 0.129714
H26   H     H_    0.187878 0.534495 0.886695 0.119121
H27   H     H_    0.689535 0.963215 0.374458 0.091495
H28   H     H_    0.774145 0.033653 0.933423 0.148996
H29   H     H_    0.185452 0.473665 0.375713 0.104370
H30   H     H_    0.162612 0.564813 0.678838 0.139043
H31   H     H_    0.675847 0.933409 0.166066 0.105311
H32   H     H_    0.672428 0.037081 0.838006 0.073141
C17   C     C_3   0.231037 0.404580 0.215271 -0.888928
C18   C     C_3   0.274253 0.595050 0.806763 -0.796196
C19   C     C_3   0.787602 0.909908 0.314027 -0.948196
C20   C     C_3   0.748234 0.098326 0.722372 -0.886934
H33   H     H_    0.264701 0.409189 0.120445 0.300493
H34   H     H_    0.324386 0.567863 0.881121 0.296407
H35   H     H_    0.830604 0.933953 0.414888 0.284747
H36   H     H_    0.791865 0.087385 0.648331 0.315181
H37   H     H_    0.254763 0.358417 0.288444 0.201981
H38   H     H_    0.263394 0.641305 0.875018 0.187377
H39   H     H_    0.771135 0.857978 0.351038 0.207773
H40   H     H_    0.770209 0.142324 0.805207 0.202621
H41   H     H_    0.168691 0.397057 0.156731 0.278388
H42   H     H_    0.285218 0.613235 0.690303 0.313190
H43   H     H_    0.813773 0.901240 0.208282 0.310350
H44   H     H_    0.692714 0.114118 0.642339 0.276197
Ba1   Ba    Ba6+2 0.000000 0.447380 0.844850 1.629456
Ba2   Ba    Ba6+2 0.000000 0.552620 0.344850 1.627893
Ba3   Ba    Ba6+2 0.500000 0.947380 0.844850 1.648840
Ba4   Ba    Ba6+2 0.500000 0.052620 0.344850 1.644895
C21   C     C_3   0.715873 0.489428 0.834925 0.954226
C22   C     C_3   0.729389 0.494240 0.344389 0.887693
C23   C     C_3   0.223502 0.001418 0.841223 0.893323
C24   C     C_3   0.225107 0.996940 0.346855 1.000270
H45   H     H_    0.745539 0.471554 0.740213 0.107646
H46   H     H_    0.775691 0.491978 0.273714 0.057686
H47   H     H_    0.250780 0.981877 0.744081 0.112647
H48   H     H_    0.270583 0.994326 0.274087 0.056464
C25   C     C_3   0.630968 0.467363 0.784398 -0.915007
C26   C     C_3   0.655673 0.529074 0.253835 -0.688272
C27   C     C_3   0.135367 0.997607 0.784600 -0.828982
C28   C     C_3   0.147966 0.025455 0.248556 -0.913759
H49   H     H_    0.605529 0.485993 0.661808 0.268077
H50   H     H_    0.664298 0.585481 0.242711 0.207253
H51   H     H_    0.117870 0.018515 0.661128 0.278943
H52   H     H_    0.135506 0.002753 0.126341 0.249342
H53   H     H_    0.597137 0.489019 0.868274 0.293821
H54   H     H_    0.639120 0.504252 0.134453 0.268075
H55   H     H_    0.107241 0.030887 0.862127 0.257157
H56   H     H_    0.099285 0.013916 0.306456 0.288742
H57   H     H_    0.626227 0.409308 0.784068 0.234291
H58   H     H_    0.608603 0.524852 0.321522 0.262252
H59   H     H_    0.115317 0.942465 0.787231 0.234770
H60   H     H_    0.148329 0.083207 0.243038 0.234704
O45   O     O_3   0.092100 0.536880 0.086720 -0.396914
O46   O     O_3   0.092100 0.463120 0.586720 -0.424070
O47   O     O_3   0.592100 0.036880 0.086720 -0.425016
O48   O     O_3   0.592100 0.963120 0.586720 -0.403890
P13   P     P_3+3 0.894807 0.729537 0.070260 0.528805
P14   P     P_3+3 0.902400 0.263677 0.575680 0.509080
P15   P     P_3+3 0.397564 0.231747 0.066319 0.548530
P16   P     P_3+3 0.401909 0.767474 0.560123 0.549485
C29   C     C_3   0.019986 0.174963 0.633387 0.259725
C30   C     C_3   0.006667 0.814781 0.093025 0.316600
C31   C     C_3   0.525770 0.686939 0.630803 0.315293
C32   C     C_3   0.509836 0.320634 0.133141 0.236029
H61   H     H_    0.052358 0.224756 0.627898 0.061245
H62   H     H_    0.009498 0.788375 0.978193 -0.016071
H63   H     H_    0.577473 0.708518 0.591613 0.040061
H64   H     H_    0.538226 0.274965 0.086017 -0.009129
H65   H     H_    0.548740 0.584318 0.535471 0.058175
H66   H     H_    0.478244 0.369172 0.900083 0.065385
H67   H     H_    0.002656 0.163585 0.377140 0.035655
H68   H     H_    0.079813 0.893683 0.022563 0.068993
H69   H     H_    0.489091 0.600442 0.268279 0.277932
H70   H     H_    0.372001 0.377226 0.572840 0.174299
H71   H     H_    0.954251 0.089891 0.104682 0.323109
H72   H     H_    0.876394 0.822509 0.556270 0.208205
C33   C     C_R   0.133910 0.680752 0.930696 -0.510134
C34   C     C_R   0.137238 0.320837 0.425775 -0.481527
C35   C     C_R   0.639217 0.178679 0.925479 -0.490752
C36   C     C_R   0.638776 0.823240 0.423716 -0.501872
C37   C     C_R   0.865839 0.320007 0.261217 -0.396451
C38   C     C_R   0.870213 0.684522 0.749093 -0.372003
C39   C     C_R   0.356074 0.827158 0.262536 -0.426313
C40   C     C_R   0.376116 0.188465 0.741787 -0.386858
C41   C     C_R   0.795817 0.212298 0.295926 -0.152987
C42   C     C_R   0.787916 0.782359 0.799734 -0.096215
C43   C     C_R   0.285020 0.720944 0.302177 -0.261485
C44   C     C_R   0.296668 0.288704 0.790659 -0.187817
C45   C     C_R   0.852278 0.263606 0.358115 0.261623
C46   C     C_R   0.848339 0.733625 0.854300 0.294338
C47   C     C_R   0.338550 0.774678 0.361787 0.403052
C48   C     C_R   0.356193 0.239220 0.846762 0.259599
C49   C     C_R   0.822142 0.329502 0.103437 0.268740
C50   C     C_R   0.822057 0.671670 0.598338 0.342083
C51   C     C_R   0.316148 0.832908 0.103788 0.246231
C52   C     C_R   0.325753 0.173702 0.593660 0.325456
C53   C     C_R   0.763015 0.276207 0.039384 -0.011706
C54   C     C_R   0.760122 0.723176 0.538742 -0.012931
C55   C     C_R   0.255903 0.780361 0.042365 0.016722
C56   C     C_R   0.263226 0.224689 0.534808 -0.011092
C57   C     C_R   0.241401 0.722156 0.143069 -0.087774
C58   C     C_R   0.249844 0.284093 0.633836 -0.042232
C59   C     C_R   0.749664 0.216727 0.137737 -0.106404
C60   C     C_R   0.744397 0.780700 0.640130 -0.087084
C61   C     C_R   0.181207 0.669642 0.083847 0.264288
C62   C     C_R   0.186536 0.333825 0.576781 0.231983
C63   C     C_R   0.687084 0.166426 0.078338 0.237662
C64   C     C_R   0.684043 0.832791 0.579654 0.265656
C65   C     C_R   0.150646 0.733956 0.829831 0.194136
C66   C     C_R   0.151831 0.265672 0.325714 0.212004
C67   C     C_R   0.653504 0.233732 0.826302 0.199803
C68   C     C_R   0.655334 0.769492 0.323013 0.207863
C69   C     C_R   0.209409 0.783970 0.885597 -0.218555
C70   C     C_R   0.212942 0.217651 0.382076 -0.234509
C71   C     C_R   0.714003 0.282188 0.883948 -0.189315
C72   C     C_R   0.714166 0.719707 0.381531 -0.202661
H73   H     H_    0.278507 0.678302 0.381391 0.222269
H74   H     H_    0.285143 0.328547 0.873651 0.196234
H75   H     H_    0.786181 0.170617 0.375179 0.206182
H76   H     H_    0.775649 0.821140 0.884192 0.198473
H77   H     H_    0.722628 0.324007 0.804644 0.192575
H78   H     H_    0.725974 0.680068 0.301118 0.160504
H79   H     H_    0.219194 0.824553 0.803760 0.196571
H80   H     H_    0.222833 0.176450 0.302884 0.211566
H81   H     H_    0.088912 0.642769 0.882081 0.157421
H82   H     H_    0.090039 0.357352 0.379904 0.166646
H83   H     H_    0.592400 0.142177 0.878450 0.163009
H84   H     H_    0.592908 0.860753 0.376025 0.155485
H85   H     H_    0.907893 0.359805 0.313760 0.152757
H86   H     H_    0.918048 0.648604 0.795010 0.158686
H87   H     H_    0.400225 0.865735 0.312490 0.148215
H88   H     H_    0.424446 0.152939 0.786684 0.163451
S1    S     S_3+6 0.727604 0.580316 0.855083 -0.090721
O49   O     O_2   0.813333 0.590389 0.922818 -0.333481
O50   O     O_2   0.701180 0.614776 0.695268 -0.418774
O51   O     O_3   0.677163 0.614462 0.982700 -0.550989
H89   H     H_    0.713038 0.649698 0.043767 0.392905
S2    S     S_3+6 0.706510 0.407794 0.389428 -0.068541
O52   O     O_2   0.775964 0.378638 0.504190 -0.285184
O53   O     O_2   0.637423 0.407914 0.466651 -0.290819
O54   O     O_3   0.685411 0.359459 0.222457 -0.637033
H90   H     H_    0.672675 0.312854 0.260595 0.369251
S3    S     S_3+6 0.250103 0.088262 0.886298 -0.040621
O55   O     O_2   0.337742 0.088507 0.924614 -0.285206
O56   O     O_2   0.214379 0.133667 0.746397 -0.418092
O57   O     O_3   0.218789 0.116594 0.046534 -0.518347
H91   H     H_    0.164115 0.130993 0.002333 0.374626
S4    S     S_3+6 0.210715 0.912000 0.414861 -0.094134
O58   O     O_2   0.285239 0.888314 0.523513 -0.324419
O59   O     O_2   0.147729 0.915176 0.508424 -0.308239
O60   O     O_3   0.184232 0.856508 0.261337 -0.648120
H92   H     H_    0.169528 0.813673 0.312663 0.388126
S5    S     S_3+6 0.953748 0.057251 0.466474 -0.033747
O61   O     O_2   0.922358 0.047963 0.615329 -0.237919
O62   O     O_2   0.886334 0.071136 0.328439 -0.289848
O63   O     O_3   0.998708 0.982534 0.433124 -0.545805
H93   H     H_    0.957302 0.953590 0.366215 0.383052
S6    S     S_3+6 0.950393 0.941156 0.965629 -0.048191
O64   O     O_2   0.896699 0.965790 0.070135 -0.272103
O65   O     O_2   0.985062 0.003527 0.901986 -0.307749
O66   O     O_3   0.899048 0.893998 0.812347 -0.583765
H94   H     H_    0.883069 0.927816 0.723182 0.399880
S7    S     S_3+6 0.444547 0.573062 0.675528 -0.010992
O67   O     O_2   0.428434 0.617543 0.810076 -0.281137
O68   O     O_2   0.380256 0.579958 0.527288 -0.304367
O69   O     O_3   0.452713 0.489092 0.732075 -0.530394
H95   H     H_    0.398905 0.475775 0.739272 0.404207
S8    S     S_3+6 0.470461 0.457685 0.093210 -0.037260
O70   O     O_2   0.487605 0.459684 0.273561 -0.303826
O71   O     O_2   0.504051 0.521565 0.032176 -0.254125
O72   O     O_3   0.373553 0.455766 0.022342 -0.543133
H96   H     H_    0.353260 0.491211 0.088414 0.378351

loop_
_geom_bond_atom_site_label_1
_geom_bond_atom_site_label_2
_geom_bond_distance
_ccdc_geom_bond_type
C43   H73   1.078309 S    
P10   C65   1.839908 S    
C59   C63   1.459388 A    
P1    O17   1.735644 S    
P9    C66   1.867436 S    
O10   Ba2   2.869923 S    
O16   P15   1.543143 D    
C29   H61   1.110809 S    
C6    H14   1.105962 S    
O27   Ba3   2.917407 S    
C20   H44   1.099007 S    
P3    O19   1.748066 S    
S3    O55   1.494667 D    
C34   H82   1.082257 S    
P5    O37   1.731384 S    
C8    H12   1.110486 S    
O6    Ba1   2.879271 S    
C33   H81   1.082330 S    
C7    H15   1.111961 S    
P7    O39   1.745732 S    
Ba3   Ba4   4.688581 S    
P2    O2    1.560035 D    
P8    O40   1.736415 S    
C25   H49   1.100757 S    
C26   H54   1.098153 S    
P9    O33   1.549513 D    
S5    O61   1.495676 D    
C43   C57   1.402294 A    
C20   H36   1.106627 S    
O11   Ba3   2.858290 S    
P11   C68   1.853982 S    
C18   H38   1.088759 S    
P1    O1    1.554941 D    
C23   S3    1.734493 S    
C4    S8    1.769708 S    
C17   H37   1.104002 S    
C5    H9    1.109117 S    
C3    H5    1.081929 S    
C23   H47   1.100958 S    
C12   H18   1.103367 S    
C55   C69   1.405024 A    
S1    O51   1.665620 S    
C21   S1    1.742900 S    
P15   C48   1.856629 S    
C24   C28   1.522743 S    
P4    O20   1.736449 S    
C54   C72   1.404233 A    
O41   C5    1.406399 S    
O18   C22   1.381401 S    
C39   C47   1.386938 A    
P13   C46   1.842353 S    
C14   H26   1.104956 S    
C15   H27   1.108240 S    
P5    Ba1   3.491588 S    
C32   H64   1.112192 S    
O1    Ba1   2.922987 S    
O24   C32   1.403661 S    
C8    H16   1.105582 S    
C37   C45   1.406888 A    
Ba1   O46   3.005370 S    
P4    Ba4   3.489320 S    
C33   C61   1.399830 A    
O66   H94   0.988697 S    
C42   C46   1.403425 A    
P5    O25   1.559336 D    
P6    O45   1.616824 S    
P4    C52   1.938570 S    
O51   H89   0.985024 S    
S6    O65   1.489656 D    
C40   C48   1.403275 A    
C13   C17   1.513586 S    
C5    H13   1.106587 S    
C28   H52   1.100820 S    
C1    H7    1.107998 S    
C54   C60   1.449861 A    
P1    O5    1.611553 S    
O7    Ba4   2.875700 S    
P3    Ba3   3.495943 S    
S8    O70   1.498057 D    
C15   H31   1.111194 S    
O26   Ba2   2.926593 S    
C6    H10   1.102836 S    
O24   P15   1.726975 S    
C56   C70   1.408050 A    
C57   C61   1.459671 A    
O22   P13   1.725775 S    
C35   C67   1.403665 A    
P4    O8    1.609587 S    
S4    O58   1.493194 D    
P6    O38   1.744525 S    
O32   Ba4   2.857667 S    
C49   C53   1.466236 A    
P4    O4    1.560035 D    
O28   Ba4   2.926593 S    
C9    H21   1.105398 S    
P8    O28   1.554251 D    
C27   H55   1.099089 S    
Ba4   O48   2.879222 S    
P9    O29   1.742877 S    
C36   C64   1.400844 A    
C7    H11   1.111618 S    
O54   H90   0.987284 S    
P10   O34   1.539651 D    
C67   C71   1.409038 A    
O15   P16   1.550220 D    
C17   H41   1.104877 S    
C1    H67   1.100712 S    
S2    O53   1.493187 D    
C2    H68   1.108993 S    
O13   P14   1.545104 D    
C24   H48   1.108095 S    
C19   H43   1.104454 S    
C68   C72   1.404466 A    
C1    C29   1.523832 S    
P12   O36   1.548205 D    
C50   C54   1.463702 A    
C7    C11   1.511789 S    
P2    Ba2   3.489320 S    
C22   S2    1.755752 S    
C71   H77   1.076756 S    
P14   C45   1.868018 S    
O31   Ba3   2.869298 S    
S5    O62   1.495673 D    
P8    O47   1.616824 S    
C37   C49   1.405014 A    
C2    H8    1.101431 S    
C69   H79   1.079948 S    
Ba2   O45   3.001429 S    
C3    S7    1.754963 S    
C18   H42   1.105887 S    
C5    C9    1.504884 S    
C41   H75   1.079579 S    
C40   C52   1.399685 A    
C70   H80   1.067313 S    
C13   H29   1.110619 S    
O20   C24   1.386628 S    
C22   H46   1.107428 S    
C4    C32   1.508143 S    
O37   C14   1.404061 S    
O4    Ba4   2.913899 S    
H1    C29   1.109050 S    
P5    O46   1.614831 S    
S6    O66   1.672223 S    
C36   C68   1.397898 A    
C53   C59   1.458628 A    
C12   H70   1.108490 S    
P11   O35   1.548525 D    
O39   C16   1.402061 S    
P8    Ba4   3.498362 S    
C39   H87   1.083044 S    
C44   C48   1.404667 A    
S2    O54   1.660787 S    
C27   H51   1.103720 S    
P2    O18   1.735396 S    
S1    O49   1.496585 D    
C43   C47   1.404422 A    
C60   C64   1.454638 A    
P8    C63   1.936821 S    
O9    Ba1   2.858290 S    
C66   C70   1.405452 A    
C13   H25   1.107225 S    
C44   H74   1.079606 S    
C52   C56   1.462875 A    
C34   C62   1.404380 A    
C65   C69   1.405612 A    
O44   C8    1.405931 S    
O25   Ba1   2.917407 S    
P10   O30   1.743800 S    
O12   P15   1.749409 S    
C4    H66   1.105602 S    
O5    Ba2   2.875700 S    
Ba1   Ba2   4.688581 S    
C42   C60   1.405315 A    
P11   O43   1.748611 S    
C8    C12   1.511729 S    
P12   O44   1.748143 S    
C44   C58   1.408291 A    
C1    S5    1.794581 S    
C19   H39   1.095552 S    
O11   P16   1.722243 S    
C28   H60   1.098472 S    
O14   P13   1.540644 D    
C15   C19   1.504395 S    
P6    O26   1.554251 D    
C10   H72   1.100144 S    
C58   C62   1.453782 A    
C2    C30   1.507468 S    
C56   C58   1.452384 A    
C11   H17   1.095965 S    
Ba4   O47   3.001429 S    
C27   H59   1.108035 S    
C16   H32   1.112659 S    
O10   P13   1.751002 S    
P9    O41   1.747456 S    
C24   S4    1.754464 S    
C28   H56   1.094216 S    
C31   H63   1.108962 S    
C25   H57   1.106335 S    
S2    O52   1.489481 D    
O2    Ba2   2.913899 S    
P7    Ba3   3.491588 S    
O17   C21   1.384776 S    
S7    O67   1.492830 D    
C41   C59   1.413692 A    
Ba2   O46   2.879222 S    
P6    Ba2   3.498362 S    
P11   O31   1.735551 S    
C18   H34   1.092325 S    
P16   C47   1.811803 S    
C21   C25   1.512845 S    
O23   P16   1.728869 S    
H2    C30   1.106217 S    
C17   H33   1.099843 S    
Ba3   O48   3.005370 S    
C14   C18   1.489875 S    
S5    O63   1.671117 S    
C41   C45   1.407499 A    
C36   H84   1.082245 S    
C51   C55   1.464252 A    
O21   P14   1.744274 S    
C19   H35   1.108767 S    
C38   C50   1.394062 A    
Ba1   O45   2.875656 S    
Ba3   O47   2.875656 S    
C40   H88   1.082460 S    
P2    C50   1.931832 S    
O40   C15   1.396685 S    
O3    Ba3   2.922987 S    
S7    O68   1.502016 D    
C26   H50   1.090306 S    
S7    O69   1.665090 S    
O60   H92   0.986366 S    
C42   H76   1.078738 S    
P10   O42   1.734085 S    
O69   H95   0.989162 S    
P12   O32   1.746124 S    
C11   H23   1.091424 S    
C16   H28   1.106841 S    
O19   C23   1.385402 S    
P3    O3    1.554941 D    
C10   H22   1.094152 S    
S4    O60   1.660975 S    
C2    S6    1.776987 S    
C26   H58   1.104173 S    
C20   H40   1.105534 S    
S6    O64   1.496475 D    
C4    H6    1.101637 S    
O12   Ba4   2.869923 S    
O57   H91   0.985652 S    
C35   C63   1.405222 A    
S1    O50   1.491310 D    
O29   Ba1   2.869298 S    
O21   C29   1.407233 S    
C9    H19   1.104888 S    
P7    O27   1.559336 D    
O42   C6    1.400943 S    
O8    Ba3   2.879271 S    
C72   H78   1.063491 S    
S8    O72   1.670147 S    
C10   H20   1.103854 S    
C11   H69   1.105434 S    
P12   C67   1.872559 S    
C23   C27   1.512452 S    
C3    H65   1.107966 S    
S4    O59   1.491272 D    
O22   C30   1.397773 S    
S3    O57   1.660276 S    
O43   C7    1.413972 S    
C9    H71   1.106344 S    
O30   Ba2   2.857667 S    
P3    C51   1.910594 S    
C6    C10   1.506951 S    
P1    Ba1   3.495943 S    
O9    P14   1.748118 S    
C38   H86   1.082776 S    
C3    C31   1.508346 S    
P3    O7    1.611553 S    
C30   H62   1.105857 S    
C37   H85   1.082107 S    
C38   C46   1.396983 A    
C21   H45   1.099080 S    
C39   C51   1.383728 A    
C22   C26   1.502473 S    
S8    O71   1.493855 D    
O38   C13   1.400363 S    
O72   H96   0.987052 S    
P7    C64   1.917660 S    
C34   C66   1.403092 A    
C35   H83   1.082081 S    
S3    O56   1.494530 D    
C16   C20   1.516793 S    
P6    C61   1.938028 S    
C33   C65   1.401143 A    
C25   H53   1.097085 S    
C12   H24   1.099688 S    
H4    C32   1.102370 S    
P5    C62   1.925586 S    
C53   C71   1.415860 A    
O23   C31   1.389900 S    
H3    C31   1.113738 S    
P7    O48   1.614831 S    
C14   H30   1.111107 S    
P1    C49   1.940979 S    
O63   H93   0.985874 S    
C55   C57   1.458336 A    
P2    O6    1.609587 S    
