data_mof_unit_57314.cif
_audit_creation_date              2012-12-11T16:31:31-0500
_audit_creation_method            fapswitch 2.2
_symmetry_space_group_name_H-M    P1
_symmetry_Int_Tables_number       1
_space_group_crystal_system       triclinic
_cell_length_a                    6.944039
_cell_length_b                    18.290282
_cell_length_c                    20.158831
_cell_angle_alpha                 68.32253
_cell_angle_beta                  90.624648
_cell_angle_gamma                 90.734876
_cell_volume                      2379.02070651

loop_
_atom_site_label
_atom_site_type_symbol
_atom_type_description
_atom_site_fract_x
_atom_site_fract_y
_atom_site_fract_z
_atom_type_partial_charge
O1    O     O_R   0.488990 0.443920 0.942160 -0.537794
O2    O     O_R   0.823840 0.406530 0.087600 -0.537698
O3    O     O_R   0.999650 0.556080 0.057840 -0.537942
C1    C     C_R   0.655173 0.383605 0.115113 0.698345
O4    O     O_R   0.818390 0.434590 0.944530 -0.538184
O5    O     O_R   0.994160 0.584350 0.913750 -0.536261
C2    C     C_R   0.648806 0.420491 0.924047 0.723200
O6    O     O_R   0.494480 0.415650 0.086250 -0.535493
O7    O     O_3   0.662600 0.549100 0.990070 -0.368301
V1    V     V_3+5 0.935320 0.490890 0.001840 1.422888
O8    O     O_R   0.324240 0.593470 0.912400 -0.538861
C3    C     C_R   0.155247 0.616469 0.884935 0.693277
O9    O     O_R   0.329690 0.565410 0.055470 -0.538661
C4    C     C_R   0.162039 0.579625 0.075887 0.724847
V2    V     V_3+5 0.435990 0.509110 0.998160 1.420626
O10   O     O_3   0.158840 0.450900 0.009930 -0.366092
C5    C     C_3   0.982345 0.675924 0.264463 -0.328214
C6    C     C_3   0.336226 0.706262 0.246274 -0.330430
C7    C     C_3   0.327307 0.754133 0.295962 -0.328656
H1    H     H_    0.998692 0.683850 0.370395 0.137202
H2    H     H_    0.012042 0.613148 0.297081 0.139163
H3    H     H_    0.453124 0.730509 0.206570 0.134550
H4    H     H_    0.373169 0.644096 0.278496 0.135224
H5    H     H_    0.359983 0.714762 0.351848 0.136070
H6    H     H_    0.439950 0.801164 0.279893 0.133289
C8    C     C_1   0.110874 0.874777 0.378320 -0.202087
C9    C     C_3   0.140923 0.709354 0.207147 0.293685
C10   C     C_3   0.973364 0.723821 0.314125 -0.329259
C11   C     C_3   0.125687 0.791242 0.292164 0.294071
C12   C     C_3   0.085757 0.844843 0.213359 -0.327991
C13   C     C_3   0.094611 0.796958 0.163658 -0.329464
C14   C     C_1   0.117293 0.837105 0.339741 -0.105514
C15   C     C_1   0.149284 0.663386 0.159638 -0.101418
C16   C     C_1   0.155547 0.625510 0.121215 -0.192329
H7    H     H_    0.954256 0.801286 0.135329 0.134894
H8    H     H_    0.206638 0.822983 0.122292 0.136753
H9    H     H_    0.941229 0.872012 0.208664 0.133402
H10   H     H_    0.839803 0.677880 0.238086 0.135031
H11   H     H_    0.826611 0.748630 0.311312 0.136492
H12   H     H_    0.193644 0.893649 0.195682 0.137752
H13   H     H_    0.434696 0.547304 0.693628 0.106989
C17   C     C_R   0.988744 0.764615 0.875462 -0.131427
C18   C     C_R   0.905670 0.834666 0.872574 -0.124856
C19   C     C_R   0.892632 0.897974 0.808018 -0.127321
C20   C     C_R   0.962786 0.891740 0.745867 -0.141608
C21   C     C_R   0.046013 0.821030 0.746866 0.068380
C22   C     C_R   0.059075 0.756061 0.813068 0.069736
C23   C     C_R   0.119445 0.814981 0.683679 -0.185741
C24   C     C_R   0.205512 0.743834 0.686744 0.069618
C25   C     C_R   0.218479 0.678849 0.752938 0.068376
C26   C     C_R   0.145181 0.684917 0.816137 -0.186670
C27   C     C_R   0.275856 0.735287 0.624350 -0.131514
C28   C     C_R   0.358701 0.665201 0.627220 -0.124753
C29   C     C_R   0.371499 0.601854 0.691758 -0.127456
C30   C     C_R   0.301444 0.608101 0.753916 -0.141265
H14   H     H_    0.998616 0.717751 0.927290 0.103733
H15   H     H_    0.852448 0.840023 0.920840 0.107187
H16   H     H_    0.829180 0.952487 0.806130 0.107039
H17   H     H_    0.952144 0.943262 0.697366 0.111267
H18   H     H_    0.266136 0.782179 0.572532 0.103520
H19   H     H_    0.411901 0.659844 0.578952 0.107326
H20   H     H_    0.311915 0.556551 0.802402 0.111250
H21   H     H_    0.590155 0.474567 0.313368 0.104453
C31   C     C_R   0.673113 0.225067 0.118970 -0.133896
C32   C     C_R   0.678199 0.149916 0.117456 -0.156764
C33   C     C_R   0.661334 0.084797 0.180146 -0.166118
C34   C     C_R   0.640198 0.093404 0.245920 0.185644
C35   C     C_R   0.637886 0.170339 0.249399 0.068704
C36   C     C_R   0.652681 0.237068 0.183920 0.028287
C37   C     C_R   0.619507 0.183018 0.315004 -0.187587
C38   C     C_R   0.611709 0.260897 0.314245 0.047208
C39   C     C_R   0.623482 0.326516 0.248623 0.071608
C40   C     C_R   0.644738 0.314645 0.183623 -0.169996
C41   C     C_R   0.592980 0.275006 0.378430 -0.132534
C42   C     C_R   0.585109 0.351358 0.377776 -0.117043
C43   C     C_R   0.596105 0.415338 0.313615 -0.125086
C44   C     C_R   0.615363 0.403413 0.249656 -0.138264
H22   H     H_    0.684911 0.273736 0.068310 0.100227
H23   H     H_    0.693892 0.142133 0.067094 0.117563
H24   H     H_    0.663578 0.026599 0.177759 0.108293
H25   H     H_    0.584285 0.227374 0.429864 0.084613
H26   H     H_    0.570602 0.360886 0.427388 0.104912
H27   H     H_    0.624342 0.455156 0.201176 0.099301
O11   O     O_R   0.770890 0.084490 0.414040 -0.531088
O12   O     O_R   0.445980 0.065450 0.555510 -0.540451
O13   O     O_R   0.270670 0.915620 0.586180 -0.537431
C45   C     C_R   0.615371 0.079595 0.576134 0.714115
O14   O     O_R   0.441480 0.093500 0.412450 -0.536938
O15   O     O_R   0.266140 0.943870 0.442100 -0.531144
C46   C     C_R   0.610046 0.115946 0.384684 0.792018
O16   O     O_R   0.775410 0.056240 0.558120 -0.541292
O17   O     O_3   0.602660 0.950990 0.510100 -0.363137
V3    V     V_3+5 0.329740 0.009100 0.498130 1.436762
O18   O     O_R   0.936120 0.934420 0.444240 -0.534727
C47   C     C_R   0.103960 0.920393 0.423845 0.727998
O19   O     O_R   0.940610 0.906370 0.587310 -0.539966
C48   C     C_R   0.109527 0.883446 0.614891 0.689256
V4    V     V_3+5 0.829110 0.990690 0.501470 1.438313
O20   O     O_3   0.106080 0.049010 0.489880 -0.370181
C49   C     C_3   0.829981 0.248983 0.706339 -0.330696
C50   C     C_3   0.475869 0.274185 0.683665 -0.326272
C51   C     C_3   0.476991 0.322151 0.733376 -0.329407
H28   H     H_    0.866359 0.359626 0.724262 0.137911
H29   H     H_    0.864622 0.288818 0.650871 0.137304
H30   H     H_    0.330782 0.247253 0.684563 0.136937
H31   H     H_    0.503309 0.314543 0.627737 0.135303
H32   H     H_    0.505044 0.385361 0.701150 0.133790
H33   H     H_    0.332478 0.318049 0.757926 0.136967
C52   C     C_1   0.638763 0.374777 0.878653 -0.193726
C53   C     C_3   0.630892 0.208986 0.707649 0.292479
C54   C     C_3   0.831087 0.296941 0.756052 -0.328406
C55   C     C_3   0.632783 0.290980 0.792658 0.293337
C56   C     C_3   0.589007 0.202757 0.835650 -0.328983
C57   C     C_3   0.587988 0.154787 0.785930 -0.327934
C58   C     C_1   0.634546 0.336953 0.840170 -0.102753
C59   C     C_1   0.629111 0.163031 0.660116 -0.103860
C60   C     C_1   0.625000 0.125248 0.621594 -0.189778
H34   H     H_    0.697694 0.107585 0.805033 0.133677
H35   H     H_    0.445143 0.125509 0.788789 0.137675
H36   H     H_    0.699158 0.178406 0.878464 0.135458
H37   H     H_    0.944399 0.203613 0.723897 0.135338
H38   H     H_    0.946137 0.274419 0.797251 0.135671
H39   H     H_    0.446632 0.196371 0.862139 0.136709
N1    N     N_3   0.617985 0.023091 0.307989 -0.667294
H40   H     H_    0.496162 0.992599 0.300704 0.219442
H41   H     H_    0.737985 0.987679 0.312095 0.223559

loop_
_geom_bond_atom_site_label_1
_geom_bond_atom_site_label_2
_ccdc_geom_bond_type
C49   C53   S    
C50   C51   S    
C32   H23   S    
C45   O16   A    
C51   C55   S    
C54   C55   S    
C1    O6    A    
C34   N1    S    
O17   V4    S    
C20   C21   A    
C9    C15   S    
C8    C14   T    
C23   C48   S    
C39   C44   A    
C10   C11   S    
C45   C60   S    
C11   C14   S    
O5    C3    A    
C12   C13   S    
H21   C43   S    
C44   H27   S    
V2    O10   S    
C30   H20   S    
C49   H29   S    
C59   C60   T    
H28   C54   S    
C6    C7    S    
C21   C22   A    
O13   C48   A    
C27   H18   S    
C17   H14   S    
O14   V3    S    
O12   V3    S    
C20   H17   S    
C19   H16   S    
C35   C36   A    
O19   V4    S    
C51   H33   S    
C37   C38   A    
O1    V2    S    
O7    V1    S    
V3    O20   S    
C57   H35   S    
C5    H10   S    
C33   C34   A    
C6    H3    S    
O9    C4    A    
C54   H38   S    
C37   C46   S    
O11   C46   A    
C8    C47   S    
C55   C56   S    
C15   C16   T    
O12   C45   A    
C50   H30   S    
C21   C23   A    
C41   C42   A    
C9    C13   S    
C34   C35   A    
C5    C9    S    
C43   C44   A    
O4    C2    A    
C18   H15   S    
C22   C26   A    
H1    C10   S    
C10   H11   S    
C50   C53   S    
C28   C29   A    
C5    H2    S    
C6    H4    S    
C12   H9    S    
O15   C47   A    
O2    C1    A    
C42   C43   A    
O5    V1    S    
C11   C12   S    
O13   V3    S    
C56   H36   S    
C56   H39   S    
C24   C27   A    
O19   C48   A    
C25   C26   A    
C12   H12   S    
C51   H32   S    
C31   C36   A    
C36   C40   A    
C1    C40   S    
C57   H34   S    
O3    C4    A    
C23   C24   A    
O14   C46   A    
V4    O20   S    
O6    V2    S    
O8    V2    S    
O9    V2    S    
C18   C19   A    
C13   H7    S    
C17   C18   A    
C41   H25   S    
C28   H19   S    
O2    V1    S    
C53   C59   S    
C3    C26   S    
C19   C20   A    
N1    H41   S    
C56   C57   S    
C50   H31   S    
C53   C57   S    
C29   C30   A    
C49   H37   S    
O1    C2    A    
C5    C10   S    
C31   H22   S    
C6    C9    S    
C39   C40   A    
C4    C16   S    
C38   C41   A    
O8    C3    A    
C42   H26   S    
C33   H24   S    
C25   C30   A    
O11   V4    S    
C31   C32   A    
C7    H5    S    
O7    V2    S    
C38   C39   A    
O3    V1    S    
V1    O10   S    
O17   V3    S    
C17   C22   A    
C32   C33   A    
O16   V4    S    
O15   V3    S    
O18   C47   A    
C7    H6    S    
H13   C29   S    
C52   C58   T    
C2    C52   S    
O4    V1    S    
C49   C54   S    
C35   C37   A    
C24   C25   A    
O18   V4    S    
C13   H8    S    
C55   C58   S    
C27   C28   A    
N1    H40   S    
C7    C11   S    
