data_mof_unit_17057.cif
_audit_creation_date              2012-12-10T19:46:24-0500
_audit_creation_method            fapswitch 2.2
_symmetry_space_group_name_H-M    P1
_symmetry_Int_Tables_number       1
_space_group_crystal_system       triclinic
_cell_length_a                    10.953269
_cell_length_b                    11.023288
_cell_length_c                    10.480198
_cell_angle_alpha                 91.58904
_cell_angle_beta                  90.823814
_cell_angle_gamma                 92.707047
_cell_volume                      1263.33588494

loop_
_atom_site_label
_atom_site_type_symbol
_atom_type_description
_atom_site_fract_x
_atom_site_fract_y
_atom_site_fract_z
_atom_type_partial_charge
C1    C     C_R   0.500465 0.261119 0.499221 0.786781
C2    C     C_R   0.496682 0.737863 0.501661 0.855713
C3    C     C_R   0.872337 0.500736 0.506023 -0.082272
C4    C     C_R   0.128269 0.503085 0.494851 -0.084347
C5    C     C_R   0.943580 0.521332 0.619910 0.025537
C6    C     C_R   0.057307 0.484324 0.381130 0.026281
C7    C     C_R   0.435861 0.194670 0.067668 0.229502
C8    C     C_R   0.716883 0.909178 0.906381 0.227666
C9    C     C_R   0.412220 0.143056 0.185016 -0.197543
C10   C     C_R   0.680823 0.921824 0.779587 -0.217727
C11   C     C_R   0.508937 0.108595 0.261991 0.001317
C12   C     C_R   0.561096 0.888137 0.738459 0.047612
C13   C     C_R   0.630421 0.123324 0.220835 0.532832
C14   C     C_R   0.478546 0.834398 0.824669 0.584721
C15   C     C_R   0.653269 0.173749 0.102001 -0.249053
C16   C     C_R   0.519445 0.809796 0.948251 -0.288162
C17   C     C_R   0.556778 0.211853 0.027509 -0.224532
C18   C     C_R   0.636506 0.850117 0.990149 -0.211097
C19   C     C_R   0.465342 0.930031 0.390918 0.118883
C20   C     C_R   0.512916 0.065865 0.616617 0.087305
C21   C     C_R   0.490827 0.870372 0.504714 -0.121298
C22   C     C_R   0.499174 0.126521 0.500273 -0.155669
C23   C     C_R   0.261583 0.500465 0.498304 0.803451
C24   C     C_R   0.738620 0.500930 0.501913 0.778702
C25   C     C_R   0.517514 0.939694 0.617593 0.008630
C26   C     C_R   0.484301 0.056077 0.386524 -0.012602
C27   C     C_1   0.500131 0.500787 0.072137 0.096809
C28   C     C_1   0.500001 0.500839 0.927915 0.061518
C29   C     C_R   0.200787 0.555541 0.063304 -0.163708
C30   C     C_R   0.796504 0.454472 0.936730 -0.202768
C31   C     C_R   0.170476 0.564926 0.191954 -0.075740
C32   C     C_R   0.825293 0.445671 0.807933 -0.094739
C33   C     C_R   0.107473 0.468232 0.250650 0.031014
C34   C     C_R   0.894453 0.539226 0.750982 0.044293
C35   C     C_R   0.075041 0.362387 0.177654 -0.232220
C36   C     C_R   0.937153 0.639945 0.827823 -0.231455
C37   C     C_R   0.100973 0.352615 0.047218 0.604910
C38   C     C_R   0.912042 0.648272 0.958879 0.569152
C39   C     C_R   0.166796 0.450724 0.990918 -0.219138
C40   C     C_R   0.837889 0.554505 0.011878 -0.222164
C41   C     C_R   0.930663 0.482332 0.389565 -0.281063
C42   C     C_R   0.070293 0.522160 0.611282 -0.253865
Cu1   Cu    Cu3+1 0.500000 0.500000 0.625300 0.977282
Cu2   Cu    Cu3+1 0.500000 0.500000 0.374700 0.985624
H1    H     H_    0.193693 0.447266 0.892204 0.135179
H2    H     H_    0.813366 0.555169 0.111225 0.132382
H3    H     H_    0.745823 0.183329 0.067631 0.180455
H4    H     H_    0.458168 0.764045 0.013300 0.151247
H5    H     H_    0.249532 0.630564 0.018944 0.168139
H6    H     H_    0.744620 0.381916 0.980035 0.147615
H7    H     H_    0.193369 0.648802 0.245128 0.145253
H8    H     H_    0.797629 0.363553 0.753777 0.128543
H9    H     H_    0.026390 0.287443 0.221980 0.139097
H10   H     H_    0.995328 0.710273 0.786590 0.140486
H11   H     H_    0.876883 0.467066 0.302619 0.155280
H12   H     H_    0.124562 0.536923 0.698054 0.169274
H13   H     H_    0.576282 0.255148 0.938893 0.149713
H14   H     H_    0.662508 0.838789 0.088626 0.153298
H15   H     H_    0.318811 0.130732 0.216744 0.152656
H16   H     H_    0.742301 0.969586 0.715824 0.150382
N1    N     N_1   0.500010 0.499990 0.186410 -0.142091
N2    N     N_1   0.499990 0.500010 0.813590 -0.148142
O1    O     O_R   0.499990 0.319650 0.605810 -0.604068
O2    O     O_R   0.500010 0.680350 0.394190 -0.555123
O3    O     O_R   0.499990 0.319640 0.394190 -0.569546
O4    O     O_R   0.500010 0.680360 0.605810 -0.560773
O5    O     O_R   0.319640 0.500010 0.605810 -0.577238
O6    O     O_R   0.680360 0.499990 0.394190 -0.593231
O7    O     O_R   0.319650 0.500010 0.394190 -0.573533
O8    O     O_R   0.680350 0.499990 0.605810 -0.578650
O9    O     O_3   0.724860 0.078599 0.291926 -0.600414
C43   C     C_3   0.794067 0.176887 0.349655 -0.319749
H17   H     H_    0.740936 0.222697 0.424771 0.156369
H18   H     H_    0.826166 0.243989 0.278968 0.153104
H19   H     H_    0.876068 0.141412 0.396331 0.182684
O10   O     O_3   0.360103 0.801050 0.786093 -0.580642
C44   C     C_3   0.280723 0.885860 0.837804 -0.345642
H20   H     H_    0.301673 0.977948 0.800644 0.162181
H21   H     H_    0.283757 0.888242 0.944084 0.168015
H22   H     H_    0.185826 0.858204 0.807404 0.198141
N3    N     N_3   0.422786 0.862247 0.278618 -0.576260
H23   H     H_    0.339664 0.895656 0.248683 0.204296
H24   H     H_    0.486481 0.875395 0.206929 0.225565
N4    N     N_3   0.529702 0.129752 0.736739 -0.600048
H25   H     H_    0.608208 0.187361 0.734191 0.234285
H26   H     H_    0.450803 0.175267 0.757386 0.230604
O11   O     O_3   0.062917 0.243682 0.984093 -0.577642
C45   C     C_3   0.066736 0.247644 0.849624 -0.349329
H27   H     H_    0.015686 0.165936 0.808884 0.194581
H28   H     H_    0.161704 0.245608 0.814901 0.158638
H29   H     H_    0.022759 0.327927 0.812782 0.166843
O12   O     O_3   0.968998 0.745724 0.028287 -0.610569
C46   C     C_3   0.933855 0.754769 0.157170 -0.361215
H30   H     H_    0.833960 0.763130 0.165871 0.165718
H31   H     H_    0.979358 0.837923 0.201407 0.200616
H32   H     H_    0.963562 0.676820 0.211831 0.179342
N5    N     N_3   0.335589 0.228131 0.990266 -0.575046
H33   H     H_    0.366124 0.281703 0.915552 0.199220
H34   H     H_    0.295684 0.147710 0.950275 0.221709
N6    N     N_3   0.830436 0.966913 0.950137 -0.574054
H35   H     H_    0.841837 0.957433 0.048387 0.259574
H36   H     H_    0.901320 0.924297 0.903898 0.248146

loop_
_geom_bond_atom_site_label_1
_geom_bond_atom_site_label_2
_ccdc_geom_bond_type
C38   C40   A    
C5    C42   A    
C46   H30   S    
C35   H9    S    
C23   O7    A    
C15   H3    S    
O11   C45   S    
C16   H4    S    
N5    H33   S    
Cu2   O3    S    
Cu1   O1    S    
C29   H5    S    
C44   H20   S    
Cu2   O2    S    
C40   H2    S    
C19   C21   A    
N4    H26   S    
C20   C25   A    
C38   O12   S    
C15   C17   A    
C23   O5    A    
C19   C26   A    
C32   H8    S    
C27   N1    T    
C42   H12   S    
C18   H14   S    
C41   H11   S    
C7    C17   A    
C6    C41   A    
C1    O3    A    
C31   C33   A    
C39   H1    S    
C30   H6    S    
C1    C22   S    
C46   H31   S    
C3    C24   S    
C43   H19   S    
C1    O1    A    
N5    H34   S    
C2    O2    A    
N3    H23   S    
C44   H21   S    
C24   O8    A    
N4    H25   S    
C43   H18   S    
C4    C23   S    
C13   O9    S    
C11   C26   S    
C3    C5    A    
C8    C18   A    
C9    H15   S    
C14   O10   S    
C10   H16   S    
Cu1   Cu2   S    
C45   H29   S    
C29   C31   A    
C5    C34   S    
C29   C39   A    
C2    C21   S    
N6    H36   S    
C30   C40   A    
Cu2   O7    S    
O10   C44   S    
C9    C11   A    
C10   C12   A    
C16   C18   A    
C45   H28   S    
C46   H32   S    
C20   N4    S    
C14   C16   A    
Cu2   O6    S    
C4    C6    A    
C20   C22   A    
C44   H22   S    
C7    C9    A    
C21   C25   A    
C3    C41   A    
C7    N5    S    
C35   C37   A    
C37   O11   S    
C8    C10   A    
C31   H7    S    
C43   H17   S    
C2    O4    A    
N3    H24   S    
Cu2   N1    S    
Cu1   O8    S    
C6    C33   S    
C12   C25   S    
C13   C15   A    
C12   C14   A    
O9    C43   S    
C37   C39   A    
C30   C32   A    
C11   C13   A    
C4    C42   A    
Cu1   O4    S    
C36   C38   A    
O12   C46   S    
C33   C35   A    
C34   C36   A    
C8    N6    S    
C36   H10   S    
C24   O6    A    
C45   H27   S    
Cu1   O5    S    
C22   C26   A    
C17   H13   S    
C27   C28   S    
N6    H35   S    
C19   N3    S    
Cu1   N2    S    
C32   C34   A    
C28   N2    T    
