data_mof_unit_41976.cif
_audit_creation_date              2012-12-10T18:48:43-0500
_audit_creation_method            fapswitch 2.2
_symmetry_space_group_name_H-M    P1
_symmetry_Int_Tables_number       1
_space_group_crystal_system       triclinic
_cell_length_a                    15.082855
_cell_length_b                    15.063112
_cell_length_c                    9.947478
_cell_angle_alpha                 90.002687
_cell_angle_beta                  90.1962
_cell_angle_gamma                 89.998445
_cell_volume                      2260.00136577

loop_
_atom_site_label
_atom_site_type_symbol
_atom_type_description
_atom_site_fract_x
_atom_site_fract_y
_atom_site_fract_z
_atom_type_partial_charge
C1    C     C_R   0.119725 0.380310 0.499941 1.076272
C2    C     C_R   0.999706 0.422088 0.928416 0.318239
C3    C     C_R   0.000325 0.422088 0.071571 0.318250
C4    C     C_R   0.999673 0.577911 0.928429 0.318257
C5    C     C_R   0.500294 0.077912 0.071583 0.318238
C6    C     C_R   0.499706 0.922088 0.928416 0.318235
C7    C     C_R   0.500327 0.922089 0.071571 0.318256
C8    C     C_R   0.499675 0.077911 0.928429 0.318252
C9    C     C_R   0.832143 0.233279 0.436859 0.307406
C10   C     C_R   0.167868 0.766711 0.563182 0.307436
C11   C     C_R   0.265288 0.669360 0.431510 0.260916
C12   C     C_R   0.880275 0.619690 0.500059 1.076279
C13   C     C_R   0.734696 0.330655 0.568441 0.260979
C14   C     C_R   0.167819 0.233250 0.563011 0.307523
C15   C     C_R   0.832178 0.766748 0.436983 0.307529
C16   C     C_R   0.734659 0.669312 0.568319 0.260832
C17   C     C_R   0.265345 0.330692 0.431692 0.260848
C18   C     C_R   0.332131 0.733290 0.436816 0.307458
C19   C     C_R   0.667857 0.266721 0.563140 0.307395
C20   C     C_R   0.765304 0.169345 0.431558 0.260971
C21   C     C_R   0.234712 0.830640 0.568487 0.260933
C22   C     C_R   0.667821 0.733252 0.563017 0.307526
C23   C     C_R   0.880277 0.380309 0.500056 1.076264
C24   C     C_R   0.332181 0.266750 0.436989 0.307528
C25   C     C_R   0.234655 0.169307 0.568307 0.260855
C26   C     C_R   0.765341 0.830688 0.431681 0.260830
C27   C     C_R   0.186025 0.686049 0.499669 -0.199051
C28   C     C_R   0.813974 0.313952 0.500328 -0.199034
C29   C     C_R   0.813973 0.686047 0.500332 -0.198976
C30   C     C_R   0.186027 0.313954 0.499670 -0.198989
C31   C     C_R   0.686026 0.186048 0.499672 -0.199033
C32   C     C_R   0.313975 0.813951 0.500331 -0.199051
C33   C     C_R   0.313973 0.186046 0.500329 -0.198988
C34   C     C_R   0.119722 0.619693 0.499943 1.076259
C35   C     C_R   0.686026 0.813953 0.499668 -0.198976
C36   C     C_R   0.619725 0.880310 0.499941 1.076281
C37   C     C_R   0.380275 0.119690 0.500058 1.076271
C38   C     C_R   0.380278 0.880307 0.500057 1.076264
C39   C     C_R   0.619723 0.119691 0.499943 1.076262
C40   C     C_R   0.000294 0.577912 0.071584 0.318232
Cl1   Cl    Cl    0.002830 0.679682 0.157523 -0.422702
Cl2   Cl    Cl    0.997170 0.320318 0.842477 -0.422662
Cl3   Cl    Cl    0.002900 0.320320 0.157493 -0.422647
Cl4   Cl    Cl    0.997091 0.679680 0.842509 -0.422690
Cl5   Cl    Cl    0.502829 0.179682 0.157523 -0.422669
Cl6   Cl    Cl    0.497170 0.820318 0.842477 -0.422699
Cl7   Cl    Cl    0.502909 0.820320 0.157491 -0.422704
Cl8   Cl    Cl    0.497100 0.179680 0.842507 -0.422637
H1    H     H_    0.928736 0.153129 0.391231 0.359155
H2    H     H_    0.571260 0.346868 0.608750 0.359156
H3    H     H_    0.816108 0.101001 0.285120 0.370099
H4    H     H_    0.183982 0.898930 0.715036 0.370049
H5    H     H_    0.571210 0.653088 0.608489 0.359169
H6    H     H_    0.428803 0.346911 0.391561 0.359130
H7    H     H_    0.183761 0.100870 0.714566 0.370136
H8    H     H_    0.816206 0.899101 0.285383 0.370117
H9    H     H_    0.071305 0.846865 0.608983 0.359205
H10   H     H_    0.315998 0.601080 0.284934 0.370031
H11   H     H_    0.683882 0.399007 0.714863 0.370108
H12   H     H_    0.071194 0.153091 0.608426 0.359126
H13   H     H_    0.928791 0.846914 0.391520 0.359154
H14   H     H_    0.683795 0.600900 0.714618 0.370113
H15   H     H_    0.316232 0.399125 0.285425 0.370132
H16   H     H_    0.428688 0.653131 0.390973 0.359221
N1    N     N_R   1.000000 0.500000 0.857200 -0.201554
N2    N     N_R   1.000000 0.500000 0.142800 -0.201554
N3    N     N_R   0.500000 0.000000 0.857200 -0.201555
N4    N     N_R   0.500000 0.000000 0.142800 -0.201553
O1    O     O_R   0.091610 0.408380 0.614620 -0.593517
O2    O     O_R   0.408390 0.091620 0.385380 -0.593519
O3    O     O_R   0.408390 0.091620 0.614620 -0.554415
O4    O     O_R   0.591610 0.908380 0.385380 -0.554410
O5    O     O_R   0.408390 0.908380 0.385380 -0.593497
O6    O     O_R   0.591610 0.091620 0.614620 -0.593490
O7    O     O_R   0.591610 0.091620 0.385380 -0.554377
O8    O     O_R   0.408390 0.908380 0.614620 -0.554365
O9    O     O_3   0.916602 0.217720 0.388734 -0.683185
O10   O     O_3   0.083414 0.782264 0.611334 -0.683153
O11   O     O_3   0.274580 0.591159 0.360535 -0.696666
O12   O     O_R   0.908390 0.591620 0.385380 -0.593519
O13   O     O_3   0.725391 0.408871 0.639374 -0.696678
O14   O     O_3   0.083335 0.217680 0.611024 -0.683253
O15   O     O_3   0.916663 0.782319 0.388973 -0.683226
O16   O     O_3   0.725317 0.591058 0.639132 -0.696740
O17   O     O_3   0.274690 0.408952 0.360891 -0.696727
O18   O     O_3   0.416586 0.717736 0.388665 -0.683144
O19   O     O_3   0.583398 0.282279 0.611268 -0.683186
O20   O     O_3   0.774608 0.091130 0.360621 -0.696676
O21   O     O_3   0.225421 0.908841 0.639463 -0.696674
O22   O     O_3   0.583336 0.717681 0.611025 -0.683227
O23   O     O_R   0.908390 0.591620 0.614620 -0.554410
O24   O     O_3   0.416666 0.282321 0.388977 -0.683256
O25   O     O_3   0.225309 0.091048 0.639106 -0.696734
O26   O     O_3   0.774684 0.908943 0.360870 -0.696738
O27   O     O_R   0.091610 0.408380 0.385380 -0.554418
O28   O     O_R   0.908390 0.408380 0.385380 -0.593491
O29   O     O_R   0.091610 0.591620 0.614620 -0.593490
O30   O     O_R   0.091610 0.591620 0.385380 -0.554375
O31   O     O_R   0.908390 0.408380 0.614620 -0.554374
O32   O     O_R   0.591610 0.908380 0.614620 -0.593521
Zn1   Zn    Zn3+2 1.000000 0.500000 0.653120 1.116251
Zn2   Zn    Zn3+2 1.000000 0.500000 0.346880 1.116245
Zn3   Zn    Zn3+2 0.500000 0.000000 0.653120 1.116251
Zn4   Zn    Zn3+2 0.500000 1.000000 0.346880 1.116248

loop_
_geom_bond_atom_site_label_1
_geom_bond_atom_site_label_2
_ccdc_geom_bond_type
C10   C27   A    
C26   O26   S    
C23   O31   A    
C11   C18   A    
C25   O25   S    
O28   Zn2   S    
C12   C29   S    
N2    Zn2   S    
C12   O23   A    
C35   C36   S    
N1    Zn1   S    
H7    O25   S    
C2    N1    A    
C19   C31   A    
C10   O10   S    
N3    Zn3   S    
C38   O8    A    
H8    O26   S    
C22   C35   A    
C3    Cl3   S    
C18   O18   S    
C17   O17   S    
C14   C30   A    
C19   O19   S    
C4    N1    A    
O2    Zn4   S    
C13   O13   S    
C16   O16   S    
C34   O29   A    
C23   O28   A    
C39   O6    A    
H14   O16   S    
C7    N4    A    
H12   O14   S    
O5    Zn4   S    
C4    C40   A    
C31   C39   S    
C13   C28   A    
C39   O7    A    
O27   Zn2   S    
O8    Zn3   S    
C10   C21   A    
C40   N2    A    
C37   O2    A    
H15   O17   S    
C17   C30   A    
H4    O21   S    
O23   Zn1   S    
C5    N4    A    
C24   O24   S    
H16   O18   S    
C15   C29   A    
C27   C34   S    
C21   C32   A    
C17   C24   A    
C13   C19   A    
N4    Zn4   S    
H13   O15   S    
C15   C26   A    
C21   O21   S    
O4    Zn4   S    
C16   C29   A    
O30   Zn2   S    
C5    Cl5   S    
O32   Zn3   S    
C1    O1    A    
O12   Zn2   S    
C7    Cl7   S    
C8    Cl8   S    
H6    O24   S    
C9    C20   A    
C11   C27   A    
C1    O27   A    
C22   O22   S    
C36   O32   A    
C9    O9    S    
C23   C28   S    
C11   O11   S    
H2    O19   S    
H10   O11   S    
C6    N3    A    
O31   Zn1   S    
C32   C38   S    
C37   O3    A    
O7    Zn4   S    
C3    N2    A    
C18   C32   A    
C14   O14   S    
O3    Zn3   S    
C40   Cl1   S    
C16   C22   A    
C6    Cl6   S    
H9    O10   S    
H11   O13   S    
H3    O20   S    
C5    C8    A    
C15   O15   S    
C6    C7    A    
O1    Zn1   S    
C4    Cl4   S    
C24   C33   A    
C2    C3    A    
C2    Cl2   S    
C12   O12   A    
C1    C30   S    
C34   O30   A    
H1    O9    S    
C14   C25   A    
C33   C37   S    
C26   C35   A    
C8    N3    A    
C20   O20   S    
H5    O22   S    
C38   O5    A    
O29   Zn1   S    
C36   O4    A    
C9    C28   A    
C25   C33   A    
O6    Zn3   S    
C20   C31   A    
