data_mof_unit_34147.cif
_audit_creation_date              2012-12-10T17:50:13-0500
_audit_creation_method            fapswitch 2.2
_symmetry_space_group_name_H-M    P1
_symmetry_Int_Tables_number       1
_space_group_crystal_system       triclinic
_cell_length_a                    10.61045
_cell_length_b                    14.700084
_cell_length_c                    14.681445
_cell_angle_alpha                 65.040379
_cell_angle_beta                  103.650371
_cell_angle_gamma                 102.644829
_cell_volume                      1998.8341631

loop_
_atom_site_label
_atom_site_type_symbol
_atom_type_description
_atom_site_fract_x
_atom_site_fract_y
_atom_site_fract_z
_atom_type_partial_charge
C1    C     C_R   0.482564 0.119582 0.312070 0.804974
C2    C     C_R   0.522032 0.880317 0.688301 0.822342
C3    C     C_R   0.501745 0.291007 0.178135 -0.317351
C4    C     C_R   0.547369 0.710866 0.824486 -0.321926
C5    C     C_R   0.531949 0.361577 0.083039 0.089010
C6    C     C_R   0.556860 0.641089 0.926468 0.089308
C7    C     C_R   0.541295 0.324525 0.010525 0.091247
C8    C     C_R   0.557181 0.677253 0.002016 0.091768
C9    C     C_R   0.548960 0.467791 0.057340 0.081793
C10   C     C_R   0.558865 0.535740 0.955004 0.081071
C11   C     C_R   0.569864 0.495785 0.885131 -0.219560
C12   C     C_R   0.557922 0.508169 0.131039 -0.224873
C13   C     C_R   0.562766 0.392158 0.913086 -0.202787
C14   C     C_R   0.562043 0.611007 0.103567 -0.204035
C15   C     C_R   0.739128 0.295197 0.650497 -0.334419
C16   C     C_R   0.267957 0.709175 0.342103 -0.328066
C17   C     C_R   0.699334 0.211167 0.624994 0.040648
C18   C     C_R   0.307372 0.793140 0.367734 0.074159
C19   C     C_R   0.511505 0.281735 0.515142 0.020135
C20   C     C_R   0.485530 0.716613 0.487957 0.002638
C21   C     C_R   0.549094 0.371407 0.534998 -0.026298
C22   C     C_R   0.450308 0.628361 0.465696 -0.026137
C23   C     C_R   0.259431 0.001783 0.497983 0.833489
C24   C     C_R   0.740533 0.998276 0.501812 0.806809
C25   C     C_R   0.664031 0.375181 0.606432 0.176992
C26   C     C_R   0.338831 0.626612 0.390739 0.162419
C27   C     C_R   0.478009 0.456775 0.486838 0.077027
C28   C     C_R   0.520977 0.542761 0.514326 0.079955
C29   C     C_R   0.633369 0.540399 0.589007 -0.249252
C30   C     C_R   0.366805 0.459727 0.411090 -0.241552
C31   C     C_R   0.703823 0.458756 0.633100 -0.213521
C32   C     C_R   0.298854 0.542842 0.364424 -0.208244
C33   C     C_3   0.008702 0.967544 0.427902 -0.297596
C34   C     C_3   0.991237 0.032209 0.571736 -0.288347
C35   C     C_3   0.943411 0.060759 0.406911 -0.316475
C36   C     C_3   0.056305 0.939000 0.592684 -0.311061
C37   C     C_3   0.876830 0.997487 0.501405 -0.090395
C38   C     C_3   0.123004 0.002382 0.498163 -0.087311
C39   C     C_3   0.941379 0.905935 0.521936 0.550453
C40   C     C_3   0.058324 0.093904 0.477398 0.568382
C41   C     C_R   0.492675 0.186792 0.205245 -0.146588
C42   C     C_R   0.538393 0.813131 0.797466 -0.160499
C43   C     C_R   0.528309 0.219937 0.036062 -0.276361
C44   C     C_R   0.549794 0.779326 0.975511 -0.268401
C45   C     C_R   0.507470 0.150835 0.133721 0.431037
C46   C     C_R   0.542449 0.848043 0.874401 0.453446
Cu1   Cu    Cu3+1 0.465750 0.918270 0.475680 0.946262
Cu2   Cu    Cu3+1 0.534250 0.081730 0.524320 0.947776
H1    H     H_    0.893167 0.109063 0.331908 0.129022
H2    H     H_    0.105004 0.889012 0.667610 0.150821
H3    H     H_    0.568562 0.724931 0.543606 0.151231
H4    H     H_    0.424388 0.271203 0.463638 0.150204
H5    H     H_    0.252576 0.856843 0.330589 0.139741
H6    H     H_    0.758394 0.150095 0.657803 0.115457
H7    H     H_    0.828516 0.297865 0.703914 0.140006
H8    H     H_    0.182288 0.708629 0.284853 0.146471
H9    H     H_    0.671051 0.601359 0.614490 0.148833
H10   H     H_    0.330274 0.399139 0.384962 0.148111
H11   H     H_    0.020101 0.941834 0.369648 0.148519
H12   H     H_    0.981218 0.059272 0.629450 0.145819
H13   H     H_    0.571942 0.364724 0.857308 0.152152
H14   H     H_    0.566290 0.638609 0.162224 0.148598
H15   H     H_    0.541908 0.686776 0.763739 0.169952
H16   H     H_    0.482377 0.315320 0.232574 0.169105
H17   H     H_    0.535796 0.191522 0.980607 0.155812
H18   H     H_    0.545491 0.805427 0.033376 0.143310
H19   H     H_    0.587093 0.542696 0.808557 0.140879
H20   H     H_    0.564493 0.462348 0.211408 0.146045
H21   H     H_    0.790799 0.461209 0.688794 0.136942
H22   H     H_    0.214201 0.541754 0.306496 0.148685
N1    N     N_R   0.585750 0.204560 0.560800 -0.176761
N2    N     N_R   0.414250 0.795440 0.439200 -0.188679
O1    O     O_R   0.454850 0.022100 0.338110 -0.551243
O2    O     O_R   0.545150 0.977900 0.661890 -0.564271
O3    O     O_R   0.512700 0.160150 0.379180 -0.594012
O4    O     O_R   0.487300 0.839850 0.620820 -0.591406
O5    O     O_R   0.287930 0.931000 0.479440 -0.603253
O6    O     O_R   0.712070 0.069000 0.520560 -0.607950
O7    O     O_R   0.345780 0.069050 0.520520 -0.548124
O8    O     O_R   0.654220 0.930950 0.479480 -0.562149
O9    O     O_3   0.870685 0.807713 0.544815 -0.624251
C47   C     C_3   0.954869 0.735664 0.567403 0.038096
H23   H     H_    0.929880 0.669493 0.636881 0.159857
H24   H     H_    0.061046 0.762569 0.584707 0.141913
C48   C     C_3   0.932469 0.700430 0.479788 -0.351372
H25   H     H_    0.826770 0.673930 0.461948 0.239713
H26   H     H_    0.962706 0.764618 0.410928 0.212141
C49   C     C_3   0.011084 0.614609 0.506493 -0.894730
H27   H     H_    0.117361 0.639722 0.523857 0.265088
H28   H     H_    0.994096 0.591940 0.440917 0.253013
H29   H     H_    0.980187 0.547809 0.573383 0.253560
O10   O     O_3   0.128196 0.192481 0.453363 -0.620793
C50   C     C_3   0.046691 0.261862 0.443221 0.040976
H30   H     H_    0.103247 0.310317 0.484248 0.171224
H31   H     H_    0.955867 0.225843 0.477650 0.143667
C51   C     C_3   0.010216 0.329641 0.330857 -0.347367
H32   H     H_    0.100678 0.370104 0.298056 0.217046
H33   H     H_    0.955776 0.282747 0.287777 0.213502
C52   C     C_3   0.925051 0.406982 0.317941 -0.912956
H34   H     H_    0.832177 0.367869 0.347655 0.264931
H35   H     H_    0.901009 0.455380 0.235903 0.259154
H36   H     H_    0.977852 0.456103 0.359198 0.251054
O11   O     O_3   0.520548 0.945361 0.850986 -0.600822
C53   C     C_3   0.641188 0.009518 0.851845 0.102045
H37   H     H_    0.620965 0.086689 0.798277 0.186154
H38   H     H_    0.717195 0.989877 0.824489 0.114556
C54   C     C_3   0.693486 0.013024 0.956879 -0.402786
H39   H     H_    0.614208 0.028055 0.984169 0.242105
H40   H     H_    0.725606 0.939308 0.011357 0.216958
C55   C     C_3   0.809721 0.096214 0.952525 -0.935040
H41   H     H_    0.888469 0.084661 0.921842 0.260523
H42   H     H_    0.849636 0.094298 0.030243 0.254534
H43   H     H_    0.778594 0.171766 0.903430 0.254871
O12   O     O_3   0.494552 0.048358 0.156291 -0.599051
C56   C     C_3   0.619524 0.016356 0.194450 0.059825
H44   H     H_    0.663044 0.028087 0.266158 0.146860
H45   H     H_    0.687030 0.058858 0.137995 0.129279
C57   C     C_3   0.605230 0.903579 0.216884 -0.279716
H46   H     H_    0.537290 0.860830 0.272574 0.244057
H47   H     H_    0.562765 0.890779 0.145920 0.203716
C58   C     C_3   0.736370 0.863212 0.260299 -0.971328
H48   H     H_    0.807450 0.905668 0.206868 0.254335
H49   H     H_    0.722813 0.781942 0.272892 0.253705
H50   H     H_    0.775688 0.870543 0.334245 0.291803

loop_
_geom_bond_atom_site_label_1
_geom_bond_atom_site_label_2
_ccdc_geom_bond_type
C25   C31   A    
C38   C40   S    
C26   C32   A    
C50   H30   S    
C34   C37   S    
C19   N1    A    
C53   H38   S    
O12   C56   S    
C36   H2    S    
C3    H16   S    
C12   H20   S    
C4    H15   S    
C33   C39   S    
C34   C40   S    
Cu2   O7    S    
C28   C29   A    
C35   C37   S    
Cu1   O4    S    
C20   H3    S    
C20   C22   A    
C15   C25   A    
C56   H44   S    
C14   H14   S    
C51   C52   S    
C42   C46   A    
Cu2   O6    S    
C55   H41   S    
C58   H50   S    
C18   H5    S    
C57   H46   S    
C44   H18   S    
C45   O12   S    
C24   O8    A    
Cu1   Cu2   S    
C44   C46   A    
C56   H45   S    
C51   H33   S    
C35   H1    S    
C54   H39   S    
C7    C43   A    
C9    C10   A    
C2    O2    A    
C21   C27   A    
C33   H11   S    
C22   C28   A    
C27   C30   A    
C34   H12   S    
C54   H40   S    
Cu2   O3    S    
Cu1   O8    S    
C19   H4    S    
C53   H37   S    
C11   H19   S    
O9    C47   S    
C57   H47   S    
C48   H26   S    
C18   N2    A    
C37   C39   S    
C1    O3    A    
Cu2   O2    S    
C39   O9    S    
C4    C6    A    
C5    C7    A    
C32   H22   S    
C48   H25   S    
C23   O5    A    
C57   C58   S    
C15   H7    S    
C16   H8    S    
C5    C9    A    
C52   H34   S    
C49   H29   S    
C7    C13   A    
C43   H17   S    
C56   C57   S    
C51   H32   S    
C24   C37   S    
C40   O10   S    
C43   C45   A    
C55   H43   S    
Cu1   O1    S    
C58   H48   S    
C24   O6    A    
C52   H35   S    
C29   H9    S    
C17   N1    A    
C50   C51   S    
C47   H24   S    
C54   C55   S    
Cu1   O5    S    
Cu2   N1    S    
C23   C38   S    
O11   C53   S    
C2    O4    A    
C48   C49   S    
C1    C41   S    
C15   C17   A    
C21   C25   A    
C3    C41   A    
C8    C14   A    
C19   C21   A    
C36   C39   S    
C8    C44   A    
C49   H28   S    
C3    C5    A    
C16   C26   A    
C6    C10   A    
C6    C8    A    
C47   C48   S    
C46   O11   S    
C33   C38   S    
C1    O1    A    
C36   C38   S    
C35   C40   S    
C12   C14   A    
C29   C31   A    
C30   C32   A    
C11   C13   A    
C50   H31   S    
C4    C42   A    
C2    C42   S    
C30   H10   S    
O10   C50   S    
C33   C35   S    
C34   C36   S    
C9    C12   A    
C55   H42   S    
Cu1   N2    S    
C58   H49   S    
C10   C11   A    
C31   H21   S    
C52   H36   S    
C13   H13   S    
C49   H27   S    
C16   C18   A    
C47   H23   S    
C22   C26   A    
C27   C28   A    
C41   C45   A    
C20   N2    A    
C23   O7    A    
C17   H6    S    
C53   C54   S    
