data_mof_unit_13690.cif
_audit_creation_date              2012-12-10T17:44:35-0500
_audit_creation_method            fapswitch 2.2
_symmetry_space_group_name_H-M    P1
_symmetry_Int_Tables_number       1
_space_group_crystal_system       triclinic
_cell_length_a                    9.913335
_cell_length_b                    10.656993
_cell_length_c                    15.388702
_cell_angle_alpha                 90.348023
_cell_angle_beta                  68.705057
_cell_angle_gamma                 89.491134
_cell_volume                      1514.62331695

loop_
_atom_site_label
_atom_site_type_symbol
_atom_type_description
_atom_site_fract_x
_atom_site_fract_y
_atom_site_fract_z
_atom_type_partial_charge
C1    C     C_R   0.502166 0.739226 0.495000 0.857886
C2    C     C_R   0.663385 0.329506 0.063966 0.111771
C3    C     C_R   0.543623 0.412207 0.105477 0.007961
C4    C     C_R   0.410034 0.494925 0.676358 0.854455
C5    C     C_R   0.773687 0.319422 0.101468 0.446119
C6    C     C_R   0.758764 0.386332 0.183671 -0.332517
C7    C     C_R   0.539624 0.485304 0.181642 -0.267517
C8    C     C_R   0.426254 0.868814 0.350922 -0.181693
C9    C     C_R   0.389034 0.934435 0.284557 -0.134200
C10   C     C_R   0.391932 0.064952 0.283524 -0.131936
C11   C     C_R   0.431666 0.130452 0.349025 -0.189115
C12   C     C_R   0.379824 0.419607 0.925829 0.044097
C13   C     C_R   0.467242 0.065606 0.417953 0.100166
C14   C     C_R   0.464869 0.933694 0.418844 0.102414
C15   C     C_R   0.507017 0.871368 0.486000 -0.096094
C16   C     C_R   0.503744 0.260555 0.494447 0.866580
C17   C     C_R   0.561291 0.935522 0.544776 -0.214073
C18   C     C_R   0.565701 0.063005 0.542584 -0.216677
C19   C     C_R   0.511707 0.127987 0.484065 -0.105763
C20   C     C_R   0.794001 0.669691 0.616955 -0.140196
C21   C     C_R   0.831886 0.752511 0.674253 -0.216374
C22   C     C_R   0.970895 0.750415 0.675117 -0.203042
C23   C     C_R   0.243455 0.477180 0.974616 0.167755
C24   C     C_R   0.073063 0.666074 0.618195 -0.173555
C25   C     C_R   0.039631 0.583130 0.557413 0.162223
C26   C     C_R   0.895256 0.583937 0.557034 0.198969
C27   C     C_R   0.960205 0.420286 0.445110 -0.121437
C28   C     C_R   0.589816 0.497613 0.324068 0.868493
C29   C     C_R   0.103370 0.420515 0.444973 -0.127014
C30   C     C_R   0.353155 0.479358 0.778790 -0.103586
C31   C     C_R   0.638710 0.465315 0.225190 -0.100127
C32   C     C_R   0.156626 0.518887 0.926383 -0.171408
C33   C     C_R   0.210352 0.518287 0.829484 -0.221084
C34   C     C_R   0.459751 0.371194 0.978714 0.062529
C35   C     C_R   0.439353 0.428391 0.826866 -0.086463
C36   C     C_R   0.595502 0.399011 0.776084 0.138660
C37   C     C_R   0.702579 0.469639 0.793113 -0.121737
C38   C     C_R   0.847869 0.432202 0.754035 -0.120010
C39   C     C_R   0.887890 0.326893 0.695318 -0.116782
C40   C     C_R   0.782264 0.257822 0.676549 -0.141442
C41   C     C_R   0.636354 0.293209 0.717524 -0.112236
C42   C     C_R   0.433166 0.422246 0.067861 0.093175
C43   C     C_R   0.297181 0.480109 0.115575 -0.238513
C44   C     C_R   0.199838 0.499854 0.070537 -0.242192
C45   C     C_R   0.565751 0.275566 0.945981 -0.249646
C46   C     C_R   0.667934 0.256246 0.987168 -0.178083
H1    H     H_    0.095390 0.542845 0.108981 0.152804
H2    H     H_    0.751842 0.817078 0.719618 0.143131
H3    H     H_    0.454365 0.554111 0.211994 0.157123
H4    H     H_    0.999334 0.813254 0.721145 0.152411
H5    H     H_    0.175892 0.666838 0.625187 0.205828
H6    H     H_    0.183033 0.355536 0.399969 0.148867
H7    H     H_    0.835207 0.370524 0.218116 0.153422
H8    H     H_    0.752210 0.186201 0.957143 0.199982
H9    H     H_    0.049746 0.558293 0.963569 0.142322
H10   H     H_    0.142861 0.556519 0.794153 0.148572
H11   H     H_    0.262204 0.506795 0.188331 0.150477
H12   H     H_    0.597712 0.886901 0.594105 0.145315
H13   H     H_    0.571136 0.216119 0.887801 0.163483
H14   H     H_    0.958445 0.246275 0.093532 0.335309
H15   H     H_    0.672803 0.550912 0.839021 0.128388
H16   H     H_    0.929420 0.485175 0.769009 0.138259
H17   H     H_    0.000684 0.298874 0.664444 0.147646
H18   H     H_    0.813371 0.175655 0.631759 0.131323
H19   H     H_    0.553231 0.237012 0.707349 0.102990
H20   H     H_    0.427810 0.767565 0.346597 0.152861
H21   H     H_    0.360134 0.883717 0.232794 0.136927
H22   H     H_    0.365552 0.115613 0.230892 0.141754
H23   H     H_    0.438075 0.231406 0.343175 0.152226
H24   H     H_    0.608077 0.110760 0.588685 0.147696
H25   H     H_    0.932325 0.355098 0.400313 0.143974
H26   H     H_    0.683626 0.674301 0.623797 0.195626
N1    N     N_R   0.856800 0.501200 0.500850 -0.114358
N2    N     N_R   0.142390 0.501280 0.500880 -0.122303
O1    O     O_R   0.385310 0.683220 0.500000 -0.638118
O2    O     O_R   0.614640 0.683250 0.500010 -0.630185
O3    O     O_R   0.319840 0.499980 0.632240 -0.630813
O4    O     O_R   0.549160 0.500000 0.632250 -0.615987
O5    O     O_R   0.385360 0.316750 0.499990 -0.617857
O6    O     O_R   0.614690 0.316780 0.500000 -0.611406
O7    O     O_R   0.450840 0.500000 0.367750 -0.626936
O8    O     O_R   0.680160 0.500020 0.367760 -0.608747
O9    O     O_3   0.891068 0.240518 0.059277 -0.787043
Zn1   Zn    Zn3+2 0.346880 0.499980 0.499990 0.916521
Zn2   Zn    Zn3+2 0.653120 0.500020 0.500010 0.939777

loop_
_geom_bond_atom_site_label_1
_geom_bond_atom_site_label_2
_ccdc_geom_bond_type
C18   H24   S    
C3    C42   A    
C8    H20   S    
C27   C29   A    
C35   C36   S    
C34   C42   A    
C45   C46   A    
C2    C46   A    
C12   C23   A    
O6    Zn2   S    
C30   C35   A    
C5    C6    A    
C36   C37   A    
C18   C19   A    
C3    C7    A    
O5    Zn1   S    
C5    O9    S    
H14   O9    S    
O1    Zn1   S    
C26   N1    A    
C25   N2    A    
C8    C9    A    
C1    C15   S    
C13   C14   A    
C9    C10   A    
C32   H9    S    
C44   H1    S    
C17   H12   S    
C22   H4    S    
C21   H2    S    
C24   H5    S    
C6    C31   A    
C21   C22   A    
C36   C41   A    
C7    C31   A    
C13   C19   A    
C28   O8    A    
C1    O1    A    
C24   C25   A    
C7    H3    S    
C39   C40   A    
C41   H19   S    
C29   N2    A    
O3    Zn1   S    
C25   C26   A    
C23   C44   A    
C16   O6    A    
C43   C44   A    
C9    H21   S    
C4    O4    A    
C37   C38   A    
C46   H8    S    
C17   C18   A    
C34   C45   A    
C12   C35   A    
N1    Zn2   S    
O4    Zn2   S    
C40   C41   A    
C22   C24   A    
C2    C5    A    
C42   C43   A    
C6    H7    S    
C12   C34   A    
O7    Zn1   S    
C27   H25   S    
C15   C17   A    
C45   H13   S    
C8    C14   A    
C30   C33   A    
C28   O7    A    
C1    O2    A    
C28   C31   S    
N2    Zn1   S    
C37   H15   S    
C11   H23   S    
C10   H22   S    
O8    Zn2   S    
C39   H17   S    
C40   H18   S    
C16   O5    A    
C23   C32   A    
C2    C3    A    
C4    O3    A    
C32   C33   A    
C11   C13   A    
C38   C39   A    
C20   C26   A    
C33   H10   S    
C16   C19   S    
C10   C11   A    
C43   H11   S    
C20   C21   A    
C14   C15   A    
C20   H26   S    
C27   N1    A    
O2    Zn2   S    
C4    C30   S    
C38   H16   S    
C29   H6    S    
