data_mof_unit_67911.cif
_audit_creation_date              2012-12-10T18:42:35-0500
_audit_creation_method            fapswitch 2.2
_symmetry_space_group_name_H-M    P1
_symmetry_Int_Tables_number       1
_space_group_crystal_system       triclinic
_cell_length_a                    8.641925
_cell_length_b                    10.707867
_cell_length_c                    9.935019
_cell_angle_alpha                 87.83472
_cell_angle_beta                  98.533999
_cell_angle_gamma                 91.385181
_cell_volume                      908.364103047

loop_
_atom_site_label
_atom_site_type_symbol
_atom_type_description
_atom_site_fract_x
_atom_site_fract_y
_atom_site_fract_z
_atom_type_partial_charge
C1    C     C_R   0.506838 0.260223 0.503520 0.899916
C2    C     C_R   0.506497 0.739966 0.499431 0.898376
C3    C     C_R   0.202038 0.498111 0.464997 0.907211
C4    C     C_R   0.798099 0.501768 0.534702 0.951932
C5    C     C_2   0.038694 0.477619 0.451588 -0.120624
C6    C     C_2   0.960839 0.523299 0.547012 -0.115653
C7    C     C_R   0.588125 0.071277 0.408202 -0.389453
C8    C     C_R   0.472047 0.930103 0.613275 -0.372222
C9    C     C_R   0.597544 0.942955 0.410085 0.506014
C10   C     C_R   0.492408 0.057044 0.626323 0.528419
C11   C     C_R   0.520579 0.872886 0.502962 -0.196369
C12   C     C_R   0.526736 0.128028 0.512477 -0.213495
C13   C     C_R   0.583693 0.587158 0.077847 -0.069709
C14   C     C_R   0.400086 0.422576 0.917525 -0.050803
C15   C     C_R   0.593462 0.581727 0.937197 0.512169
C16   C     C_R   0.405805 0.417267 0.063723 0.445497
H1    H     H_    0.634915 0.126227 0.329101 0.179373
H2    H     H_    0.424557 0.876715 0.693153 0.199110
N1    N     N_R   0.499960 0.499970 0.857200 -0.150798
N2    N     N_R   0.500040 0.500030 0.142800 -0.153464
O1    O     O_R   0.499990 0.316750 0.614620 -0.553532
O2    O     O_R   0.500010 0.683250 0.385380 -0.631534
O3    O     O_R   0.499990 0.316780 0.385290 -0.618116
O4    O     O_R   0.500010 0.683220 0.614710 -0.586760
O5    O     O_R   0.271750 0.499990 0.587840 -0.605865
O6    O     O_R   0.728250 0.500010 0.412160 -0.625403
O7    O     O_R   0.271750 0.500010 0.358510 -0.580574
O8    O     O_R   0.728250 0.499990 0.641490 -0.633754
Zn1   Zn    Zn3+2 0.500000 0.499980 0.653120 0.977566
Zn2   Zn    Zn3+2 0.500000 0.500020 0.346880 0.953644
N3    N     N_3   0.966760 0.393677 0.349420 -0.444905
H3    H     H_    0.024896 0.308587 0.364053 0.177027
H4    H     H_    0.982827 0.431318 0.253742 0.211074
N4    N     N_3   0.026817 0.613918 0.643790 -0.519695
H5    H     H_    0.096385 0.570010 0.726059 0.228917
H6    H     H_    0.090129 0.683230 0.597138 0.185079
O9    O     O_3   0.689615 0.888116 0.327761 -0.669472
C17   C     C_3   0.843602 0.875021 0.399157 0.081416
H7    H     H_    0.890676 0.786240 0.369442 0.155821
H8    H     H_    0.849627 0.867561 0.512403 0.122398
C18   C     C_3   0.949250 0.982550 0.358949 -0.364052
H9    H     H_    0.941046 0.988756 0.246289 0.233981
H10   H     H_    0.910196 0.072170 0.394049 0.215120
C19   C     C_3   0.119135 0.962967 0.421946 -0.954745
H11   H     H_    0.129321 0.957018 0.534781 0.268373
H12   H     H_    0.192417 0.043041 0.392341 0.267898
H13   H     H_    0.163425 0.875722 0.385461 0.259270
O10   O     O_3   0.472795 0.111383 0.746768 -0.631592
C20   C     C_3   0.588341 0.068600 0.854886 0.090826
H14   H     H_    0.656241 0.986349 0.832473 0.152717
H15   H     H_    0.527730 0.037293 0.941392 0.121396
C21   C     C_3   0.703017 0.174862 0.902542 -0.355739
H16   H     H_    0.637983 0.261373 0.911146 0.224869
H17   H     H_    0.766103 0.149325 0.005382 0.167519
C22   C     C_3   0.823771 0.200170 0.806620 -0.821765
H18   H     H_    0.898748 0.117490 0.805721 0.239078
H19   H     H_    0.897835 0.282251 0.841306 0.223745
H20   H     H_    0.767271 0.221840 0.701465 0.272497
N5    N     N_3   0.645035 0.695360 0.146129 -0.405900
H21   H     H_    0.708146 0.666727 0.239006 0.247161
H22   H     H_    0.549285 0.748206 0.160490 0.256595
N6    N     N_3   0.282304 0.355464 0.830933 -0.368177
H23   H     H_    0.173087 0.375422 0.857128 0.163774
H24   H     H_    0.301209 0.259936 0.844152 0.230667
O11   O     O_3   0.674500 0.676064 0.877493 -0.621148
C23   C     C_3   0.834433 0.646017 0.886906 0.115126
H25   H     H_    0.877454 0.700811 0.803106 0.195421
H26   H     H_    0.852939 0.544960 0.872669 0.141564
C24   C     C_3   0.933538 0.686436 0.019938 -0.418676
H27   H     H_    0.903078 0.782817 0.042651 0.249157
H28   H     H_    0.910902 0.621534 0.104713 0.223536
C25   C     C_3   0.108268 0.682135 0.011188 -0.940319
H29   H     H_    0.140886 0.585823 0.990682 0.270785
H30   H     H_    0.176718 0.710176 0.109372 0.280210
H31   H     H_    0.138665 0.747063 0.928836 0.262563
O12   O     O_3   0.296999 0.346013 0.124003 -0.617237
C26   C     C_3   0.323556 0.216399 0.117773 0.089400
H32   H     H_    0.368944 0.179434 0.220649 0.187816
H33   H     H_    0.410575 0.192679 0.051172 0.104920
C27   C     C_3   0.168028 0.148217 0.074631 -0.377093
H34   H     H_    0.089344 0.161550 0.151585 0.223888
H35   H     H_    0.111061 0.188369 0.976352 0.225183
C28   C     C_3   0.190333 0.008971 0.059210 -0.967114
H36   H     H_    0.259341 0.993993 0.975688 0.272292
H37   H     H_    0.074117 0.962769 0.033245 0.270020
H38   H     H_    0.251084 0.965759 0.155445 0.277432

loop_
_geom_bond_atom_site_label_1
_geom_bond_atom_site_label_2
_ccdc_geom_bond_type
C23   H26   S    
C22   H18   S    
C1    O1    A    
C18   H9    S    
C20   H14   S    
N2    Zn2   S    
C26   H32   S    
C19   H11   S    
C15   N1    A    
O9    C17   S    
O8    Zn1   S    
C10   O10   S    
C27   C28   S    
C5    C6    D    
C23   C24   S    
C14   N6    S    
N4    H5    S    
C24   H28   S    
O4    Zn1   S    
N6    H24   S    
C28   H36   S    
C19   H12   S    
C20   H15   S    
C2    O2    A    
N3    H4    S    
C19   H13   S    
C23   H25   S    
N5    H21   S    
O7    Zn2   S    
C18   H10   S    
C1    C12   S    
C25   H31   S    
C2    C11   S    
C4    O8    A    
C21   H17   S    
C26   H33   S    
O5    Zn1   S    
C7    C12   A    
N5    H22   S    
O3    Zn2   S    
C3    O5    A    
O12   C26   S    
C17   C18   S    
C27   H35   S    
C25   H29   S    
C7    H1    S    
O1    Zn1   S    
C8    H2    S    
C6    N4    S    
C24   C25   S    
N6    H23   S    
N3    H3    S    
C13   C15   A    
C16   N2    A    
C20   C21   S    
C9    O9    S    
C9    C11   A    
C10   C12   A    
C25   H30   S    
O10   C20   S    
C28   H37   S    
O6    Zn2   S    
C22   H19   S    
C2    O4    A    
C18   C19   S    
C14   C16   A    
C4    C6    S    
N1    Zn1   S    
C21   H16   S    
C26   C27   S    
C7    C9    A    
O2    Zn2   S    
C13   N2    A    
C16   O12   S    
C14   N1    A    
C27   H34   S    
C3    C5    S    
C4    O6    A    
C21   C22   S    
C1    O3    A    
C13   N5    S    
C3    O7    A    
C17   H8    S    
C17   H7    S    
C8    C11   A    
N4    H6    S    
C24   H27   S    
C28   H38   S    
C8    C10   A    
O11   C23   S    
C22   H20   S    
C5    N3    S    
C15   O11   S    
