data_mof_unit_32401.cif
_audit_creation_date              2012-10-26T18:56:27-0400
_audit_creation_method            fapswitch 2.2
_symmetry_space_group_name_H-M    P1
_symmetry_Int_Tables_number       1
_space_group_crystal_system       triclinic
_cell_length_a                    10.672176
_cell_length_b                    10.662892
_cell_length_c                    9.417053
_cell_angle_alpha                 89.943772
_cell_angle_beta                  90.107329
_cell_angle_gamma                 90.264636
_cell_volume                      1071.61159486

loop_
_atom_site_label
_atom_site_type_symbol
_atom_type_description
_atom_site_fract_x
_atom_site_fract_y
_atom_site_fract_z
_atom_type_partial_charge
C1    C     C_R   0.501242 0.259577 0.499985 0.616050
C2    C     C_3   0.421893 0.417611 0.050515 -0.006155
C3    C     C_R   0.259703 0.499860 0.499433 0.615203
C4    C     C_R   0.740297 0.500138 0.500567 0.615205
C5    C     C_3   0.044300 0.459864 0.626401 -0.167390
C6    C     C_3   0.955699 0.540132 0.373598 -0.167385
C7    C     C_3   0.959253 0.383467 0.525011 0.017283
C8    C     C_3   0.040746 0.616529 0.474988 0.017282
C9    C     C_3   0.876706 0.499436 0.502838 -0.034041
C10   C     C_3   0.123294 0.500560 0.497161 -0.034050
C11   C     C_3   0.960833 0.576330 0.602965 0.028054
C12   C     C_R   0.498759 0.740423 0.500015 0.616059
C13   C     C_3   0.039167 0.423666 0.397034 0.028051
C14   C     C_3   0.519970 0.041692 0.633318 -0.159509
C15   C     C_3   0.480032 0.958309 0.366682 -0.159519
C16   C     C_3   0.610441 0.956679 0.547987 -0.169039
C17   C     C_3   0.389562 0.043322 0.452013 -0.169057
C18   C     C_3   0.497747 0.877048 0.500216 0.053793
C19   C     C_3   0.502255 0.122953 0.499784 0.053788
C20   C     C_2   0.916954 0.253378 0.561728 0.625522
C21   C     C_2   0.083040 0.746618 0.438270 0.625515
C22   C     C_2   0.917700 0.658570 0.721959 0.624703
C23   C     C_3   0.408328 0.960528 0.584352 0.016804
C24   C     C_2   0.082300 0.341428 0.278039 0.624711
C25   C     C_2   0.303152 0.922419 0.680683 0.260329
C26   C     C_2   0.696849 0.077585 0.319317 0.260335
C27   C     C_3   0.591674 0.039473 0.415648 0.016799
C28   C     C_3   0.468026 0.608561 0.050222 -0.002638
C29   C     C_3   0.531974 0.391439 0.949778 -0.002643
C30   C     C_3   0.390001 0.526133 0.949215 0.014220
C31   C     C_3   0.609999 0.473867 0.050784 0.014215
C32   C     C_3   0.578107 0.582389 0.949485 -0.006147
Cu1   Cu    Cu3+1 0.500030 0.499990 0.643150 1.021184
Cu2   Cu    Cu3+1 0.499970 0.500010 0.356850 1.021172
H1    H     H_    0.082009 0.426570 0.729738 0.169512
H2    H     H_    0.559327 0.300016 0.903138 0.124874
H3    H     H_    0.643805 0.651640 0.902021 0.131043
H4    H     H_    0.356195 0.348359 0.097979 0.131042
H5    H     H_    0.780993 0.143089 0.641597 0.330783
H6    H     H_    0.219010 0.856918 0.358440 0.330784
H7    H     H_    0.815680 0.807453 0.782215 0.324095
H8    H     H_    0.184317 0.192543 0.217782 0.324097
H9    H     H_    0.247132 0.994147 0.731352 0.127365
H10   H     H_    0.752845 0.005862 0.268617 0.127368
H11   H     H_    0.917991 0.573426 0.270262 0.169517
H12   H     H_    0.702038 0.921377 0.585050 0.176830
H13   H     H_    0.297965 0.078624 0.414950 0.176826
H14   H     H_    0.536249 0.076953 0.742748 0.119691
H15   H     H_    0.463754 0.923048 0.257253 0.119691
H16   H     H_    0.297261 0.548498 0.902235 0.161243
H17   H     H_    0.702738 0.451502 0.097765 0.161239
H18   H     H_    0.440672 0.699984 0.096862 0.124873
N1    N     N_3   0.500090 0.499970 0.858290 -0.248368
N2    N     N_3   0.499910 0.500030 0.141710 -0.248372
O1    O     O_R   0.500060 0.316850 0.620870 -0.515194
O2    O     O_R   0.795518 0.233208 0.611693 -0.677268
O3    O     O_2   0.009295 0.833650 0.446346 -0.466001
O4    O     O_R   0.204488 0.766802 0.388357 -0.677266
O5    O     O_2   0.951350 0.636772 0.843603 -0.506337
O6    O     O_R   0.838693 0.759194 0.693360 -0.694380
O7    O     O_2   0.048655 0.363232 0.156393 -0.506342
O8    O     O_R   0.161303 0.240800 0.306638 -0.694371
O9    O     O_2   0.279648 0.812054 0.702701 -0.468287
O10   O     O_2   0.720378 0.187947 0.297336 -0.468297
O11   O     O_R   0.499940 0.683150 0.379130 -0.515195
O12   O     O_R   0.500000 0.316860 0.379090 -0.468102
O13   O     O_R   0.500000 0.683140 0.620910 -0.468088
O14   O     O_R   0.316880 0.499960 0.620870 -0.500970
O15   O     O_R   0.683120 0.500040 0.379130 -0.500974
O16   O     O_R   0.316830 0.499970 0.379090 -0.474895
O17   O     O_R   0.683170 0.500030 0.620910 -0.474888
O18   O     O_2   0.990685 0.166337 0.553603 -0.465984

loop_
_geom_bond_atom_site_label_1
_geom_bond_atom_site_label_2
_ccdc_geom_bond_type
Cu1   O1    S    
C15   C18   S    
C24   O7    D    
C6    H11   S    
C3    O14   A    
C20   O2    S    
C21   O4    S    
C25   H9    S    
C6    C9    S    
C26   H10   S    
C29   H2    S    
C26   C27   S    
C17   C23   S    
C2    C29   S    
C5    C11   S    
C22   O6    S    
C15   C17   S    
C25   O9    D    
C26   O10   D    
C31   C32   S    
C19   C27   S    
H8    O8    S    
C16   C27   S    
C23   C25   S    
C30   H16   S    
Cu2   O12   S    
Cu2   O11   S    
C4    O15   A    
C12   O13   A    
Cu1   Cu2   S    
Cu1   N1    S    
C30   N1    S    
C1    C19   S    
H6    O4    S    
C18   C23   S    
C28   C32   S    
C3    O16   A    
C2    N2    S    
C16   H12   S    
C22   O5    D    
C5    C7    S    
C28   N2    S    
C14   H14   S    
C13   C24   S    
C1    O12   A    
C14   C23   S    
C21   O3    D    
C2    H4    S    
C15   C27   S    
H5    O2    S    
C8    C21   S    
C32   H3    S    
C9    C11   S    
Cu2   O15   S    
C16   C18   S    
Cu2   N2    S    
C14   C16   S    
C32   N1    S    
Cu1   O13   S    
C7    C9    S    
Cu2   O16   S    
C24   O8    S    
C14   C19   S    
C17   H13   S    
H7    O6    S    
C31   H17   S    
C10   C13   S    
C6    C8    S    
C12   O11   A    
C11   C22   S    
C2    C30   S    
C28   C30   S    
C1    O1    A    
C5    C10   S    
C29   C31   S    
C3    C10   S    
C6    C13   S    
C28   H18   S    
C29   N1    S    
C8    C11   S    
C5    H1    S    
C17   C19   S    
C15   H15   S    
C31   N2    S    
Cu1   O17   S    
C7    C13   S    
C8    C10   S    
C7    C20   S    
C12   C18   S    
C20   O18   D    
C4    C9    S    
C4    O17   A    
Cu1   O14   S    
