data_mof_unit_33924.cif
_audit_creation_date              2012-12-11T15:21:44-0500
_audit_creation_method            fapswitch 2.2
_symmetry_space_group_name_H-M    P1
_symmetry_Int_Tables_number       1
_space_group_crystal_system       triclinic
_cell_length_a                    19.136309
_cell_length_b                    7.148982
_cell_length_c                    17.684013
_cell_angle_alpha                 89.998033
_cell_angle_beta                  108.998096
_cell_angle_gamma                 89.998941
_cell_volume                      2287.48491176

loop_
_atom_site_label
_atom_site_type_symbol
_atom_type_description
_atom_site_fract_x
_atom_site_fract_y
_atom_site_fract_z
_atom_type_partial_charge
O1    O     O_R   0.562310 0.505770 0.439670 -0.540730
O2    O     O_R   0.437690 0.005770 0.560330 -0.540725
O3    O     O_R   0.411650 0.169150 0.405330 -0.536195
O4    O     O_R   0.588350 0.669150 0.594670 -0.536197
C1    C     C_R   0.384604 0.345909 0.382696 0.626513
C2    C     C_R   0.615396 0.845905 0.617305 0.626498
O5    O     O_R   0.560140 0.175610 0.430010 -0.531085
O6    O     O_R   0.439860 0.675610 0.569990 -0.531070
O7    O     O_R   0.587240 0.012100 0.585200 -0.541317
O8    O     O_R   0.412760 0.512100 0.414800 -0.541314
C3    C     C_R   0.580827 0.344626 0.414668 0.698716
C4    C     C_R   0.419174 0.844626 0.585334 0.698706
O9    O     O_3   0.508720 0.341420 0.550890 -0.368383
O10   O     O_3   0.491280 0.841420 0.449110 -0.368387
V1    V     V_3+5 0.498380 0.063930 0.490560 1.414268
V2    V     V_3+5 0.501620 0.563930 0.509440 1.414288
C5    C     C_R   0.179194 0.063960 0.865754 -0.193920
C6    C     C_R   0.820886 0.564074 0.134345 -0.194012
C7    C     C_R   0.130266 0.916464 0.865109 -0.081056
C8    C     C_R   0.869730 0.416456 0.134888 -0.081064
C9    C     C_R   0.129942 0.757038 0.818235 -0.220386
C10   C     C_R   0.869953 0.256888 0.181646 -0.220411
C11   C     C_R   0.177133 0.745136 0.771945 0.112254
C12   C     C_R   0.822789 0.245016 0.227966 0.112248
C13   C     C_R   0.226613 0.892875 0.773618 0.058480
C14   C     C_R   0.773389 0.392870 0.226387 0.058551
C15   C     C_R   0.227986 0.051943 0.821239 0.036859
C16   C     C_R   0.772069 0.552024 0.178830 0.036822
C17   C     C_R   0.175863 0.587625 0.724183 -0.199394
C18   C     C_R   0.823990 0.087398 0.275647 -0.199504
C19   C     C_R   0.222969 0.576476 0.678241 -0.158537
C20   C     C_R   0.776917 0.076290 0.321627 -0.158444
C21   C     C_R   0.272809 0.721716 0.679821 0.143895
C22   C     C_R   0.727152 0.221645 0.320134 0.143891
C23   C     C_R   0.274973 0.880918 0.727945 0.017691
C24   C     C_R   0.725032 0.380916 0.272063 0.017683
C25   C     C_R   0.325700 0.027081 0.730900 0.027876
C26   C     C_R   0.674333 0.527129 0.269139 0.027851
C27   C     C_R   0.328282 0.182714 0.781125 0.263448
C28   C     C_R   0.671762 0.682787 0.218926 0.263429
C29   C     C_R   0.279028 0.195003 0.824731 -0.198456
C30   C     C_R   0.721036 0.695114 0.175347 -0.198566
C31   C     C_R   0.320740 0.709502 0.634441 -0.162051
C32   C     C_R   0.679223 0.209439 0.365518 -0.162058
C33   C     C_R   0.370368 0.855159 0.635553 -0.092637
C34   C     C_R   0.629636 0.355161 0.364452 -0.092657
C35   C     C_R   0.372471 0.012961 0.683851 -0.168219
C36   C     C_R   0.627566 0.513016 0.316191 -0.168271
H1    H     H_    0.180571 0.186296 0.902467 0.124417
H2    H     H_    0.819580 0.686521 0.097721 0.124457
H3    H     H_    0.092322 0.642819 0.817086 0.125694
H4    H     H_    0.907476 0.142538 0.182688 0.125765
H5    H     H_    0.138432 0.472691 0.722398 0.124928
H6    H     H_    0.861332 0.972342 0.277327 0.124972
H7    H     H_    0.220914 0.453091 0.641976 0.121735
H8    H     H_    0.778915 0.952820 0.357823 0.121790
H9    H     H_    0.318656 0.587558 0.597300 0.119839
H10   H     H_    0.681269 0.087439 0.402614 0.119905
H11   H     H_    0.411194 0.123737 0.684628 0.175391
H12   H     H_    0.588871 0.623839 0.315442 0.175405
H13   H     H_    0.281336 0.316201 0.862288 0.167122
H14   H     H_    0.718741 0.816346 0.137805 0.167155
C37   C     C_3   0.751904 0.812749 0.837986 -0.310593
C38   C     C_3   0.248101 0.312748 0.162016 -0.310592
H15   H     H_    0.772116 0.673508 0.864167 0.143335
H16   H     H_    0.227895 0.173495 0.135836 0.143316
H17   H     H_    0.740055 0.896163 0.885529 0.134788
H18   H     H_    0.259950 0.396177 0.114469 0.134773
C39   C     C_3   0.679263 0.785615 0.766367 -0.312317
C40   C     C_3   0.320742 0.285624 0.233637 -0.312306
H19   H     H_    0.632781 0.856122 0.779734 0.146822
H20   H     H_    0.367221 0.356142 0.220269 0.146821
H21   H     H_    0.665645 0.634015 0.758455 0.149546
H22   H     H_    0.334367 0.134025 0.241555 0.149548
H23   H     H_    0.847935 0.653223 0.767098 0.144212
H24   H     H_    0.152071 0.153215 0.232910 0.144212
H25   H     H_    0.740545 0.613954 0.662619 0.138294
H26   H     H_    0.259463 0.113944 0.337389 0.138295
C41   C     C_3   0.825645 0.793022 0.743571 -0.313013
C42   C     C_3   0.174358 0.293016 0.256432 -0.313022
C43   C     C_3   0.781616 0.104163 0.775599 -0.334953
C44   C     C_3   0.218379 0.604163 0.224393 -0.334936
C45   C     C_3   0.812607 0.912484 0.811485 0.112946
C46   C     C_3   0.187393 0.412478 0.188515 0.112949
H27   H     H_    0.770527 0.192964 0.822143 0.142787
H28   H     H_    0.229471 0.692955 0.177845 0.142784
C47   C     C_3   0.687307 0.866799 0.688383 0.104230
C48   C     C_3   0.312693 0.366805 0.311618 0.104233
C49   C     C_3   0.752775 0.765946 0.672258 -0.328387
C50   C     C_3   0.247228 0.265941 0.327746 -0.328372
C51   C     C_3   0.709396 0.078211 0.704643 -0.284477
C52   C     C_3   0.290597 0.578219 0.295354 -0.284497
H29   H     H_    0.664324 0.156340 0.717746 0.152154
H30   H     H_    0.335670 0.656361 0.282253 0.152151
H31   H     H_    0.716810 0.142283 0.650367 0.133438
H32   H     H_    0.283175 0.642283 0.349628 0.133431
H33   H     H_    0.867727 0.862013 0.721964 0.120587
H34   H     H_    0.132274 0.362012 0.278037 0.120597
O11   O     O_R   0.087220 0.271820 0.085230 -0.541720
O12   O     O_R   0.912780 0.771820 0.914770 -0.541721
O13   O     O_R   0.939860 0.595540 0.069990 -0.541070
O14   O     O_R   0.060140 0.095540 0.930010 -0.541056
C53   C     C_R   0.919067 0.426584 0.085239 0.698400
C54   C     C_R   0.080931 0.926585 0.914760 0.698397
O15   O     O_R   0.088340 0.601930 0.094680 -0.538697
O16   O     O_R   0.911660 0.101930 0.905320 -0.538698
O17   O     O_R   0.062310 0.765410 0.939660 -0.535391
O18   O     O_R   0.937690 0.265410 0.060340 -0.535409
C55   C     C_R   0.115902 0.431860 0.117822 0.646352
C56   C     C_R   0.884098 0.931865 0.882177 0.646338
O19   O     O_3   0.991270 0.429630 0.949130 -0.373056
O20   O     O_3   0.008730 0.929630 0.050870 -0.373069
V3    V     V_3+5 0.001620 0.707150 0.009440 1.380694
V4    V     V_3+5 0.998380 0.207150 0.990560 1.380711
H35   H     H_    0.823036 0.178852 0.754769 0.136660
H36   H     H_    0.176957 0.678861 0.245214 0.136664
H37   H     H_    0.760110 0.821996 0.616626 0.122169
H38   H     H_    0.239889 0.321986 0.383378 0.122164
Br1   Br    Br    0.399721 0.379899 0.795521 -0.560456
Br2   Br    Br    0.600306 0.879933 0.204505 -0.560487

loop_
_geom_bond_atom_site_label_1
_geom_bond_atom_site_label_2
_ccdc_geom_bond_type
C41   C45   S    
C37   H15   S    
O12   C56   A    
C47   C51   S    
O13   V3    S    
O1    C3    A    
C29   H13   S    
C42   C46   S    
C40   C48   S    
O11   V4    S    
C27   C29   A    
C8    C53   S    
H26   C50   S    
O5    C3    A    
C18   H6    S    
H25   C49   S    
O16   V4    S    
C50   H38   S    
O15   V3    S    
C23   C25   A    
C12   C14   A    
C38   H18   S    
O11   C55   A    
C52   H32   S    
C44   C52   S    
C6    C8    A    
O18   V4    S    
C39   H19   S    
O17   V3    S    
C5    C7    A    
C1    C48   S    
C38   C46   S    
C48   C52   S    
C32   H10   S    
C40   H22   S    
C19   C21   A    
C39   H21   S    
C53   O18   A    
C38   C40   S    
C25   C35   A    
C30   H14   S    
C26   C36   A    
C39   C47   S    
C28   C30   A    
O2    C4    A    
O6    V2    S    
C2    O7    A    
O20   V3    S    
C43   C45   S    
C32   C34   A    
C36   H12   S    
C34   C36   A    
C33   C35   A    
C37   H17   S    
C5    C15   A    
C37   C39   S    
C6    C16   A    
O4    C2    A    
C5    H1    S    
O5    V1    S    
C44   H28   S    
C51   H31   S    
C2    C47   S    
C37   C45   S    
C20   C22   A    
O4    V2    S    
O14   V4    S    
C18   C20   A    
C51   H29   S    
C7    C54   S    
C15   C29   A    
O6    C4    A    
C43   H35   S    
C52   H30   S    
C45   C56   S    
C22   C32   A    
O1    V2    S    
O14   C54   A    
O2    V1    S    
C31   C33   A    
C13   C23   A    
C14   C24   A    
C28   Br2   S    
C49   H37   S    
C44   C46   S    
C9    C11   A    
C10   C12   A    
C8    C10   A    
C11   C17   A    
C9    H3    S    
O3    V1    S    
C6    H2    S    
C10   H4    S    
O16   C56   A    
O15   C55   A    
C42   H34   S    
C41   H33   S    
O12   V3    S    
H24   C42   S    
C48   C50   S    
C4    C33   S    
O3    C1    A    
C13   C15   A    
C14   C16   A    
C46   C55   S    
O13   C53   A    
C24   C26   A    
O7    V1    S    
C44   H36   S    
C1    O8    A    
C25   C27   A    
O8    V2    S    
C26   C28   A    
C17   H5    S    
C27   Br1   S    
C16   C30   A    
C21   C23   A    
O19   V4    S    
C22   C24   A    
C11   C13   A    
C42   C50   S    
C12   C18   A    
C41   C49   S    
C31   H9    S    
C35   H11   S    
C43   C51   S    
C17   C19   A    
O9    V2    S    
C47   C49   S    
O10   V1    S    
C3    C34   S    
C40   H20   S    
C19   H7    S    
C21   C31   A    
H23   C41   S    
C20   H8    S    
C54   O17   A    
C43   H27   S    
C38   H16   S    
C7    C9    A    
