data_mof_unit_57369.cif
_audit_creation_date              2012-12-10T20:31:58-0500
_audit_creation_method            fapswitch 2.2
_symmetry_space_group_name_H-M    P1
_symmetry_Int_Tables_number       1
_space_group_crystal_system       triclinic
_cell_length_a                    9.875967
_cell_length_b                    10.675622
_cell_length_c                    15.428867
_cell_angle_alpha                 90.360197
_cell_angle_beta                  68.321227
_cell_angle_gamma                 90.261085
_cell_volume                      1511.60630664

loop_
_atom_site_label
_atom_site_type_symbol
_atom_type_description
_atom_site_fract_x
_atom_site_fract_y
_atom_site_fract_z
_atom_type_partial_charge
C1    C     C_R   0.498206 0.739994 0.503445 0.872908
C2    C     C_R   0.704719 0.627332 0.045622 0.056278
C3    C     C_R   0.566915 0.572472 0.095083 0.023622
C4    C     C_R   0.408819 0.502457 0.675995 0.863564
C5    C     C_R   0.809562 0.638001 0.087708 0.516035
C6    C     C_R   0.777614 0.587754 0.177490 -0.333480
C7    C     C_R   0.543590 0.516556 0.180638 -0.268894
C8    C     C_R   0.365265 0.935301 0.521104 0.134928
C9    C     C_R   0.488597 0.871273 0.519579 -0.098090
C10   C     C_R   0.600512 0.935877 0.536337 -0.233331
C11   C     C_R   0.600509 0.065460 0.535898 -0.226925
C12   C     C_R   0.396974 0.566338 0.917297 0.080117
C13   C     C_R   0.488598 0.128546 0.518707 -0.111682
C14   C     C_R   0.365345 0.063126 0.520497 0.121990
C15   C     C_3   0.284684 0.067991 0.455495 -0.426745
C16   C     C_R   0.498109 0.259891 0.502985 0.881067
C17   C     C_3   0.283849 0.926133 0.456647 -0.519312
C18   C     C_R   0.902718 0.590674 0.546858 0.211851
C19   C     C_R   0.958087 0.418107 0.446100 -0.291105
C20   C     C_R   0.105427 0.418877 0.443865 0.574344
C21   C     C_R   0.045155 0.591026 0.546482 0.107787
C22   C     C_3   0.994769 0.618779 0.648019 -0.479550
C23   C     C_R   0.254680 0.523270 0.971424 0.201957
C24   C     C_3   0.840561 0.615530 0.649265 -0.515106
C25   C     C_R   0.590711 0.502649 0.323913 0.904106
C26   C     C_R   0.350172 0.514996 0.777317 -0.058203
C27   C     C_R   0.643316 0.529455 0.224166 -0.130842
C28   C     C_R   0.159574 0.483554 0.927980 -0.120093
C29   C     C_R   0.207518 0.478651 0.831075 -0.216271
C30   C     C_R   0.440553 0.563729 0.820305 -0.267691
C31   C     C_3   0.975381 0.789130 0.090599 -0.327322
C32   C     C_3   0.185977 0.284237 0.313920 -0.431927
C33   C     C_R   0.495792 0.598957 0.961175 0.076321
C34   C     C_R   0.457466 0.569869 0.056375 0.106967
C35   C     C_R   0.310875 0.539078 0.110013 -0.269403
C36   C     C_R   0.210854 0.516789 0.067947 -0.229951
C37   C     C_R   0.632868 0.655591 0.913086 -0.259263
C38   C     C_R   0.734183 0.671641 0.955393 -0.191788
H1    H     H_    0.100801 0.488996 0.110734 0.151103
H2    H     H_    0.029541 0.713453 0.662087 0.201781
H3    H     H_    0.777637 0.534265 0.688867 0.217715
H4    H     H_    0.784570 0.707617 0.666191 0.188025
H5    H     H_    0.837275 0.716142 0.915991 0.194866
H6    H     H_    0.050408 0.451454 0.968881 0.145649
H7    H     H_    0.135100 0.442856 0.798424 0.148090
H8    H     H_    0.547575 0.593443 0.776347 0.148941
H9    H     H_    0.270628 0.533596 0.185095 0.152691
H10   H     H_    0.663182 0.691970 0.843479 0.151308
H11   H     H_    0.019910 0.750222 0.141140 0.171921
H12   H     H_    0.692456 0.887427 0.542810 0.168185
H13   H     H_    0.878968 0.849516 0.126862 0.154638
H14   H     H_    0.061159 0.849880 0.042143 0.198123
H15   H     H_    0.288819 0.242848 0.264973 0.199422
H16   H     H_    0.151723 0.356466 0.274625 0.161086
H17   H     H_    0.104565 0.207301 0.337207 0.175750
H18   H     H_    0.018284 0.541588 0.688375 0.212743
H19   H     H_    0.855252 0.596300 0.211608 0.163003
H20   H     H_    0.692483 0.114957 0.542179 0.172676
H21   H     H_    0.174292 0.109304 0.489108 0.221744
H22   H     H_    0.351783 0.107418 0.386314 0.223035
H23   H     H_    0.173173 0.885456 0.491437 0.206558
H24   H     H_    0.349493 0.883452 0.388057 0.207798
H25   H     H_    0.922620 0.350638 0.406439 0.163703
H26   H     H_    0.446140 0.462557 0.215615 0.185311
N1    N     N_R   0.856900 0.500860 0.500610 -0.118957
N2    N     N_R   0.142540 0.500820 0.500610 -0.145821
O1    O     O_R   0.385310 0.683210 0.499990 -0.614887
O2    O     O_3   0.212622 0.335667 0.390605 -0.577644
O3    O     O_R   0.614650 0.683240 0.500000 -0.621233
O4    O     O_R   0.319830 0.499970 0.632240 -0.622281
O5    O     O_R   0.549170 0.500000 0.632250 -0.613104
O6    O     O_R   0.385350 0.316760 0.500000 -0.568376
O7    O     O_R   0.614690 0.316790 0.500010 -0.625012
O8    O     O_R   0.450830 0.500000 0.367750 -0.574272
O9    O     O_R   0.680170 0.500030 0.367760 -0.619441
O10   O     O_3   0.943843 0.692362 0.038118 -0.625978
Zn1   Zn    Zn3+2 0.346870 0.499980 0.499990 0.980280
Zn2   Zn    Zn3+2 0.653130 0.500020 0.500010 0.933995

loop_
_geom_bond_atom_site_label_1
_geom_bond_atom_site_label_2
_ccdc_geom_bond_type
C21   N2    A    
C18   C21   A    
C24   H4    S    
C15   H22   S    
C35   C36   A    
C16   O6    A    
C31   H14   S    
C35   H9    S    
C4    O4    A    
C18   N1    A    
C12   C23   A    
C37   C38   A    
C18   C24   S    
C20   N2    A    
C28   C29   A    
C25   O8    A    
C3    C7    A    
C5    C6    A    
C7    C27   A    
C34   C35   A    
C17   H23   S    
C19   C20   A    
C19   H25   S    
C8    C9    A    
O8    Zn1   S    
O1    Zn1   S    
O7    Zn2   S    
C11   H20   S    
C9    C10   A    
C32   H17   S    
C32   O2    S    
C13   C14   A    
O4    Zn1   S    
C24   H3    S    
C6    H19   S    
O3    Zn2   S    
C31   H11   S    
C32   H16   S    
C30   H8    S    
C16   O7    A    
C1    C9    S    
C22   H18   S    
C3    C34   A    
C28   H6    S    
C33   C37   A    
C29   H7    S    
C25   O9    A    
O6    Zn1   S    
C17   H24   S    
C2    C38   A    
C6    C27   A    
C22   H2    S    
C33   C34   A    
C23   C28   A    
C37   H10   S    
C26   C30   A    
C22   C24   S    
C2    C5    A    
C10   H12   S    
C32   H15   S    
C15   C17   S    
N2    Zn1   S    
C8    C14   A    
N1    Zn2   S    
C12   C30   A    
C15   H21   S    
C20   O2    S    
C36   H1    S    
C31   H13   S    
C4    C26   S    
C25   C27   S    
C8    C17   S    
C5    O10   S    
C2    C3    A    
C38   H5    S    
C11   C13   A    
C31   O10   S    
C1    O1    A    
C19   N1    A    
O5    Zn2   S    
O9    Zn2   S    
C1    O3    A    
C7    H26   S    
C10   C11   A    
C26   C29   A    
C23   C36   A    
C13   C16   S    
C14   C15   S    
C12   C33   A    
C21   C22   S    
C4    O5    A    
