data_mof_unit_12285.cif
_audit_creation_date              2012-12-10T19:27:38-0500
_audit_creation_method            fapswitch 2.2
_symmetry_space_group_name_H-M    P1
_symmetry_Int_Tables_number       1
_space_group_crystal_system       triclinic
_cell_length_a                    23.388363
_cell_length_b                    10.533919
_cell_length_c                    9.831972
_cell_angle_alpha                 89.349311
_cell_angle_beta                  91.469122
_cell_angle_gamma                 90.701997
_cell_volume                      2421.1882265

loop_
_atom_site_label
_atom_site_type_symbol
_atom_type_description
_atom_site_fract_x
_atom_site_fract_y
_atom_site_fract_z
_atom_type_partial_charge
C1    C     C_R   0.500389 0.258059 0.500329 1.032185
C2    C     C_R   0.499705 0.741946 0.499691 1.032608
C3    C     C_R   0.237971 0.564871 0.391567 -0.079842
C4    C     C_R   0.762438 0.438613 0.607141 -0.084435
C5    C     C_R   0.297320 0.564637 0.392548 -0.057896
C6    C     C_R   0.703094 0.438181 0.607068 -0.062271
C7    C     C_R   0.327571 0.500744 0.496654 -0.023740
C8    C     C_R   0.672430 0.500467 0.502535 -0.034568
C9    C     C_R   0.298153 0.438990 0.601177 -0.143861
C10   C     C_R   0.701432 0.561021 0.396398 -0.130826
C11   C     C_R   0.238835 0.439247 0.600241 -0.085646
C12   C     C_R   0.760749 0.561479 0.396581 -0.086497
C13   C     C_R   0.208771 0.501890 0.495236 0.281182
C14   C     C_R   0.791207 0.500578 0.502113 0.280460
C15   C     C_3   0.545463 0.041054 0.572550 0.396161
C16   C     C_3   0.454777 0.958987 0.427576 0.390760
C17   C     C_3   0.547797 0.960003 0.444559 0.379989
C18   C     C_3   0.452458 0.039992 0.555578 0.382850
C19   C     C_3   0.499677 0.876685 0.500059 -0.368983
C20   C     C_3   0.500554 0.123324 0.500041 -0.369320
C21   C     C_3   0.497310 0.956668 0.630432 -0.326373
C22   C     C_3   0.502939 0.043335 0.369671 -0.328562
C23   C     C_R   0.389660 0.500358 0.498662 0.923483
C24   C     C_R   0.610342 0.499905 0.501224 0.925682
C25   C     C_3   0.455547 0.443508 0.044522 0.466586
C26   C     C_3   0.544439 0.556452 0.955570 0.519376
C27   C     C_3   0.499329 0.385113 0.952290 -0.165338
C28   C     C_3   0.500647 0.614859 0.047739 -0.141435
C29   C     C_3   0.455585 0.557746 0.947508 -0.238321
C30   C     C_3   0.544381 0.442204 0.052524 -0.202779
C31   C     C_R   0.881184 0.611837 0.525376 0.516544
C32   C     C_R   0.118750 0.391027 0.470343 0.518447
C33   C     C_R   0.879440 0.389725 0.476712 0.513216
C34   C     C_R   0.120510 0.613084 0.519279 0.512560
C35   C     C_R   0.939101 0.387609 0.474848 -0.019588
C36   C     C_R   0.060837 0.615314 0.520600 -0.019028
C37   C     C_R   0.969941 0.501303 0.498512 -0.017679
C38   C     C_R   0.029993 0.501657 0.496782 -0.017734
C39   C     C_R   0.940876 0.614635 0.523944 -0.021869
C40   C     C_R   0.059055 0.388319 0.471388 -0.022657
C41   C     C_R   0.968450 0.275197 0.449570 -0.148925
C42   C     C_R   0.031484 0.727761 0.545710 -0.148078
C43   C     C_R   0.027944 0.275554 0.447830 -0.149155
C44   C     C_R   0.971986 0.727426 0.547358 -0.150524
H1    H     H_    0.945600 0.186744 0.431117 0.196897
H2    H     H_    0.054335 0.816203 0.564215 0.197345
H3    H     H_    0.497835 0.288322 0.908920 0.234248
H4    H     H_    0.502135 0.711647 0.091127 0.230957
H5    H     H_    0.417900 0.605241 0.899655 0.194821
H6    H     H_    0.582046 0.394646 0.100400 0.197297
H7    H     H_    0.049414 0.187351 0.428151 0.196753
H8    H     H_    0.950515 0.815630 0.567023 0.196380
H9    H     H_    0.214612 0.614156 0.310883 0.158931
H10   H     H_    0.786131 0.390460 0.688074 0.158461
H11   H     H_    0.321039 0.389432 0.682271 0.183133
H12   H     H_    0.678268 0.608782 0.314253 0.216988
H13   H     H_    0.216148 0.391062 0.680827 0.156695
H14   H     H_    0.783131 0.608647 0.314850 0.157646
H15   H     H_    0.494859 0.919460 0.736277 0.244139
H16   H     H_    0.505393 0.080532 0.263822 0.244054
N1    N     N_R   0.852035 0.500635 0.501756 -0.359131
N2    N     N_R   0.147922 0.502116 0.494486 -0.359675
N3    N     N_3   0.499960 0.500030 0.863290 -0.151355
N4    N     N_3   0.500040 0.499970 0.136710 -0.148029
O1    O     O_R   0.500000 0.313960 0.616610 -0.575539
O2    O     O_R   0.500000 0.686040 0.383390 -0.575893
O3    O     O_R   0.500030 0.313950 0.383350 -0.599920
O4    O     O_R   0.499970 0.686050 0.616650 -0.597010
O5    O     O_R   0.416140 0.499970 0.616650 -0.635224
O6    O     O_R   0.583860 0.500030 0.383350 -0.626966
O7    O     O_R   0.416170 0.499960 0.383400 -0.553983
O8    O     O_R   0.583830 0.500040 0.616600 -0.553948
O9    O     O_2   0.852357 0.718877 0.550850 -0.520773
O10   O     O_2   0.147562 0.283975 0.444816 -0.516165
O11   O     O_2   0.848896 0.282376 0.452696 -0.524916
O12   O     O_2   0.151051 0.720354 0.543714 -0.524378
Zn1   Zn    Zn3+2 0.499980 0.500010 0.655740 1.081233
Zn2   Zn    Zn3+2 0.500020 0.499990 0.344260 1.089607
S1    S     S_3+6 0.392310 0.364773 0.100931 0.089068
O13   O     O_2   0.405770 0.280057 0.220843 -0.191419
O14   O     O_2   0.349434 0.461704 0.139876 -0.331523
O15   O     O_3   0.363638 0.275792 0.975704 -0.473226
H17   H     H_    0.342835 0.336510 0.915557 0.355385
S2    S     S_3+6 0.607878 0.634883 0.900191 0.071975
O16   O     O_2   0.650735 0.537208 0.863304 -0.323784
O17   O     O_2   0.594745 0.719361 0.779804 -0.229842
O18   O     O_3   0.635904 0.723126 0.026832 -0.513142
H18   H     H_    0.670052 0.765092 0.988128 0.392155
H19   H     H_    0.319521 0.616405 0.313860 0.222858
H20   H     H_    0.681222 0.386819 0.686563 0.223897
S3    S     S_3+6 0.611043 0.902521 0.370825 0.085675
O19   O     O_2   0.646204 0.833006 0.477065 -0.248066
O20   O     O_2   0.594343 0.813697 0.258138 -0.278367
O21   O     O_3   0.649043 0.025233 0.307985 -0.489724
H21   H     H_    0.682691 0.986148 0.266772 0.389782
S4    S     S_3+6 0.389285 0.097391 0.629681 0.086083
O22   O     O_2   0.406119 0.185376 0.743028 -0.296779
O23   O     O_2   0.354240 0.167765 0.523889 -0.247998
O24   O     O_3   0.351110 0.974562 0.691671 -0.483477
H22   H     H_    0.317342 0.013568 0.732431 0.395567
S5    S     S_3+6 0.606347 0.098383 0.667329 0.081429
O25   O     O_2   0.645121 0.169342 0.572839 -0.294166
O26   O     O_2   0.587581 0.185361 0.777228 -0.314928
O27   O     O_3   0.641493 0.975194 0.738279 -0.445472
H23   H     H_    0.674693 0.013752 0.787664 0.384332
S6    S     S_3+6 0.393785 0.901864 0.333096 0.083659
O28   O     O_2   0.412332 0.814285 0.223523 -0.314957
O29   O     O_2   0.354939 0.831660 0.428022 -0.298418
O30   O     O_3   0.358816 0.025096 0.261740 -0.419694
H24   H     H_    0.325231 0.986722 0.213690 0.394278

loop_
_geom_bond_atom_site_label_1
_geom_bond_atom_site_label_2
_ccdc_geom_bond_type
C38   C40   A    
O18   H18   S    
C29   N3    S    
S5    O25   D    
C8    C24   S    
C30   N4    S    
O6    Zn2   S    
C18   C21   S    
C18   S4    S    
C23   O5    A    
C36   C42   A    
C17   S3    S    
S2    O18   S    
C24   O6    A    
C29   H5    S    
O8    Zn1   S    
C28   C29   S    
C35   C37   A    
S2    O17   D    
C21   H15   S    
C2    O4    A    
C32   O10   S    
C33   C35   A    
C31   O9    S    
C11   C13   A    
S6    O28   D    
S4    O24   S    
C34   N2    A    
C7    C9    A    
C42   H2    S    
C31   N1    A    
C17   C19   S    
O5    Zn1   S    
C33   O11   S    
C40   C43   A    
C13   N2    S    
S4    O23   D    
C1    O1    A    
C9    H11   S    
C10   H12   S    
C18   C20   S    
C3    C13   A    
C16   S6    S    
C12   H14   S    
C44   H8    S    
C30   H6    S    
S5    O26   D    
C27   C30   S    
C41   C43   A    
O3    Zn2   S    
C42   C44   A    
O27   H23   S    
C25   C29   S    
C15   C20   S    
O2    Zn2   S    
O1    Zn1   S    
C23   O7    A    
S2    O16   D    
C4    C6    A    
S3    O19   D    
S1    O14   D    
C6    C8    A    
C2    O2    A    
C6    H20   S    
C14   N1    S    
C25   N4    S    
C26   N3    S    
C37   C38   A    
S3    O20   D    
O24   H22   S    
S4    O22   D    
C16   C18   S    
C15   S5    S    
C9    C11   A    
C10   C12   A    
C28   N4    S    
C33   N1    A    
C12   C14   A    
C26   C30   S    
S5    O27   S    
C24   O8    A    
C5    C7    A    
N3    Zn1   S    
C27   H3    S    
O4    Zn1   S    
C15   C17   S    
C28   H4    S    
C1    C20   S    
C16   C22   S    
C4    H10   S    
C2    C19   S    
C25   S1    S    
N4    Zn2   S    
C20   C22   S    
C3    C5    A    
C26   S2    S    
S1    O15   S    
C39   C44   A    
C25   C27   S    
C26   C28   S    
C17   C22   S    
C36   C38   A    
C32   N2    A    
C37   C39   A    
O30   H24   S    
S3    O21   S    
C22   H16   S    
C3    H9    S    
C43   H7    S    
S6    O29   D    
C16   C19   S    
C7    C23   S    
C1    O3    A    
C31   C39   A    
C34   C36   A    
C32   C40   A    
C4    C14   A    
O21   H21   S    
C35   C41   A    
S1    O13   D    
C15   C21   S    
C8    C10   A    
O15   H17   S    
C41   H1    S    
C27   N3    S    
C11   H13   S    
O7    Zn2   S    
C5    H19   S    
C34   O12   S    
C19   C21   S    
S6    O30   S    
