data_mof_unit_58078.cif
_audit_creation_date              2012-12-11T14:36:14-0500
_audit_creation_method            fapswitch 2.2
_symmetry_space_group_name_H-M    P1
_symmetry_Int_Tables_number       1
_space_group_crystal_system       triclinic
_cell_length_a                    13.577805
_cell_length_b                    13.635031
_cell_length_c                    27.362092
_cell_angle_alpha                 90.659048
_cell_angle_beta                  90.152737
_cell_angle_gamma                 60.133765
_cell_volume                      4392.56300252

loop_
_atom_site_label
_atom_site_type_symbol
_atom_type_description
_atom_site_fract_x
_atom_site_fract_y
_atom_site_fract_z
_atom_type_partial_charge
C1    C     C_R   0.621882 0.101460 0.569354 0.548172
C2    C     C_1   0.629103 0.729031 0.615421 0.074334
C3    C     C_3   0.662250 0.586916 0.773005 0.268124
C4    C     C_3   0.676632 0.669462 0.807414 -0.054918
C5    C     C_3   0.563512 0.686141 0.746297 0.198091
C6    C     C_3   0.651482 0.686099 0.710485 -0.060380
C7    C     C_3   0.579246 0.768249 0.780251 0.224270
C8    C     C_3   0.665309 0.770509 0.744081 0.181339
C9    C     C_1   0.686060 0.647418 0.860102 0.047544
C10   C     C_1   0.642039 0.702040 0.657598 0.070350
C11   C     C_3   0.074417 0.168816 0.738335 0.235104
C12   C     C_R   0.599756 0.778460 0.568161 0.556435
C13   C     C_3   0.151176 0.070548 0.771984 0.248979
C14   C     C_1   0.102100 0.194334 0.903863 0.071994
C15   C     C_1   0.229910 0.140603 0.617862 0.058033
C16   C     C_3   0.074186 0.254380 0.776027 0.190044
C17   C     C_3   0.152963 0.154747 0.809477 -0.029806
C18   C     C_3   0.180003 0.245068 0.751266 0.219412
C19   C     C_3   0.179218 0.160829 0.713056 -0.022247
C20   C     C_3   0.258955 0.146923 0.785054 0.168019
C21   C     C_3   0.256368 0.062602 0.747264 0.205042
C22   C     C_1   0.131581 0.168045 0.862133 0.083176
C23   C     C_R   0.278428 0.121888 0.569749 0.544220
C24   C     C_1   0.201556 0.153225 0.660256 0.066581
C25   C     C_3   0.678881 0.267475 0.734288 0.189076
C26   C     C_3   0.579410 0.287711 0.768789 0.157808
C27   C     C_1   0.692232 0.213945 0.901855 0.054198
C28   C     C_1   0.645525 0.134388 0.615738 0.083937
C29   C     C_3   0.764057 0.182243 0.771389 0.202160
C30   C     C_3   0.665783 0.202147 0.805813 -0.073294
C31   C     C_3   0.757882 0.084642 0.746359 0.250866
C32   C     C_3   0.672615 0.168537 0.709584 -0.018958
C33   C     C_3   0.659753 0.104820 0.780178 0.243111
C34   C     C_R   0.623504 0.100038 0.431337 0.546834
C35   C     C_3   0.572965 0.188907 0.743472 0.203234
C36   C     C_1   0.674859 0.209427 0.858945 0.041520
C37   C     C_1   0.663268 0.151673 0.657154 0.105389
C38   C     C_R   0.736604 0.684003 0.359422 0.162672
C39   C     C_R   0.750677 0.679587 0.307376 0.009039
C40   C     C_R   0.767108 0.668150 0.203028 0.009502
C41   C     C_R   0.865478 0.629830 0.232036 0.198917
C42   C     C_R   0.857395 0.640317 0.283421 0.218644
C43   C     C_R   0.771330 0.658501 0.151478 0.155821
C44   C     C_R   0.681709 0.656048 0.126923 0.041203
C45   C     C_R   0.600222 0.777480 0.429551 0.568909
C46   C     C_R   0.535785 0.745875 0.349368 0.251554
C47   C     C_R   0.543962 0.752915 0.298995 0.059284
C48   C     C_R   0.651740 0.716987 0.277609 -0.098178
C49   C     C_R   0.445398 0.795647 0.269668 0.355989
C50   C     C_R   0.453985 0.803485 0.219387 0.224968
C51   C     C_R   0.561550 0.745144 0.197258 -0.015320
C52   C     C_R   0.660380 0.711027 0.226105 -0.074667
C53   C     C_R   0.573726 0.708725 0.148148 0.221256
C54   C     C_R   0.627495 0.728059 0.379539 -0.023117
C55   C     C_R   0.180406 0.078051 0.361502 0.249806
C56   C     C_R   0.275954 0.122269 0.431381 0.536387
C57   C     C_R   0.154195 0.090784 0.310774 0.054804
C58   C     C_R   0.130157 0.101286 0.207739 0.090431
C59   C     C_R   0.100180 0.032482 0.235139 0.294379
C60   C     C_R   0.108429 0.030333 0.286538 0.194200
C61   C     C_R   0.119168 0.107001 0.156618 0.238277
C62   C     C_R   0.123900 0.194474 0.131479 -0.054906
C63   C     C_R   0.204042 0.242810 0.358278 0.191786
C64   C     C_R   0.209617 0.236022 0.307290 0.024806
C65   C     C_R   0.178503 0.164043 0.283135 -0.109567
C66   C     C_R   0.253973 0.292870 0.280687 0.275893
C67   C     C_3   0.748805 0.587737 0.737107 0.253087
C68   C     C_R   0.249992 0.293459 0.229116 0.283116
C69   C     C_R   0.202741 0.234810 0.204136 0.035615
C70   C     C_R   0.169714 0.167355 0.231698 -0.116316
C71   C     C_R   0.181315 0.245782 0.152941 0.190044
C72   C     C_R   0.211893 0.151237 0.384720 -0.046326
C73   C     C_R   0.582839 0.245004 0.364745 0.155815
C74   C     C_R   0.599011 0.264054 0.315235 -0.013052
C75   C     C_R   0.591588 0.294262 0.212796 0.036373
C76   C     C_R   0.536818 0.389008 0.245033 0.211978
C77   C     C_R   0.550758 0.373231 0.295627 0.209989
C78   C     C_3   0.764266 0.670207 0.771081 0.150620
C79   C     C_R   0.588739 0.305878 0.161534 0.244127
C80   C     C_R   0.666205 0.213772 0.132323 -0.010050
C81   C     C_R   0.738551 0.051612 0.354883 0.241641
C82   C     C_R   0.732999 0.062489 0.303808 0.059331
C83   C     C_R   0.662865 0.170147 0.283801 -0.109758
C84   C     C_R   0.799941 0.969024 0.272844 0.328264
C85   C     C_R   0.796248 0.982583 0.221978 0.249527
C86   C     C_R   0.723129 0.089327 0.201431 -0.002290
C87   C     C_R   0.660046 0.184743 0.232692 -0.095151
C88   C     C_R   0.715491 0.104852 0.150525 0.145981
C89   C     C_1   0.695111 0.616220 0.901767 0.056242
C90   C     C_R   0.650883 0.135931 0.384372 -0.041513
C91   C     C_R   0.050354 0.235241 0.950562 0.545671
C92   C     C_R   0.711223 0.564126 0.948629 0.547554
C93   C     C_R   0.722465 0.226502 0.950742 0.552303
C94   C     C_R   0.052265 0.242268 0.087244 0.553446
C95   C     C_R   0.706716 0.578767 0.084809 0.584961
C96   C     C_R   0.715808 0.233610 0.088193 0.564967
Cr1   Cr    Cr6+3 0.417550 0.169090 0.500530 1.155091
Cr2   Cr    Cr6+3 0.669180 0.913420 0.499920 1.136153
Cr3   Cr    Cr6+3 0.413260 0.917540 0.499520 1.111132
Cr4   Cr    Cr6+3 0.909170 0.177380 0.020380 1.116192
Cr5   Cr    Cr6+3 0.912710 0.429210 0.018220 1.152531
Cr6   Cr    Cr6+3 0.657170 0.432570 0.019030 1.117789
O1    O     O_R   0.301710 0.195650 0.554160 -0.471710
O2    O     O_R   0.658900 0.818120 0.449760 -0.452504
O3    O     O_R   0.503220 0.801620 0.445520 -0.481914
O4    O     O_R   0.319370 0.022040 0.450020 -0.477870
O5    O     O_3   0.499990 0.000010 0.499990 -0.302118
O6    O     O_R   0.818720 0.150820 0.967160 -0.481435
O7    O     O_R   0.006410 0.181720 0.970200 -0.502401
O8    O     O_R   0.027890 0.334070 0.964920 -0.472953
O9    O     O_R   0.809600 0.521790 0.967960 -0.480569
O10   O     O_R   0.635520 0.542770 0.964420 -0.492600
O11   O     O_R   0.665950 0.325030 0.970100 -0.494049
O12   O     O_R   0.522390 0.158990 0.550460 -0.480118
O13   O     O_R   0.816620 0.158530 0.074540 -0.445373
O14   O     O_R   0.004460 0.188870 0.069750 -0.488579
O15   O     O_R   0.025800 0.341780 0.072300 -0.437931
O16   O     O_R   0.807650 0.528950 0.067500 -0.477737
O17   O     O_R   0.633420 0.550490 0.071810 -0.431683
O18   O     O_R   0.664000 0.332180 0.069640 -0.491563
O19   O     O_3   0.826350 0.346390 0.019210 -0.303621
O20   O     O_R   0.694390 0.003530 0.554040 -0.490956
O21   O     O_R   0.657700 0.819660 0.549320 -0.480420
O22   O     O_R   0.501930 0.803280 0.552920 -0.489055
O23   O     O_R   0.318170 0.023580 0.549580 -0.500809
O24   O     O_R   0.303010 0.193990 0.446760 -0.449089
O25   O     O_R   0.523600 0.157450 0.450900 -0.453466
O26   O     O_R   0.695690 0.001860 0.446640 -0.483365
Br1   Br    Br    0.904070 0.668082 0.787934 -0.311638
Br2   Br    Br    0.382478 0.132225 0.825915 -0.285010
O27   O     O_3   0.189665 0.339562 0.739812 -0.563439
H1    H     H_    0.192417 0.373401 0.771683 0.386577
Br3   Br    Br    0.952738 0.388671 0.806098 -0.438431
Br4   Br    Br    0.448321 0.431002 0.786740 -0.241531
Br5   Br    Br    0.694050 0.371839 0.691884 -0.265086
Br6   Br    Br    0.440780 0.195083 0.713660 -0.351160
O28   O     O_3   0.648984 0.022370 0.805682 -0.548956
H2    H     H_    0.721308 0.978607 0.823639 0.344751
O29   O     O_3   0.851856 0.980149 0.733945 -0.590980
H3    H     H_    0.890404 0.947340 0.765277 0.367970
O30   O     O_3   0.864070 0.175872 0.788305 -0.597828
H4    H     H_    0.839914 0.248043 0.806032 0.354227
Br7   Br    Br    0.876499 0.680970 0.112045 -0.248102
O31   O     O_3   0.835120 0.493543 0.712723 -0.547324
H5    H     H_    0.878915 0.522036 0.694754 0.359472
Br8   Br    Br    0.857077 0.608409 0.406608 -0.309511
Br9   Br    Br    0.015211 0.540558 0.203846 -0.328730
Br10  Br    Br    0.996130 0.608623 0.316644 -0.209295
O32   O     O_3   0.484142 0.715619 0.121285 -0.638325
H6    H     H_    0.436428 0.698945 0.143123 0.399958
O33   O     O_3   0.355774 0.868249 0.193217 -0.693319
H7    H     H_    0.375479 0.897420 0.164004 0.358402
O34   O     O_3   0.340321 0.832600 0.290681 -0.564210
H8    H     H_    0.290708 0.824148 0.266388 0.380786
O35   O     O_3   0.436346 0.758158 0.368740 -0.526396
H9    H     H_    0.457457 0.697414 0.392988 0.378469
O36   O     O_3   0.102593 0.027723 0.131754 -0.571056
H10   H     H_    0.144414 0.010705 0.100288 0.339556
O37   O     O_3   0.180970 0.991295 0.387061 -0.560054
H11   H     H_    0.154014 0.018841 0.420769 0.335286
O38   O     O_3   0.057939 0.971667 0.211115 -0.615981
H12   H     H_    0.081144 0.900586 0.228797 0.368838
Br11  Br    Br    0.666488 0.896347 0.713147 -0.363056
Br12  Br    Br    0.044753 0.952990 0.322068 -0.337077
Br13  Br    Br    0.236204 0.319505 0.109220 -0.297241
O39   O     O_3   0.288849 0.353907 0.203323 -0.613708
H13   H     H_    0.276438 0.420712 0.222928 0.387310
O40   O     O_3   0.310301 0.338651 0.305678 -0.606830
H14   H     H_    0.374268 0.329700 0.285255 0.328460
Br14  Br    Br    0.168132 0.383757 0.391090 -0.195345
O41   O     O_3   0.511745 0.406330 0.140250 -0.594956
H15   H     H_    0.487226 0.388352 0.108849 0.362044
Br15  Br    Br    0.458172 0.361937 0.402729 -0.269797
Br16  Br    Br    0.446213 0.543591 0.223346 -0.346142
Br17  Br    Br    0.539911 0.496196 0.334887 -0.378295
Br18  Br    Br    0.748636 0.985423 0.103326 -0.349020
O42   O     O_3   0.493739 0.863294 0.804326 -0.554527
H16   H     H_    0.449614 0.835810 0.822725 0.360308
O43   O     O_3   0.870736 0.891372 0.193712 -0.631658
H17   H     H_    0.911363 0.917928 0.172359 0.398392
O44   O     O_3   0.869048 0.864511 0.293165 -0.568187
H18   H     H_    0.927068 0.814154 0.269159 0.396333
O45   O     O_3   0.828060 0.957056 0.375255 -0.538654
H19   H     H_    0.854491 0.983303 0.403752 0.355949
Br19  Br    Br    0.421402 0.694708 0.728374 -0.256607
O46   O     O_3   0.657262 0.492225 0.788703 -0.596699
H20   H     H_    0.717866 0.454842 0.813308 0.339157
O47   O     O_3   0.137083 0.978795 0.783719 -0.590621
H21   H     H_    0.141287 0.940556 0.752135 0.366175
O48   O     O_3   0.979578 0.182501 0.712511 -0.557562
H22   H     H_    0.005756 0.110909 0.693911 0.339694
O49   O     O_3   0.349153 0.962064 0.730453 -0.606672
H23   H     H_    0.401855 0.984193 0.715879 0.379142

loop_
_geom_bond_atom_site_label_1
_geom_bond_atom_site_label_2
_ccdc_geom_bond_type
C83   C87   A    
O41   H15   S    
O48   H22   S    
C73   C74   A    
C34   O25   A    
C43   Br7   S    
Cr4   O14   S    
C5    Br19  S    
C74   C83   A    
C43   C44   A    
C2    C12   S    
O38   H12   S    
C7    C8    S    
Cr3   O23   S    
O44   H18   S    
C46   O35   S    
Cr4   O13   S    
C11   C19   S    
O36   H10   S    
C59   O38   S    
Cr5   O16   S    
C91   O8    A    
C49   O34   S    
C84   O44   S    
C19   C21   S    
C78   Br1   S    
C73   C90   A    
C18   C19   S    
C93   O6    A    
C5    C6    S    
C94   O15   A    
C86   C88   A    
C66   C68   A    
C67   O31   S    
C65   C70   A    
C17   C20   S    
C7    O42   S    
Cr4   O19   S    
C41   C42   A    
C79   O41   S    
C66   O40   S    
C69   C71   A    
C1    O20   A    
C38   Br8   S    
C33   C35   S    
C68   C69   A    
Cr6   O10   S    
C44   C53   A    
C40   C43   A    
C23   O1    A    
O37   H11   S    
C33   O28   S    
C16   C17   S    
C56   C72   S    
C74   C77   A    
C38   C54   A    
C1    C28   S    
O33   H7    S    
C31   C33   S    
C96   O13   A    
C63   Br14  S    
C56   O24   A    
C80   C96   S    
Cr6   O19   S    
C55   C72   A    
Cr1   O25   S    
C23   O23   A    
C15   C23   S    
C25   C32   S    
Cr2   O26   S    
C42   Br10  S    
Cr4   O7    S    
C77   Br17  S    
C13   O47   S    
C8    C78   S    
C18   O27   S    
C61   C62   A    
C67   C78   S    
C4    C7    S    
C16   Br3   S    
C50   O33   S    
C45   O3    A    
C81   C82   A    
C39   C42   A    
C95   O16   A    
C25   C29   S    
Cr2   O21   S    
Cr3   O3    S    
C3    C67   S    
Cr4   O6    S    
C63   C64   A    
C51   C52   A    
C32   C35   S    
O40   H14   S    
C76   C77   A    
C47   C49   A    
C9    C89   T    
C53   O32   S    
C94   O14   A    
C86   C87   A    
C58   C70   A    
C21   O49   S    
C6    C8    S    
C95   O17   A    
C25   C26   S    
C85   C86   A    
Cr5   O19   S    
Cr2   O5    S    
O43   H17   S    
O47   H21   S    
C51   C53   A    
C64   C66   A    
C75   C76   A    
C34   C90   S    
O45   H19   S    
C4    C78   S    
C29   C30   S    
C26   Br4   S    
C45   O2    A    
C61   O36   S    
C11   C16   S    
C47   C48   A    
C12   O22   A    
C85   O43   S    
C29   O30   S    
C46   C54   A    
C50   C51   A    
C13   C21   S    
C59   C60   A    
C93   O11   A    
C32   C37   S    
C84   C85   A    
C89   C92   S    
C56   O4    A    
Cr1   O1    S    
O46   H20   S    
C81   C90   A    
C75   C87   A    
C15   C24   T    
C45   C54   S    
C49   C50   A    
C82   C84   A    
C55   C57   A    
O39   H13   S    
C27   C93   S    
C1    O12   A    
C81   O45   S    
C31   O29   S    
C3    C4    S    
C2    C10   T    
C3    O46   S    
C3    C5    S    
C6    C67   S    
Cr6   O18   S    
C5    C7    S    
Cr2   O20   S    
Cr3   O4    S    
C46   C47   A    
C40   C41   A    
C30   C33   S    
C20   C21   S    
C29   C31   S    
C41   Br9   S    
C96   O18   A    
C31   C32   S    
C92   O10   A    
C57   C65   A    
Cr1   O24   S    
C57   C60   A    
C8    Br11  S    
C16   C18   S    
C35   Br6   S    
C6    C10   S    
O29   H3    S    
C92   O9    A    
C26   C30   S    
Cr1   O12   S    
C30   C36   S    
C27   C36   T    
Cr5   O9    S    
Cr3   O5    S    
O28   H2    S    
C17   C22   S    
C88   Br18  S    
C13   C17   S    
O31   H5    S    
C11   O48   S    
Cr5   O15   S    
C64   C65   A    
C91   O7    A    
C62   C94   S    
C19   C24   S    
Cr5   O8    S    
C80   C88   A    
Cr6   O11   S    
C40   C52   A    
O32   H6    S    
O49   H23   S    
C11   C13   S    
C14   C22   T    
C38   C39   A    
C12   O21   A    
C28   C37   T    
C58   C61   A    
Cr2   O2    S    
C55   O37   S    
C60   Br12  S    
C62   C71   A    
C18   C20   S    
C76   Br16  S    
C73   Br15  S    
C69   C70   A    
C25   Br5   S    
C58   C59   A    
C14   C91   S    
O42   H16   S    
C79   C80   A    
Cr1   O5    S    
C26   C35   S    
C48   C52   A    
C63   C72   A    
C34   O26   A    
C82   C83   A    
C71   Br13  S    
O35   H9    S    
C44   C95   S    
C39   C48   A    
C20   Br2   S    
C4    C9    S    
O30   H4    S    
C75   C79   A    
Cr6   O17   S    
O27   H1    S    
Cr3   O22   S    
O34   H8    S    
C68   O39   S    
