data_mof_unit_12254.cif
_audit_creation_date              2012-12-10T18:53:47-0500
_audit_creation_method            fapswitch 2.2
_symmetry_space_group_name_H-M    P1
_symmetry_Int_Tables_number       1
_space_group_crystal_system       triclinic
_cell_length_a                    10.640913
_cell_length_b                    9.837409
_cell_length_c                    19.197909
_cell_angle_alpha                 90.028215
_cell_angle_beta                  89.879772
_cell_angle_gamma                 90.689872
_cell_volume                      2009.46785848

loop_
_atom_site_label
_atom_site_type_symbol
_atom_type_description
_atom_site_fract_x
_atom_site_fract_y
_atom_site_fract_z
_atom_type_partial_charge
C1    C     C_R   0.260442 0.499115 0.499869 0.922842
C2    C     C_R   0.739489 0.500962 0.498802 0.926945
C3    C     C_R   0.445767 0.500286 0.929802 0.287666
C4    C     C_R   0.447971 0.500679 0.070291 0.288461
C5    C     C_R   0.499676 0.499960 0.365473 0.859003
C6    C     C_R   0.498898 0.500053 0.634528 0.857952
C7    C     C_R   0.065066 0.514436 0.563720 0.105363
C8    C     C_R   0.934757 0.490501 0.434196 0.105587
C9    C     C_R   0.933785 0.513744 0.563535 0.101412
C10   C     C_R   0.065861 0.479269 0.435087 0.097670
C11   C     C_R   0.872075 0.503353 0.498747 -0.144925
C12   C     C_R   0.127790 0.496671 0.499577 -0.151888
C13   C     C_R   0.427796 0.071057 0.546405 -0.072466
C14   C     C_R   0.572141 0.928991 0.453588 -0.075548
C15   C     C_R   0.572176 0.072887 0.453597 -0.069367
C16   C     C_R   0.427813 0.927124 0.546414 -0.070886
C17   C     C_R   0.494354 0.623058 0.253403 -0.215752
C18   C     C_R   0.485659 0.376910 0.746514 -0.214655
C19   C     C_R   0.476061 0.623386 0.745854 -0.209305
C20   C     C_R   0.474271 0.376923 0.254135 -0.210375
C21   C     C_R   0.478230 0.623525 0.181807 -0.169741
C22   C     C_R   0.468987 0.376766 0.818114 -0.169347
C23   C     C_R   0.459640 0.623287 0.817455 -0.167029
C24   C     C_R   0.458222 0.377356 0.182546 -0.167701
C25   C     C_R   0.459845 0.500672 0.145928 0.089156
C26   C     C_R   0.456155 0.499990 0.854070 0.091176
C27   C     C_R   0.491728 0.499808 0.289937 -0.022478
C28   C     C_R   0.488967 0.500202 0.710032 -0.021171
H1    H     H_    0.507644 0.719169 0.280109 0.157938
H2    H     H_    0.494746 0.280522 0.719782 0.157199
H3    H     H_    0.477591 0.719811 0.718624 0.153608
H4    H     H_    0.471207 0.280581 0.281418 0.155531
H5    H     H_    0.370083 0.124883 0.583491 0.120949
H6    H     H_    0.629732 0.875324 0.416440 0.119603
H7    H     H_    0.629892 0.128181 0.416512 0.123502
H8    H     H_    0.370093 0.871819 0.583497 0.121694
N1    N     N_R   0.500000 0.857200 0.500000 -0.081153
N2    N     N_R   0.500000 0.142800 0.500000 -0.079619
N3    N     N_R   0.443355 0.381812 0.034649 -0.180329
N4    N     N_R   0.447631 0.619191 0.965462 -0.180319
N5    N     N_R   0.442338 0.381615 0.965582 -0.180542
N6    N     N_R   0.448724 0.619388 0.034530 -0.180456
O1    O     O_R   0.316770 0.614620 0.500000 -0.620248
O2    O     O_R   0.683230 0.385380 0.500000 -0.629941
O3    O     O_R   0.683230 0.614620 0.500000 -0.618630
O4    O     O_R   0.316770 0.385380 0.500000 -0.627462
O5    O     O_R   0.499990 0.614700 0.398140 -0.627727
O6    O     O_R   0.500010 0.385300 0.601860 -0.627261
O7    O     O_R   0.500010 0.614700 0.601860 -0.627946
O8    O     O_R   0.499990 0.385300 0.398140 -0.633595
Zn1   Zn    Zn3+2 0.500000 0.653120 0.500000 0.930182
Zn2   Zn    Zn3+2 0.500000 0.346880 0.500000 0.930157
C29   C     C_3   0.139004 0.528839 0.631745 -0.406440
C30   C     C_3   0.169651 0.389973 0.662530 -0.875653
H9    H     H_    0.083004 0.327515 0.669509 0.253510
H10   H     H_    0.235149 0.334446 0.628046 0.269719
H11   H     H_    0.214869 0.403774 0.714136 0.260972
H12   H     H_    0.227484 0.587577 0.623918 0.203781
H13   H     H_    0.087932 0.589344 0.671044 0.216395
C31   C     C_3   0.860025 0.489742 0.365874 -0.395228
C32   C     C_3   0.819403 0.632813 0.345129 -0.871438
H14   H     H_    0.743294 0.669423 0.379185 0.272805
H15   H     H_    0.899124 0.706176 0.348430 0.259755
H16   H     H_    0.783543 0.631511 0.290846 0.248543
H17   H     H_    0.912516 0.447677 0.321396 0.215264
H18   H     H_    0.776050 0.422223 0.370344 0.193246
C33   C     C_3   0.858658 0.521760 0.631580 -0.399300
C34   C     C_3   0.829340 0.668609 0.651279 -0.847123
H19   H     H_    0.916917 0.730024 0.656566 0.246722
H20   H     H_    0.769252 0.716549 0.611373 0.284284
H21   H     H_    0.778242 0.670099 0.701765 0.248973
H22   H     H_    0.769355 0.462942 0.628001 0.197760
H23   H     H_    0.908205 0.472264 0.675246 0.215120
C35   C     C_3   0.140394 0.446491 0.368820 -0.403616
C36   C     C_3   0.167805 0.572901 0.325030 -0.842195
H24   H     H_    0.220227 0.649843 0.356223 0.267864
H25   H     H_    0.225697 0.544561 0.279270 0.257360
H26   H     H_    0.080224 0.617923 0.305216 0.266280
H27   H     H_    0.231445 0.398659 0.380689 0.213649
H28   H     H_    0.092657 0.366810 0.337417 0.190556
H29   H     H_    0.480778 0.720032 0.154709 0.151653
H30   H     H_    0.467239 0.280218 0.845183 0.151101
H31   H     H_    0.450230 0.719802 0.843990 0.149471
H32   H     H_    0.444605 0.281109 0.156058 0.150472

loop_
_geom_bond_atom_site_label_1
_geom_bond_atom_site_label_2
_ccdc_geom_bond_type
C17   H1    S    
C19   H3    S    
C4    C25   S    
C29   H13   S    
N3    N5    A    
C29   C30   S    
C5    O5    A    
C6    O6    A    
C22   H30   S    
C34   H21   S    
N1    Zn1   S    
C1    O4    A    
N2    Zn2   S    
O3    Zn1   S    
O4    Zn2   S    
C33   H22   S    
C23   C26   A    
C32   H15   S    
C5    C27   S    
C1    O1    A    
C6    C28   S    
C20   C24   A    
C2    O2    A    
C34   H19   S    
O7    Zn1   S    
O8    Zn2   S    
C33   H23   S    
C16   N1    A    
O2    Zn2   S    
N4    N6    A    
C31   H18   S    
C35   H28   S    
C1    C12   S    
C2    C11   S    
C10   C12   A    
C15   H7    S    
C2    O3    A    
C7    C12   A    
C30   H10   S    
C35   C36   S    
C33   C34   S    
C17   C27   A    
C18   C28   A    
C24   C25   A    
O5    Zn1   S    
C17   C21   A    
C31   C32   S    
C32   H16   S    
C19   C23   A    
C36   H24   S    
C9    C33   S    
C15   N2    A    
C13   H5    S    
C36   H25   S    
C31   H17   S    
C4    N3    A    
C19   C28   A    
C9    C11   A    
C13   N2    A    
C23   H31   S    
C18   H2    S    
C8    C10   A    
C21   H29   S    
C3    N4    A    
C35   H27   S    
C5    O8    A    
C7    C29   S    
C20   H4    S    
C7    C9    A    
C21   C25   A    
C30   H9    S    
C3    N5    A    
C18   C22   A    
C3    C26   S    
C14   H6    S    
C29   H12   S    
C20   C27   A    
C24   H32   S    
C16   H8    S    
C14   N1    A    
C10   C35   S    
O1    Zn1   S    
C4    N6    A    
C8    C11   A    
C6    O7    A    
C32   H14   S    
C36   H26   S    
O6    Zn2   S    
C34   H20   S    
C22   C26   A    
C13   C16   A    
C14   C15   A    
C8    C31   S    
C30   H11   S    
