data_mof_unit_50864.cif
_audit_creation_date              2012-12-10T17:49:38-0500
_audit_creation_method            fapswitch 2.2
_symmetry_space_group_name_H-M    P1
_symmetry_Int_Tables_number       1
_space_group_crystal_system       triclinic
_cell_length_a                    14.758681
_cell_length_b                    14.76798
_cell_length_c                    15.880424
_cell_angle_alpha                 76.289172
_cell_angle_beta                  103.647376
_cell_angle_gamma                 115.572272
_cell_volume                      2997.73194737

loop_
_atom_site_label
_atom_site_type_symbol
_atom_type_description
_atom_site_fract_x
_atom_site_fract_y
_atom_site_fract_z
_atom_type_partial_charge
C1    C     C_R   0.880050 0.312276 0.510358 0.790196
C2    C     C_3   0.082865 0.463196 0.078481 0.277148
C3    C     C_3   0.995465 0.494590 0.083476 -0.056091
C4    C     C_3   0.022872 0.604562 0.030766 -0.519247
C5    C     C_3   0.012906 0.604501 0.931615 0.343670
C6    C     C_1   0.996496 0.497211 0.175282 0.040574
C7    C     C_1   0.999953 0.498021 0.824985 0.092299
C8    C     C_1   0.000441 0.498760 0.749472 -0.174004
C9    C     C_R   0.812427 0.204893 0.505484 -0.054468
C10   C     C_R   0.188124 0.795856 0.463023 -0.249522
C11   C     C_R   0.782704 0.026855 0.530119 -0.203851
C12   C     C_R   0.000222 0.499698 0.659707 0.820657
C13   C     C_R   0.848969 0.127879 0.534127 -0.185340
C14   C     C_R   0.710159 0.180013 0.468950 -0.276865
C15   C     C_R   0.640654 0.078345 0.467171 0.084099
C16   C     C_R   0.678659 0.001325 0.499397 0.166074
C17   C     C_R   0.533860 0.050965 0.441609 0.061248
C18   C     C_R   0.466134 0.946584 0.453736 0.091882
C19   C     C_R   0.507738 0.872495 0.485835 -0.179500
C20   C     C_R   0.611987 0.899487 0.505505 -0.266737
C21   C     C_R   0.491884 0.124731 0.410160 -0.239538
C22   C     C_R   0.389744 0.099672 0.409359 -0.189903
C23   C     C_R   0.119957 0.687854 0.482380 0.870299
C24   C     C_R   0.324245 0.998907 0.430122 0.038376
C25   C     C_R   0.359302 0.920770 0.442202 -0.011662
C26   C     C_R   0.223968 0.975722 0.438517 -0.319911
C27   C     C_R   0.156192 0.874444 0.458403 0.436004
C28   C     C_R   0.285688 0.819989 0.444565 0.354802
C29   C     C_R   0.704417 0.652916 0.345626 -0.431757
C30   C     C_R   0.789179 0.627571 0.369273 0.715394
C31   C     C_R   0.720860 0.516698 0.495035 -0.079571
C32   C     C_R   0.628303 0.531202 0.469757 0.018416
C33   C     C_R   0.624080 0.604235 0.394456 0.102748
C34   C     C_R   0.999799 0.500349 0.340278 0.801714
C35   C     C_R   0.541487 0.479049 0.516100 -0.096363
C36   C     C_R   0.456721 0.508929 0.488385 0.024714
C37   C     C_R   0.459824 0.585291 0.414987 -0.178594
C38   C     C_R   0.540695 0.630410 0.368566 -0.184131
C39   C     C_R   0.533990 0.397318 0.587485 0.373506
C40   C     C_R   0.453273 0.356778 0.635657 0.446487
C41   C     C_R   0.372327 0.388178 0.609703 -0.092147
C42   C     C_R   0.371059 0.461834 0.534602 -0.097318
C43   C     C_R   0.290770 0.343881 0.657361 -0.343573
C44   C     C_R   0.207266 0.370789 0.630533 0.678383
C45   C     C_3   0.077290 0.455957 0.980455 0.244541
C46   C     C_R   0.283227 0.485214 0.509451 -0.025299
C47   C     C_3   0.890387 0.421611 0.940769 0.115607
C48   C     C_3   0.889321 0.412803 0.042066 0.783894
C49   C     C_1   0.998193 0.499228 0.250673 -0.205474
C50   C     C_3   0.998143 0.497389 0.916936 -0.085321
Cu1   Cu    Cu3+1 0.081750 0.475690 0.522550 0.989627
Cu2   Cu    Cu3+1 0.918250 0.524310 0.477450 0.997067
H1    H     H_    0.067029 0.385724 0.117831 0.104600
H2    H     H_    0.640254 0.840093 0.531274 0.156572
H3    H     H_    0.928312 0.145477 0.560716 0.173494
H4    H     H_    0.686273 0.241760 0.444772 0.148022
H5    H     H_    0.040832 0.372640 0.979093 0.077002
H6    H     H_    0.461734 0.792984 0.502489 0.211584
H7    H     H_    0.536546 0.203532 0.389299 0.133566
H8    H     H_    0.538231 0.687640 0.311871 0.136882
H9    H     H_    0.274410 0.538827 0.452634 0.173026
H10   H     H_    0.737544 0.472626 0.555774 0.229043
H11   H     H_    0.290124 0.286370 0.714106 0.185951
H12   H     H_    0.879415 0.346024 0.927362 0.106659
H13   H     H_    0.942836 0.616797 0.897956 0.150526
H14   H     H_    0.101959 0.654540 0.055239 0.255463
N1    N     N_R   0.795410 0.560790 0.443550 -0.229686
N2    N     N_R   0.204590 0.439170 0.556520 -0.219163
O1    O     O_R   0.977910 0.338120 0.529720 -0.544034
O2    O     O_R   0.839850 0.379180 0.491640 -0.599279
O3    O     O_R   0.069060 0.479460 0.639610 -0.546571
O4    O     O_R   0.931000 0.520530 0.601530 -0.577608
O5    O     O_R   0.160150 0.620820 0.508360 -0.554049
O6    O     O_R   0.022090 0.661880 0.470280 -0.504639
O7    O     O_R   0.069000 0.479470 0.398470 -0.589630
O8    O     O_R   0.930940 0.520540 0.360390 -0.544080
O9    O     O_3   0.172304 0.480502 0.954288 -0.589113
C51   C     C_3   0.230575 0.584823 0.932207 -0.115239
H15   H     H_    0.231644 0.631855 0.977548 0.233350
H16   H     H_    0.205934 0.611820 0.862958 0.184857
H17   H     H_    0.310492 0.595172 0.936644 0.129997
O10   O     O_3   0.178870 0.534514 0.112268 -0.568567
C52   C     C_3   0.241280 0.485415 0.164365 -0.315255
H18   H     H_    0.317616 0.544010 0.183347 0.179718
H19   H     H_    0.250702 0.435427 0.127544 0.188490
H20   H     H_    0.209953 0.441142 0.225615 0.157284
H21   H     H_    0.978090 0.643367 0.041558 0.125786
O11   O     O_3   0.304791 0.746481 0.420469 -0.592807
C53   C     C_3   0.276997 0.750245 0.328744 -0.320771
H22   H     H_    0.325891 0.823810 0.293573 0.168308
H23   H     H_    0.195318 0.737069 0.307782 0.154005
H24   H     H_    0.287853 0.688833 0.309141 0.180439
O12   O     O_3   0.061411 0.851279 0.478767 -0.555967
C54   C     C_3   0.003710 0.890540 0.407843 -0.233947
H25   H     H_    0.922495 0.850575 0.416316 0.189298
H26   H     H_    0.010022 0.877728 0.343429 0.170555
H27   H     H_    0.025527 0.972549 0.407695 0.131579
H28   H     H_    0.362079 0.159781 0.393022 0.136570
H29   H     H_    0.812166 0.968221 0.554295 0.139530
H30   H     H_    0.200174 0.036795 0.434051 0.152522
O13   O     O_3   0.122872 0.322358 0.673258 -0.566155
C55   C     C_3   0.150809 0.329550 0.763675 -0.304159
H31   H     H_    0.082256 0.316238 0.790264 0.194707
H32   H     H_    0.208417 0.406275 0.776381 0.170159
H33   H     H_    0.178199 0.269696 0.799806 0.147970
O14   O     O_3   0.457744 0.289648 0.712654 -0.565465
C56   C     C_3   0.403402 0.188128 0.696704 -0.317970
H34   H     H_    0.347111 0.178583 0.635148 0.135856
H35   H     H_    0.360859 0.143147 0.752016 0.174105
H36   H     H_    0.457816 0.155121 0.695695 0.194494
H37   H     H_    0.701203 0.710666 0.289764 0.147679
O15   O     O_3   0.871817 0.676388 0.324362 -0.554003
C57   C     C_3   0.840893 0.674955 0.233330 -0.389006
H38   H     H_    0.816112 0.737854 0.201982 0.154898
H39   H     H_    0.780266 0.600454 0.218229 0.158227
H40   H     H_    0.907364 0.687772 0.203889 0.187552
O16   O     O_3   0.813562 0.452461 0.886875 -0.593867
C58   C     C_3   0.725672 0.367991 0.861693 -0.169469
H41   H     H_    0.697752 0.310690 0.919512 0.177691
H42   H     H_    0.740693 0.332770 0.814751 0.161754
H43   H     H_    0.664648 0.394545 0.827819 0.211773
H44   H     H_    0.400379 0.612506 0.390878 0.145395
O17   O     O_3   0.603642 0.353220 0.612723 -0.581571
C59   C     C_3   0.579234 0.281474 0.557330 -0.344057
H45   H     H_    0.595687 0.319835 0.490299 0.157544
H46   H     H_    0.498387 0.226884 0.553200 0.161027
H47   H     H_    0.626870 0.237152 0.584365 0.205399
O18   O     O_3   0.887938 0.313699 0.079015 -0.674123
C60   C     C_3   0.833350 0.264448 0.150535 -0.252649
H48   H     H_    0.750419 0.231812 0.126369 0.199197
H49   H     H_    0.850159 0.315216 0.198642 0.173305
H50   H     H_    0.855239 0.200659 0.185472 0.158495
O19   O     O_3   0.797177 0.415392 0.055314 -0.563143
C61   C     C_3   0.794675 0.511463 0.046011 -0.315816
H51   H     H_    0.816657 0.559924 0.983405 0.187579
H52   H     H_    0.839000 0.548988 0.103898 0.148512
H53   H     H_    0.714947 0.499734 0.044743 0.183961
O20   O     O_3   0.097992 0.683165 0.896034 -0.589621
C62   C     C_3   0.086694 0.776532 0.874417 -0.365279
H54   H     H_    0.072594 0.797210 0.931610 0.158422
H55   H     H_    0.024657 0.774178 0.818260 0.177835
H56   H     H_    0.158272 0.837104 0.853959 0.195311

loop_
_geom_bond_atom_site_label_1
_geom_bond_atom_site_label_2
_ccdc_geom_bond_type
C10   C27   A    
C14   H4    S    
Cu2   O2    S    
O12   C54   S    
C22   H28   S    
C56   H35   S    
C41   C42   A    
C36   C42   A    
C19   C20   A    
C9    C14   A    
C3    C6    S    
C13   H3    S    
O18   C60   S    
C61   H53   S    
C43   H11   S    
C7    C8    T    
C4    H21   S    
O9    C51   S    
C25   C28   A    
C31   N1    A    
C45   H5    S    
C26   C27   A    
O13   C55   S    
O17   C59   S    
C40   O14   S    
C36   C37   A    
C37   C38   A    
C24   C26   A    
C60   H48   S    
Cu2   O6    S    
C62   H56   S    
C51   H16   S    
O14   C56   S    
C15   C16   A    
C29   C33   A    
C3    C48   S    
C39   O17   S    
C55   H33   S    
C11   H29   S    
C18   C19   A    
C42   C46   A    
C9    C13   A    
C58   H41   S    
C35   C36   A    
C28   O11   S    
C47   C48   S    
C56   H34   S    
C53   H23   S    
C30   N1    A    
C16   C20   A    
C34   O7    A    
C54   H26   S    
C57   H40   S    
C12   O4    A    
C2    C45   S    
C21   C22   A    
C41   C43   A    
C31   H10   S    
C55   H31   S    
C18   C25   A    
Cu1   O3    S    
C23   O5    A    
O15   C57   S    
C47   C50   S    
C19   H6    S    
C62   H54   S    
C46   H9    S    
Cu1   Cu2   S    
C32   C35   A    
C48   O19   S    
C5    O20   S    
C1    C9    S    
C24   C25   A    
C20   H2    S    
C47   H12   S    
C51   H15   S    
C61   H52   S    
C54   H27   S    
C1    O1    A    
C30   O15   S    
C58   H43   S    
C35   C39   A    
C43   C44   A    
C46   N2    A    
C29   C30   A    
Cu2   O4    S    
C48   O18   S    
C11   C16   A    
C52   H18   S    
C27   O12   S    
C8    C12   S    
C17   C18   A    
C62   H55   S    
C53   H24   S    
C55   H32   S    
Cu2   N1    S    
C59   H47   S    
C38   H8    S    
C5    H13   S    
C40   C41   A    
C52   H19   S    
C12   O3    A    
O19   C61   S    
C56   H36   S    
C22   C24   A    
C5    C50   S    
C2    O10   S    
C23   O6    A    
C3    C4    S    
C39   C40   A    
C59   H46   S    
C57   H38   S    
C10   C28   A    
C15   C17   A    
C34   C49   S    
C29   H37   S    
C31   C32   A    
Cu1   O5    S    
C7    C50   S    
Cu1   O7    S    
C4    C5    S    
Cu2   O8    S    
C2    H1    S    
C1    O2    A    
C44   O13   S    
C21   H7    S    
C61   H51   S    
C10   C23   S    
C33   C38   A    
C32   C33   A    
C60   H50   S    
C2    C3    S    
O16   C58   S    
C4    H14   S    
C11   C13   A    
C51   H17   S    
C45   C50   S    
Cu1   N2    S    
C6    C49   T    
C54   H25   S    
C58   H42   S    
C44   N2    A    
O20   C62   S    
C37   H44   S    
C47   O16   S    
C52   H20   S    
O11   C53   S    
O10   C52   S    
C34   O8    A    
C14   C15   A    
C45   O9    S    
Cu1   O1    S    
C57   H39   S    
C53   H22   S    
C26   H30   S    
C59   H45   S    
C60   H49   S    
C17   C21   A    
