data_mof_unit_14494.cif
_audit_creation_date              2012-10-26T18:52:13-0400
_audit_creation_method            fapswitch 2.2
_symmetry_space_group_name_H-M    P1
_symmetry_Int_Tables_number       1
_space_group_crystal_system       triclinic
_cell_length_a                    13.89025
_cell_length_b                    14.660234
_cell_length_c                    14.660031
_cell_angle_alpha                 116.257415
_cell_angle_beta                  106.921488
_cell_angle_gamma                 72.155937
_cell_volume                      2505.8249435

loop_
_atom_site_label
_atom_site_type_symbol
_atom_type_description
_atom_site_fract_x
_atom_site_fract_y
_atom_site_fract_z
_atom_type_partial_charge
C1    C     C_R   0.517266 0.119960 0.689817 0.567556
C2    C     C_R   0.581712 0.500070 0.874200 0.432943
C3    C     C_R   0.654956 0.380451 0.105539 0.462899
C4    C     C_R   0.552992 0.606627 0.899449 0.450610
C5    C     C_R   0.314855 0.303253 0.338006 0.239236
C6    C     C_R   0.693408 0.690031 0.650894 0.228340
C7    C     C_R   0.344745 0.220803 0.370736 0.594353
C8    C     C_R   0.655032 0.780378 0.629974 0.572914
C9    C     C_R   0.493085 0.282118 0.481534 0.043907
C10   C     C_R   0.510475 0.714461 0.514430 0.047043
C11   C     C_R   0.473404 0.362983 0.446240 -0.032118
C12   C     C_R   0.487515 0.880040 0.310252 0.572125
C13   C     C_R   0.551280 0.615190 0.520051 -0.019713
C14   C     C_R   0.381266 0.373597 0.374141 -0.079931
C15   C     C_R   0.643545 0.604712 0.591838 -0.049340
C16   C     C_R   0.687153 0.987236 0.504808 0.550365
C17   C     C_R   0.312818 0.012677 0.494995 0.576397
C18   C     C_R   0.538694 0.436562 0.483942 0.021316
C19   C     C_R   0.502044 0.527661 0.459904 0.015041
C20   C     C_R   0.421373 0.523515 0.372860 0.240149
C21   C     C_R   0.640601 0.422391 0.540873 0.264878
C22   C     C_R   0.359782 0.451158 0.335983 -0.017681
C23   C     C_R   0.591504 0.354719 0.924464 -0.032200
C24   C     C_R   0.687698 0.507467 0.598089 0.024107
C25   C     C_1   0.206928 0.016804 0.487269 0.067117
C26   C     C_1   0.792921 0.982799 0.511735 0.077729
C27   C     C_2   0.012466 0.018350 0.470919 0.388850
C28   C     C_2   0.987266 0.980529 0.526774 0.396016
C29   C     C_1   0.881713 0.980937 0.518552 0.117512
C30   C     C_1   0.118036 0.018393 0.479711 0.106201
C31   C     C_R   0.541266 0.188867 0.800997 -0.013960
C32   C     C_R   0.499862 0.811032 0.200716 -0.019083
C33   C     C_R   0.600672 0.219911 0.983446 -0.034590
C34   C     C_R   0.574103 0.637841 0.081021 -0.032052
C35   C     C_R   0.486033 0.777220 0.019401 -0.041328
C36   C     C_R   0.558614 0.157167 0.883907 0.236121
C37   C     C_R   0.459664 0.843395 0.116287 0.221656
C38   C     C_R   0.553554 0.288920 0.823702 -0.099665
C39   C     C_R   0.560516 0.710281 0.181746 -0.088234
C40   C     C_R   0.616942 0.317672 0.004456 -0.056758
C41   C     C_R   0.539036 0.674510 0.000133 -0.044801
C42   C     C_R   0.595870 0.459517 0.949794 -0.071988
C43   C     C_R   0.610372 0.528524 0.055853 -0.078269
C44   C     C_R   0.653306 0.484265 0.131016 0.464223
Cu1   Cu    Cu3+1 0.526370 0.916390 0.524860 1.147259
Cu2   Cu    Cu3+1 0.473630 0.083610 0.475140 1.154485
F1    F     F_    0.060629 0.942092 0.592899 -0.598441
F2    F     F_    0.939227 0.056081 0.404211 -0.579062
F3    F     F_    0.690085 0.342513 0.181336 -0.526351
F4    F     F_    0.532543 0.642802 0.823490 -0.579509
F5    F     F_    0.699554 0.538000 0.227824 -0.549979
F6    F     F_    0.599682 0.438592 0.776911 -0.602111
F7    F     F_    0.707378 0.858405 0.676421 -0.555309
F8    F     F_    0.284053 0.151543 0.335924 -0.519944
H1    H     H_    0.594210 0.689685 0.247176 0.254462
H2    H     H_    0.885297 0.807713 0.793706 0.389888
H3    H     H_    0.403296 0.520229 0.118838 0.365188
H4    H     H_    0.892263 0.255579 0.540139 0.395631
H5    H     H_    0.213004 0.009806 0.154505 0.413601
H6    H     H_    0.406083 0.956306 0.766642 0.382517
H7    H     H_    0.528780 0.315661 0.761551 0.217648
H8    H     H_    0.616583 0.194091 0.046097 0.231865
H9    H     H_    0.457919 0.803389 0.956105 0.229720
H10   H     H_    0.297821 0.452815 0.271688 0.238248
H11   H     H_    0.763646 0.494099 0.642762 0.225610
H12   H     H_    0.435681 0.731426 0.470404 0.200643
H13   H     H_    0.554005 0.276844 0.544863 0.212753
H14   H     H_    0.062174 0.245158 0.185965 0.391173
N1    N     N_R   0.433980 0.209250 0.437830 -0.272526
N2    N     N_R   0.566020 0.790750 0.562170 -0.265620
O1    O     O_R   0.534760 0.019630 0.662610 -0.400553
O2    O     O_2   0.216797 0.291091 0.147801 -0.211987
O3    O     O_3   0.123624 0.235050 0.238310 -0.406403
O4    O     O_2   0.784308 0.644231 0.818402 -0.189325
O5    O     O_2   0.894213 0.613448 0.700006 -0.254461
O6    O     O_3   0.831648 0.803733 0.823161 -0.381635
O7    O     O_2   0.329977 0.673417 0.298128 -0.268952
O8    O     O_2   0.515956 0.605546 0.301931 -0.280039
O9    O     O_3   0.391237 0.490813 0.162772 -0.482452
O10   O     O_2   0.737216 0.269220 0.609739 -0.281768
O11   O     O_2   0.688878 0.216544 0.420742 -0.203306
O12   O     O_R   0.465240 0.980370 0.337390 -0.407302
O13   O     O_3   0.842192 0.309053 0.516750 -0.434046
O14   O     O_2   0.419668 0.050766 0.181991 -0.195014
O15   O     O_2   0.319029 0.957552 0.016533 -0.230892
O16   O     O_3   0.276371 0.969848 0.183188 -0.442006
O17   O     O_2   0.604965 0.953164 0.840780 -0.188170
O18   O     O_2   0.498335 0.062872 0.972454 -0.199288
O19   O     O_3   0.412400 0.027113 0.780992 -0.491724
O20   O     O_R   0.490220 0.160840 0.620610 -0.539677
O21   O     O_R   0.509780 0.839160 0.379390 -0.492753
O22   O     O_R   0.663260 0.919400 0.523940 -0.451670
O23   O     O_R   0.336740 0.080600 0.476060 -0.427357
O24   O     O_R   0.618720 0.060610 0.481950 -0.479566
O25   O     O_R   0.381280 0.939390 0.518050 -0.504364
O26   O     O_2   0.135443 0.425595 0.292800 -0.241858
S1    S     S_3+6 0.195376 0.315740 0.251933 0.106856
S2    S     S_3+6 0.803662 0.685494 0.749426 0.118697
S3    S     S_3+6 0.414953 0.578304 0.284580 0.016678
S4    S     S_3+6 0.726038 0.299262 0.520894 0.068769
S5    S     S_3+6 0.367966 0.959544 0.123258 0.111574
S6    S     S_3+6 0.519796 0.046834 0.871021 0.094259

loop_
_geom_bond_atom_site_label_1
_geom_bond_atom_site_label_2
_ccdc_geom_bond_type
C27   F2    S    
C11   C18   A    
C1    O20   A    
H2    O6    S    
O19   S6    S    
Cu1   O1    S    
C18   C21   A    
H3    O9    S    
C12   O21   A    
C19   C20   A    
C3    F3    S    
C28   F1    S    
Cu1   Cu2   S    
O3    S1    S    
C20   S3    S    
C1    O1    A    
C23   C42   A    
C6    S2    S    
O9    S3    S    
C28   C29   S    
C35   C37   A    
C9    N1    A    
C11   C14   A    
C4    C41   A    
O6    S2    S    
C23   C40   A    
C1    C31   S    
C33   C36   A    
C36   S6    S    
C18   C19   A    
C32   C39   A    
Cu1   O22   S    
Cu2   N1    S    
C6    C15   A    
Cu2   O12   S    
C39   H1    S    
C33   H8    S    
C17   O25   A    
C38   H7    S    
C12   C32   S    
C27   C30   S    
O14   S5    D    
C34   C41   A    
C35   C41   A    
O2    S1    D    
C10   H12   S    
C16   C26   S    
C3    C44   A    
C33   C40   A    
C13   C19   A    
C34   C39   A    
O4    S2    D    
C5    C7    A    
C21   S4    S    
C6    C8    A    
H14   O3    S    
H6    O19   S    
O5    S2    D    
C4    F4    S    
C2    C4    A    
C43   C44   A    
C9    H13   S    
O17   S6    D    
Cu2   O24   S    
O26   S1    D    
C12   O12   A    
C32   C37   A    
C9    C11   A    
C5    C14   A    
C2    F6    S    
C24   H11   S    
C10   N2    A    
C44   F5    S    
C15   C24   A    
C20   C22   A    
C3    C40   A    
C16   O22   A    
O13   S4    S    
C13   C15   A    
C17   O23   A    
C42   C43   A    
Cu1   O25   S    
C27   C28   D    
O15   S5    D    
C25   C30   T    
Cu1   N2    S    
C16   O24   A    
C34   C43   A    
C5    S1    S    
C10   C13   A    
C8    F7    S    
C7    N1    A    
O18   S6    D    
Cu2   O20   S    
O11   S4    D    
C23   C38   A    
C8    N2    A    
C31   C38   A    
C17   C25   S    
C14   C22   A    
H5    O16   S    
H4    O13   S    
C37   S5    S    
Cu2   O23   S    
C2    C42   A    
O7    S3    D    
Cu1   O21   S    
C22   H10   S    
C26   C29   T    
C21   C24   A    
O8    S3    D    
C31   C36   A    
C35   H9    S    
C7    F8    S    
O16   S5    S    
O10   S4    D    
