data_mof_unit_26197.cif
_audit_creation_date              2013-03-05T15:49:57-0500
_audit_creation_method            fapswitch 2.2
_symmetry_space_group_name_H-M    P1
_symmetry_Int_Tables_number       1
_space_group_crystal_system       triclinic
_cell_length_a                    13.561883
_cell_length_b                    13.674066
_cell_length_c                    27.59107
_cell_angle_alpha                 90.415546
_cell_angle_beta                  90.006969
_cell_angle_gamma                 119.596278
_cell_volume                      4448.91312834

loop_
_atom_site_label
_atom_site_type_symbol
_atom_site_description
_atom_site_fract_x
_atom_site_fract_y
_atom_site_fract_z
_atom_type_partial_charge
O1    O     O_R   0.302900 0.805360 0.446400 -0.473873
O2    O     O_R   0.522090 0.841370 0.450730 -0.474737
C1    C     C_R   0.619841 0.898816 0.431412 0.550474
O3    O     O_R   0.693280 0.995650 0.447220 -0.495822
O4    O     O_R   0.657260 0.178740 0.451050 -0.478113
C2    C     C_R   0.599794 0.218532 0.431375 0.554865
O5    O     O_R   0.502640 0.195380 0.446850 -0.506126
O6    O     O_R   0.319630 0.976590 0.450330 -0.502527
C3    C     C_R   0.280344 0.879357 0.430459 0.548712
O7    O     O_R   0.303680 0.807790 0.552740 -0.524657
O8    O     O_R   0.522820 0.843620 0.549310 -0.486957
C4    C     C_R   0.621999 0.899286 0.568447 0.529676
O9    O     O_R   0.694060 0.998080 0.553560 -0.536165
O10   O     O_R   0.657980 0.180990 0.549630 -0.502873
C5    C     C_R   0.598775 0.219838 0.569739 0.536417
O11   O     O_R   0.503420 0.197810 0.553190 -0.526482
O12   O     O_R   0.320350 0.978840 0.548910 -0.511659
C6    C     C_R   0.277506 0.880988 0.567380 0.532384
Cr1   Cr    Cr6+3 0.417720 0.831920 0.499820 1.062294
Cr2   Cr    Cr6+3 0.668190 0.085770 0.500360 1.043770
Cr3   Cr    Cr6+3 0.414060 0.082260 0.499840 1.021623
O13   O     O_3   0.499990 0.999990 0.500010 -0.257369
C7    C     C_1   0.630958 0.264048 0.383706 0.029421
C8    C     C_R   0.764760 0.335152 0.267710 -0.048887
C9    C     C_R   0.776592 0.349134 0.217056 0.022131
C10   C     C_R   0.579647 0.307773 0.212626 -0.098422
C11   C     C_R   0.569911 0.294800 0.262710 -0.066878
C12   C     C_R   0.662552 0.309538 0.290380 0.047153
C13   C     C_R   0.681999 0.335319 0.189530 0.022247
C14   C     C_1   0.690623 0.360930 0.138652 -0.063175
C15   C     C_1   0.648994 0.289631 0.341657 0.001762
C16   C     C_1   0.699953 0.389211 0.096950 -0.013176
H1    H     H_    0.834640 0.342792 0.289592 0.150976
H2    H     H_    0.507525 0.298343 0.191881 0.121844
H3    H     H_    0.489909 0.273192 0.279888 0.138678
C17   C     C_1   0.236852 0.864444 0.382024 0.037262
C18   C     C_R   0.148163 0.906431 0.266470 -0.154249
C19   C     C_R   0.133860 0.905447 0.216014 -0.001197
C20   C     C_R   0.217770 0.784837 0.207734 -0.111737
C21   C     C_R   0.233073 0.786629 0.258150 0.214856
C22   C     C_R   0.194980 0.846025 0.287757 0.007785
C23   C     C_R   0.166085 0.840883 0.186560 -0.007881
C24   C     C_1   0.138282 0.822266 0.135507 -0.050944
C25   C     C_1   0.213341 0.855059 0.339484 0.012697
C26   C     C_1   0.104603 0.798574 0.094256 -0.012800
H4    H     H_    0.123181 0.955293 0.289343 0.127256
H5    H     H_    0.244283 0.737452 0.184797 0.141554
C27   C     C_1   0.634972 0.867722 0.383506 0.078015
C28   C     C_R   0.601496 0.725699 0.268829 0.225318
C29   C     C_R   0.608197 0.714812 0.218443 -0.077766
C30   C     C_R   0.696719 0.916314 0.208980 -0.093976
C31   C     C_R   0.691624 0.930499 0.259095 0.203427
C32   C     C_R   0.644545 0.834654 0.289432 0.017397
C33   C     C_R   0.654726 0.809333 0.188748 -0.045689
C34   C     C_1   0.668991 0.797331 0.137874 -0.060174
C35   C     C_1   0.641561 0.849482 0.341183 0.083707
C36   C     C_1   0.688869 0.786738 0.096255 -0.018479
H6    H     H_    0.576942 0.632235 0.202220 0.157805
H7    H     H_    0.733834 0.989164 0.185611 0.150632
C37   C     C_R   0.617700 0.263011 0.619796 0.013240
C38   C     C_R   0.723465 0.328795 0.643205 -0.035015
C39   C     C_R   0.722538 0.368546 0.690171 -0.129198
C40   C     C_R   0.621981 0.320053 0.717865 0.015024
C41   C     C_R   0.519571 0.250775 0.694858 -0.126510
C42   C     C_R   0.517290 0.230140 0.646286 -0.141216
C43   C     C_R   0.541826 0.309333 0.803090 -0.006908
C44   C     C_R   0.559748 0.307442 0.853288 -0.009126
C45   C     C_R   0.751138 0.339268 0.839316 -0.028674
C46   C     C_R   0.723337 0.318490 0.790643 -0.133593
C47   C     C_R   0.628923 0.320155 0.771276 0.000065
C48   C     C_R   0.672754 0.348578 0.870477 -0.002951
H8    H     H_    0.802693 0.423782 0.707834 0.104518
H9    H     H_    0.781070 0.307712 0.766958 0.108439
H10   H     H_    0.441039 0.203514 0.714042 0.130646
H11   H     H_    0.434462 0.176599 0.630809 0.133813
C49   C     C_R   0.212385 0.860588 0.612001 0.022602
C50   C     C_R   0.220608 0.952216 0.638383 -0.138249
C51   C     C_R   0.192809 0.940631 0.687077 -0.127326
C52   C     C_R   0.149764 0.835373 0.709295 0.033530
C53   C     C_R   0.125034 0.740336 0.680822 -0.142378
C54   C     C_R   0.157517 0.753484 0.632351 -0.144055
C55   C     C_R   0.165886 0.756616 0.788412 -0.114805
C56   C     C_R   0.148318 0.745135 0.838188 -0.134549
C57   C     C_R   0.086642 0.884683 0.837135 -0.015612
C58   C     C_R   0.102222 0.893007 0.787097 -0.125914
C59   C     C_R   0.137486 0.826669 0.762249 0.022298
C60   C     C_R   0.099775 0.800836 0.862665 0.005929
H12   H     H_    0.257030 0.034813 0.622578 0.119159
H13   H     H_    0.200129 0.709393 0.770357 0.103809
H14   H     H_    0.169696 0.690146 0.857235 0.124922
H15   H     H_    0.212382 0.015742 0.707703 0.104552
H16   H     H_    0.083712 0.950012 0.767205 0.091751
H17   H     H_    0.087686 0.657589 0.696786 0.098986
H18   H     H_    0.146137 0.682067 0.611220 0.117777
C61   C     C_R   0.649145 0.853315 0.612220 0.015671
C62   C     C_R   0.578220 0.741689 0.628815 -0.018337
C63   C     C_R   0.593040 0.712247 0.675851 -0.116104
C64   C     C_R   0.679909 0.791031 0.705665 0.025456
C65   C     C_R   0.759073 0.895039 0.686767 -0.116721
C66   C     C_R   0.743274 0.925991 0.640755 -0.139786
C67   C     C_R   0.635577 0.830549 0.789362 -0.022866
C68   C     C_R   0.643699 0.825458 0.840404 0.171955
C69   C     C_R   0.726880 0.704243 0.828307 -0.169196
C70   C     C_R   0.719401 0.710247 0.778337 -0.169623
C71   C     C_R   0.676617 0.775150 0.758593 -0.032495
C72   C     C_R   0.693105 0.764089 0.859423 0.013792
H19   H     H_    0.534064 0.629999 0.689917 0.102123
H20   H     H_    0.750201 0.667073 0.755047 0.129412
H21   H     H_    0.764058 0.656308 0.842906 0.124152
H22   H     H_    0.827676 0.956127 0.709305 0.098818
H23   H     H_    0.801503 0.009673 0.628842 0.114875
O14   O     O_R   0.819150 0.845650 0.033320 -0.517004
O15   O     O_R   0.006060 0.815720 0.028680 -0.500478
C73   C     C_R   0.050123 0.761343 0.047855 0.546164
O16   O     O_R   0.028100 0.664460 0.032550 -0.498290
O17   O     O_R   0.811290 0.477490 0.029660 -0.492386
C74   C     C_R   0.714159 0.435760 0.049584 0.548616
O18   O     O_R   0.638120 0.455970 0.034270 -0.503869
O19   O     O_R   0.667540 0.672320 0.030160 -0.485665
C75   C     C_R   0.722935 0.770499 0.049212 0.557822
O20   O     O_R   0.814460 0.840990 0.926980 -0.491200
O21   O     O_R   0.001710 0.811400 0.930110 -0.494866
C76   C     C_R   0.044398 0.757151 0.910240 0.523688
O22   O     O_R   0.023410 0.659800 0.926210 -0.538854
O23   O     O_R   0.806940 0.473170 0.931090 -0.510387
C77   C     C_R   0.705895 0.423987 0.913687 0.529814
O24   O     O_R   0.633420 0.451310 0.927930 -0.505702
O25   O     O_R   0.663190 0.668000 0.931580 -0.491518
C78   C     C_R   0.718608 0.763222 0.910949 0.606885
Cr4   Cr    Cr6+3 0.908000 0.821090 0.979770 1.023288
Cr5   Cr    Cr6+3 0.912420 0.571130 0.979880 1.017634
Cr6   Cr    Cr6+3 0.657970 0.566940 0.980940 1.044194
O26   O     O_3   0.826130 0.653050 0.980200 -0.259505
N1    N     N_R   0.735898 0.042688 0.278368 0.075834
O27   O     O_R   0.684010 0.063153 0.313295 -0.347193
O28   O     O_R   0.820748 0.126997 0.257192 -0.361381
C79   C     C_R   0.831881 0.337969 0.626420 0.028052
C80   C     C_R   0.934233 0.440194 0.631513 -0.103426
C81   C     C_R   0.038298 0.442638 0.627500 -0.124065
C82   C     C_R   0.041970 0.345599 0.615068 -0.114521
C83   C     C_R   0.941485 0.244394 0.608941 -0.114023
C84   C     C_R   0.837269 0.239581 0.616711 -0.066851
H24   H     H_    0.933301 0.516495 0.641376 0.106284
H25   H     H_    0.116563 0.518599 0.635376 0.088466
H26   H     H_    0.122694 0.348179 0.611456 0.114257
H27   H     H_    0.945315 0.169241 0.600142 0.106744
H28   H     H_    0.761156 0.158453 0.617588 0.137970
C85   C     C_R   0.439043 0.311109 0.785584 0.012319
C86   C     C_R   0.330312 0.217392 0.791787 -0.112730
C87   C     C_R   0.234103 0.221903 0.776876 -0.127151
C88   C     C_R   0.245494 0.319190 0.755432 -0.110573
C89   C     C_R   0.353158 0.412225 0.748778 -0.112998
C90   C     C_R   0.449710 0.408340 0.763709 -0.094973
H29   H     H_    0.320294 0.141418 0.808327 0.124729
H30   H     H_    0.150623 0.150239 0.782085 0.103460
H31   H     H_    0.170847 0.322547 0.744035 0.109998
H32   H     H_    0.361622 0.487555 0.732298 0.097906
H33   H     H_    0.532598 0.481258 0.758715 0.116836
C91   C     C_R   0.465556 0.270896 0.889143 0.047822
C92   C     C_R   0.406753 0.331035 0.895463 -0.047189
C93   C     C_R   0.339003 0.312755 0.936288 -0.107846
C94   C     C_R   0.329822 0.235231 0.971225 -0.109777
C95   C     C_R   0.384408 0.172385 0.964458 -0.116702
C96   C     C_R   0.451709 0.189820 0.923593 -0.093191
H34   H     H_    0.419596 0.397558 0.870870 0.123155
H35   H     H_    0.296249 0.361096 0.941562 0.099084
H36   H     H_    0.279776 0.223311 0.003461 0.104718
H37   H     H_    0.376336 0.111668 0.991359 0.120125
H38   H     H_    0.497548 0.143979 0.919923 0.142796
C97   C     C_R   0.861658 0.348419 0.852949 0.033432
C98   C     C_R   0.953746 0.451363 0.866988 -0.058936
C99   C     C_R   0.060371 0.461633 0.875489 -0.116818
C100  C     C_R   0.081749 0.376750 0.860275 -0.119227
C101  C     C_R   0.994859 0.279956 0.839078 -0.133209
C102  C     C_R   0.883980 0.262139 0.838644 -0.102766
H39   H     H_    0.943357 0.524084 0.867922 0.160507
H40   H     H_    0.128324 0.536579 0.891689 0.123089
H41   H     H_    0.166208 0.387617 0.863289 0.119276
H42   H     H_    0.014029 0.219195 0.822974 0.114533
H43   H     H_    0.816796 0.184585 0.823623 0.127920
C103  C     C_R   0.888412 0.380949 0.194357 0.053662
C104  C     C_R   0.990078 0.459937 0.217243 -0.080359
C105  C     C_R   0.094806 0.489747 0.196178 -0.098394
C106  C     C_R   0.099738 0.445002 0.151253 -0.109078
C107  C     C_R   0.999833 0.367380 0.127973 -0.117669
C108  C     C_R   0.895033 0.332582 0.150050 -0.067686
H44   H     H_    0.988778 0.499119 0.251299 0.120445
H45   H     H_    0.172301 0.547936 0.214614 0.174663
H46   H     H_    0.180984 0.469598 0.134727 0.120957
H47   H     H_    0.003701 0.331646 0.093367 0.103056
H48   H     H_    0.819443 0.267520 0.132469 0.113104
C109  C     C_R   0.050620 0.960955 0.859886 0.046789
C110  C     C_R   0.107571 0.026932 0.900732 -0.051560
C111  C     C_R   0.064212 0.087472 0.925159 -0.094324
C112  C     C_R   0.967808 0.087410 0.907667 -0.067586
C113  C     C_R   0.915839 0.028789 0.865077 -0.096711
C114  C     C_R   0.957546 0.966893 0.840959 -0.114017
H49   H     H_    0.181115 0.025667 0.915124 0.113322
H50   H     H_    0.103262 0.132526 0.958263 0.088543
H51   H     H_    0.933910 0.133606 0.926816 0.129356
H52   H     H_    0.842349 0.030313 0.851005 0.134736
H53   H     H_    0.914581 0.920458 0.808532 0.106778
C115  C     C_R   0.491794 0.653517 0.597305 0.034196
C116  C     C_R   0.523532 0.593395 0.565520 -0.093544
C117  C     C_R   0.444278 0.514585 0.533199 -0.101416
C118  C     C_R   0.333664 0.496919 0.531903 -0.102136
C119  C     C_R   0.301789 0.556773 0.563436 -0.104634
C120  C     C_R   0.379683 0.632970 0.596984 -0.062657
H54   H     H_    0.609808 0.608452 0.565474 0.112317
H55   H     H_    0.469060 0.468473 0.508674 0.132362
H56   H     H_    0.272872 0.437484 0.506236 0.126731
H57   H     H_    0.217157 0.545180 0.561246 0.114448
H58   H     H_    0.354316 0.679302 0.621158 0.107411
C121  C     C_R   0.579361 0.887477 0.766580 0.103546
C122  C     C_R   0.468717 0.822014 0.748649 -0.078653
C123  C     C_R   0.424757 0.868025 0.715971 -0.112827
C124  C     C_R   0.489457 0.979940 0.701808 -0.094092
C125  C     C_R   0.598955 0.046266 0.720350 -0.109604
C126  C     C_R   0.644000 0.000257 0.752611 -0.048303
H59   H     H_    0.419607 0.733519 0.757420 0.092135
H60   H     H_    0.342528 0.815294 0.700103 0.119735
H61   H     H_    0.455640 0.013842 0.675502 0.118019
H62   H     H_    0.650990 0.131541 0.708108 0.116925
H63   H     H_    0.731625 0.049607 0.763897 0.082245
N2    N     N_R   0.602207 0.880773 0.872381 0.063876
O29   O     O_R   0.615249 0.979053 0.861859 -0.370146
O30   O     O_R   0.552598 0.833793 0.912806 -0.343792
C127  C     C_R   0.090830 0.977193 0.195419 0.037126
C128  C     C_R   0.144552 0.092258 0.207754 -0.092479
C129  C     C_R   0.105116 0.161164 0.188811 -0.083041
C130  C     C_R   0.012587 0.115998 0.157149 -0.089638
C131  C     C_R   0.959128 0.002368 0.144563 -0.109118
C132  C     C_R   0.996399 0.932365 0.164179 -0.076563
H64   H     H_    0.217425 0.128735 0.231797 0.112865
H65   H     H_    0.146596 0.249560 0.198450 0.136166
H66   H     H_    0.981764 0.168469 0.142253 0.121413
H67   H     H_    0.888690 0.969114 0.119587 0.131804
H68   H     H_    0.951430 0.843622 0.155089 0.118835
N3    N     N_R   0.288288 0.729136 0.278266 0.071883
O31   O     O_R   0.257666 0.679371 0.319986 -0.304889
O32   O     O_R   0.363169 0.718076 0.252929 -0.351831
N4    N     N_R   0.551426 0.625792 0.298098 0.090656
O33   O     O_R   0.552593 0.535786 0.283272 -0.362645
O34   O     O_R   0.494256 0.619834 0.336902 -0.288314

loop_
_geom_bond_atom_site_label_1
_geom_bond_atom_site_label_2
_geom_bond_distance
_ccdc_geom_bond_type
C99   H40   1.076897 S    
C72   C78   1.464616 S    
C56   C60   1.399124 A    
C98   C99   1.401647 A    
C120  H58   1.083431 S    
C53   C54   1.392965 A    
C31   N1    1.440467 S    
C5    C37   1.469807 S    
C61   C62   1.422924 A    
C57   C60   1.433808 A    
C16   C74   1.428716 S    
C86   H29   1.083267 S    
O25   C78   1.276125 A    
C93   C94   1.397460 A    
C107  C108  1.397799 A    
C55   C59   1.400520 A    
C76   O22   1.296718 A    
O4    Cr2   1.923618 S    
O16   Cr5   2.048578 S    
C50   C51   1.384395 A    
O17   C74   1.274867 A    
C4    O9    1.285625 A    
C60   C76   1.487422 S    
O8    Cr1   1.921684 S    
C10   C11   1.392465 A    
C67   C68   1.417477 A    
C64   C71   1.475384 S    
C77   O24   1.273111 A    
O19   Cr6   1.929852 S    
C20   H5    1.083463 S    
N3    O31   1.301117 A    
N2    O29   1.300960 A    
C19   C23   1.414786 A    
C21   N3    1.440321 S    
C80   H24   1.082438 S    
O4    C2    1.273263 A    
C101  C102  1.399572 A    
C32   C35   1.444131 S    
C97   C98   1.395257 A    
C110  H49   1.081580 S    
C64   C65   1.396380 A    
C103  C104  1.408995 A    
C1    C27   1.431100 S    
C108  H48   1.081879 S    
C106  C107  1.394378 A    
C109  C114  1.405081 A    
C128  H64   1.083372 S    
C104  C105  1.397500 A    
C70   C71   1.391646 A    
C43   C44   1.408779 A    
O24   Cr6   2.048509 S    
C126  H63   1.081333 S    
C123  H60   1.075291 S    
C45   C97   1.489183 S    
C118  H56   1.082304 S    
C10   H2    1.084040 S    
C111  H50   1.078749 S    
C50   H12   1.079766 S    
C100  H41   1.082898 S    
Cr6   O26   1.983868 S    
C116  H54   1.083275 S    
C3    C17   1.432625 S    
N4    O34   1.301212 A    
C88   C89   1.397403 A    
C113  H52   1.079380 S    
C48   C77   1.486907 S    
C46   H9    1.083773 S    
C130  H66   1.076553 S    
C119  C120  1.398896 A    
C69   C72   1.405947 A    
C69   C70   1.388423 A    
O20   Cr4   2.037424 S    
C43   C85   1.486722 S    
C93   H35   1.082384 S    
C63   C64   1.399436 A    
C104  H44   1.082728 S    
C111  C112  1.393213 A    
C100  C101  1.389416 A    
Cr3   O13   1.979573 S    
C9    C13   1.420047 A    
C96   H38   1.083357 S    
C129  C130  1.394853 A    
C83   C84   1.398680 A    
C26   C73   1.436274 S    
C127  C128  1.407861 A    
C58   H16   1.082249 S    
C9    C103  1.494581 S    
C28   N4    1.442017 S    
C20   C23   1.398909 A    
C97   C102  1.409036 A    
C67   C71   1.418311 A    
O1    Cr1   2.040141 S    
C79   C84   1.406756 A    
O15   Cr4   1.921596 S    
C90   H33   1.082456 S    
C30   C31   1.401307 A    
C29   H6    1.083919 S    
O10   Cr2   1.927421 S    
C125  H62   1.079234 S    
Cr1   O13   1.998403 S    
O1    C3    1.273968 A    
C8    C9    1.410394 A    
C61   C66   1.404401 A    
C20   C21   1.404656 A    
O14   C75   1.277925 A    
C82   C83   1.390885 A    
C121  C122  1.401521 A    
O6    C3    1.281350 A    
N1    O28   1.301602 A    
C112  C113  1.395797 A    
C11   H3    1.083796 S    
C124  C125  1.397221 A    
C58   C59   1.393254 A    
C65   H22   1.083855 S    
O21   Cr4   1.916820 S    
C55   C56   1.390612 A    
C68   N2    1.441546 S    
O12   Cr3   1.923790 S    
C40   C41   1.385926 A    
O22   Cr5   2.037763 S    
C37   C38   1.414427 A    
C63   H19   1.083093 S    
C18   C19   1.404618 A    
C132  H68   1.082555 S    
C105  C106  1.394523 A    
C13   C14   1.439995 S    
C8    H1    1.083844 S    
C81   H25   1.077207 S    
O23   Cr5   1.932209 S    
C129  H65   1.082527 S    
C91   C92   1.410096 A    
C91   C96   1.406228 A    
C40   C47   1.476592 S    
C67   C121  1.474963 S    
C103  C108  1.409572 A    
C123  C124  1.395318 A    
C62   C63   1.405046 A    
C39   C40   1.413408 A    
O12   C6    1.276591 A    
C39   H8    1.083137 S    
C114  H53   1.081380 S    
N3    O32   1.301235 A    
C29   C33   1.396364 A    
C88   H31   1.082539 S    
C49   C50   1.400296 A    
O19   C75   1.279244 A    
C24   C26   1.207207 T    
C127  C132  1.405515 A    
C2    O5    1.268327 A    
C83   H27   1.080182 S    
C10   C13   1.400715 A    
C36   C75   1.429969 S    
C21   C22   1.413784 A    
Cr2   O13   1.984007 S    
C37   C42   1.411023 A    
C28   C29   1.404806 A    
C122  H59   1.083804 S    
C87   H30   1.081161 S    
C34   C36   1.203535 T    
O23   C77   1.282794 A    
C51   H15   1.082308 S    
C22   C25   1.442627 S    
C119  H57   1.079940 S    
C52   C53   1.404665 A    
C17   C25   1.205427 T    
C4    C61   1.492935 S    
C30   H7    1.084224 S    
C85   C90   1.405211 A    
C1    O3    1.274492 A    
C70   H20   1.083541 S    
C99   C100  1.390259 A    
C62   C115  1.473756 S    
C19   C127  1.483049 S    
O15   C73   1.278439 A    
C98   H39   1.071132 S    
O7    Cr1   2.033779 S    
C124  H61   1.080220 S    
C27   C35   1.204834 T    
C56   H14   1.070814 S    
C117  C118  1.397122 A    
C33   C34   1.436219 S    
O25   Cr6   1.923568 S    
C6    C49   1.461291 S    
O9    Cr2   2.038725 S    
N4    O33   1.301636 A    
O2    Cr1   1.917568 S    
C118  C119  1.397469 A    
C84   H28   1.079832 S    
C45   C46   1.383790 A    
C12   C15   1.437289 S    
C57   C58   1.393656 A    
C8    C12   1.399680 A    
O20   C78   1.282137 A    
C113  C114  1.394221 A    
Cr5   O26   1.979672 S    
Cr4   O26   1.998276 S    
O6    Cr3   1.933153 S    
C82   H26   1.082415 S    
C81   C82   1.392675 A    
O11   Cr3   2.050938 S    
C73   O16   1.274208 A    
C102  H43   1.079665 S    
C89   H32   1.082103 S    
C94   C95   1.395536 A    
C79   C80   1.407470 A    
C43   C47   1.420252 A    
N1    O27   1.301120 A    
C74   O18   1.265471 A    
C49   C54   1.396219 A    
C128  C129  1.397092 A    
C65   C66   1.390689 A    
C69   H21   1.084603 S    
C30   C33   1.393237 A    
C109  C110  1.406165 A    
C92   H34   1.081987 S    
O2    C1    1.279149 A    
C53   H17   1.082591 S    
C95   H37   1.082304 S    
O5    Cr3   2.042333 S    
C105  H45   1.079063 S    
C41   C42   1.364725 A    
C14   C16   1.203162 T    
C54   H18   1.077151 S    
C51   C52   1.403963 A    
C38   C79   1.486919 S    
C125  C126  1.396038 A    
C131  H67   1.077222 S    
O17   Cr5   1.923108 S    
C55   H13   1.082782 S    
C117  H55   1.082411 S    
O7    C6    1.279108 A    
C45   C48   1.420478 A    
C28   C32   1.418503 A    
C2    C7    1.431077 S    
C131  C132  1.396435 A    
N2    O30   1.301166 A    
C107  H47   1.082493 S    
C57   C109  1.488064 S    
C115  C120  1.403120 A    
C44   C48   1.426374 A    
C85   C86   1.408053 A    
C122  C123  1.393867 A    
C18   C22   1.398340 A    
C38   C39   1.404044 A    
C112  H51   1.082390 S    
C92   C93   1.397493 A    
C46   C47   1.397995 A    
C95   C96   1.396570 A    
O18   Cr6   2.041837 S    
C80   C81   1.399540 A    
C94   H36   1.082250 S    
O3    Cr2   2.042592 S    
C121  C126  1.403077 A    
C116  C117  1.397698 A    
C66   H23   1.074230 S    
C110  C111  1.399331 A    
C23   C24   1.446044 S    
C68   C72   1.410745 A    
C130  C131  1.392798 A    
O21   C76   1.266637 A    
C41   H10   1.075789 S    
O10   C5    1.285251 A    
C44   C91   1.495690 S    
C89   C90   1.398581 A    
C115  C116  1.403364 A    
O14   Cr4   2.034875 S    
C18   H4    1.084901 S    
C86   C87   1.398296 A    
C101  H42   1.078595 S    
C106  H46   1.082315 S    
C52   C59   1.469550 S    
C42   H11   1.078517 S    
C5    O11   1.258830 A    
O8    C4    1.284541 A    
C31   C32   1.419648 A    
C87   C88   1.397175 A    
C11   C12   1.396201 A    
C7    C15   1.204016 T    
