data_mof_unit_59382.cif
_audit_creation_date              2012-12-11T15:29:45-0500
_audit_creation_method            fapswitch 2.2
_symmetry_space_group_name_H-M    P1
_symmetry_Int_Tables_number       1
_space_group_crystal_system       triclinic
_cell_length_a                    21.631904
_cell_length_b                    7.285329
_cell_length_c                    14.894598
_cell_angle_alpha                 89.633426
_cell_angle_beta                  73.184587
_cell_angle_gamma                 90.107793
_cell_volume                      2246.89163208

loop_
_atom_site_label
_atom_site_type_symbol
_atom_type_description
_atom_site_fract_x
_atom_site_fract_y
_atom_site_fract_z
_atom_type_partial_charge
O1    O     O_R   0.464160 0.506670 0.130070 -0.541720
O2    O     O_R   0.535840 0.006670 0.869930 -0.538218
O3    O     O_R   0.589710 0.179080 0.006710 -0.553088
O4    O     O_R   0.410290 0.679080 0.993290 -0.558781
C1    C     C_R   0.615569 0.344614 0.003550 0.715575
C2    C     C_R   0.384254 0.844448 0.997149 0.755331
O5    O     O_R   0.467940 0.177220 0.138010 -0.526901
O6    O     O_R   0.532060 0.677220 0.861990 -0.526509
O7    O     O_R   0.413200 0.002810 0.002170 -0.523100
O8    O     O_R   0.586800 0.502810 0.997830 -0.533742
C3    C     C_R   0.455817 0.345711 0.174334 0.758282
C4    C     C_R   0.543981 0.847067 0.825557 0.770544
O9    O     O_3   0.482180 0.337850 0.955280 -0.385336
O10   O     O_3   0.517820 0.837850 0.044720 -0.391510
V1    V     V_3+5 0.503310 0.064600 0.008300 1.449780
V2    V     V_3+5 0.496690 0.564600 0.991700 1.435882
C5    C     C_R   0.570342 0.869488 0.723409 -0.131244
C6    C     C_R   0.429771 0.364714 0.276309 -0.136692
C7    C     C_R   0.928824 0.862500 0.278272 -0.032200
C8    C     C_R   0.071490 0.366863 0.721661 -0.032588
C9    C     C_R   0.569891 0.054775 0.587224 0.320737
C10   C     C_R   0.431706 0.551793 0.409492 0.333270
C11   C     C_R   0.540746 0.997419 0.679367 -0.330809
C12   C     C_R   0.461217 0.487090 0.319832 -0.291776
C13   C     C_R   0.631533 0.801646 0.675885 0.372718
C14   C     C_R   0.367051 0.304895 0.323088 0.375030
C15   C     C_R   0.667339 0.886219 0.589416 -0.080496
C16   C     C_R   0.332118 0.391912 0.408660 -0.072883
C17   C     C_R   0.632942 0.993515 0.539732 -0.016852
C18   C     C_R   0.367711 0.495954 0.457430 -0.044567
C19   C     C_R   0.736211 0.874180 0.552392 -0.043743
C20   C     C_R   0.263173 0.384086 0.446067 -0.041241
C21   C     C_R   0.765792 0.915500 0.455777 -0.036763
C22   C     C_R   0.234184 0.424825 0.542587 -0.044134
C23   C     C_R   0.726498 0.982553 0.402361 -0.228694
C24   C     C_R   0.274291 0.488897 0.595297 -0.210578
C25   C     C_R   0.662811 0.035275 0.444307 0.296938
C26   C     C_R   0.338711 0.536663 0.552824 0.298546
C27   C     C_R   0.776424 0.842068 0.611186 0.340134
C28   C     C_R   0.222519 0.355181 0.387792 0.338471
C29   C     C_R   0.842964 0.809263 0.571456 0.208020
C30   C     C_R   0.155858 0.323653 0.428079 0.207906
C31   C     C_R   0.870428 0.819890 0.473169 0.008066
C32   C     C_R   0.128882 0.331528 0.526446 0.009034
C33   C     C_R   0.833476 0.888414 0.415636 0.052520
C34   C     C_R   0.166429 0.397493 0.583504 0.052459
C35   C     C_R   0.934504 0.764183 0.431222 -0.136660
C36   C     C_R   0.064766 0.274955 0.568908 -0.137475
C37   C     C_R   0.962531 0.782093 0.335099 -0.163428
C38   C     C_R   0.037250 0.289153 0.665154 -0.162268
C39   C     C_R   0.865785 0.923597 0.319387 -0.192625
C40   C     C_R   0.134657 0.428943 0.680063 -0.193717
H1    H     H_    0.842509 0.988608 0.272753 0.097125
H2    H     H_    0.158447 0.491969 0.726369 0.097342
H3    H     H_    0.011120 0.736020 0.306547 0.099720
H4    H     H_    0.988623 0.242207 0.694156 0.100309
H5    H     H_    0.494891 0.056546 0.717975 0.156852
H6    H     H_    0.508045 0.541934 0.281288 0.150703
H7    H     H_    0.744433 0.005741 0.327911 0.118424
H8    H     H_    0.256792 0.509153 0.669823 0.121674
H9    H     H_    0.963169 0.700962 0.471573 0.129440
H10   H     H_    0.035696 0.213574 0.528843 0.130427
C41   C     C_3   0.228990 0.713543 0.921100 0.225468
C42   C     C_3   0.770468 0.209877 0.080235 0.228438
H11   H     H_    0.231470 0.751399 0.848137 0.040777
H12   H     H_    0.767749 0.244917 0.153600 0.041234
C43   C     C_3   0.298716 0.698852 0.931570 -0.410021
C44   C     C_3   0.700448 0.195917 0.070406 -0.387235
H13   H     H_    0.334676 0.697467 0.861205 0.109233
H14   H     H_    0.665025 0.195880 0.141378 0.112818
H15   H     H_    0.302855 0.565637 0.965847 0.196591
H16   H     H_    0.694911 0.062785 0.037459 0.193047
H17   H     H_    0.282677 0.715744 0.130484 0.191040
H18   H     H_    0.716559 0.226338 0.870123 0.189185
C45   C     C_3   0.196863 0.813596 0.090498 0.124038
C46   C     C_3   0.802439 0.317547 0.911172 0.119750
C47   C     C_3   0.228188 0.052440 0.950449 0.493922
C48   C     C_3   0.771750 0.549828 0.051791 0.509871
C49   C     C_3   0.190570 0.863435 0.989745 -0.058447
C50   C     C_3   0.809067 0.362496 0.011772 -0.062349
C51   C     C_3   0.314368 0.854732 0.993919 -0.074350
C52   C     C_3   0.685039 0.354787 0.008568 -0.084093
C53   C     C_3   0.267840 0.834151 0.093975 -0.476854
C54   C     C_3   0.731608 0.340941 0.908331 -0.465570
C55   C     C_3   0.300194 0.045409 0.957029 0.094796
C56   C     C_3   0.698873 0.542595 0.048425 0.093445
H19   H     H_    0.304956 0.149239 0.009395 0.131916
H20   H     H_    0.692160 0.651489 0.999072 0.130763
H21   H     H_    0.166467 0.909987 0.142622 0.095636
H22   H     H_    0.833155 0.415485 0.859270 0.098971
H23   H     H_    0.271658 0.955879 0.136917 0.155010
H24   H     H_    0.728065 0.466673 0.867220 0.154007
O11   O     O_R   0.913210 0.208550 0.002110 -0.496553
O12   O     O_R   0.086790 0.708550 0.997890 -0.495371
O13   O     O_R   0.032060 0.539960 0.861980 -0.537244
O14   O     O_R   0.967940 0.039960 0.138020 -0.537383
C57   C     C_R   0.043376 0.373328 0.824750 0.648032
C58   C     C_R   0.957019 0.872103 0.175232 0.645729
O15   O     O_R   0.910290 0.538020 0.993280 -0.527034
O16   O     O_R   0.089710 0.038020 0.006720 -0.527978
O17   O     O_R   0.964160 0.712340 0.130090 -0.552302
O18   O     O_R   0.035840 0.212340 0.869910 -0.551374
C59   C     C_R   0.882601 0.370025 0.004166 0.704386
C60   C     C_R   0.117273 0.870448 0.996442 0.705017
O19   O     O_3   0.017820 0.379210 0.044690 -0.370424
O20   O     O_3   0.982180 0.879210 0.955310 -0.370136
V3    V     V_3+5 0.996690 0.652500 0.991710 1.484090
V4    V     V_3+5 0.003310 0.152500 0.008290 1.482295
N1    N     N_2   0.628335 0.121296 0.387575 -0.481718
H25   H     H_    0.627667 0.043731 0.330183 0.239430
C61   C     C_3   0.648983 0.307757 0.361043 -0.537538
H26   H     H_    0.619027 0.367749 0.319164 0.196895
H27   H     H_    0.700291 0.309680 0.318483 0.170202
H28   H     H_    0.643873 0.392839 0.424378 0.207349
N2    N     N_2   0.376118 0.605056 0.609684 -0.502721
H29   H     H_    0.381291 0.510646 0.658782 0.245472
C62   C     C_3   0.356089 0.781527 0.651556 -0.621362
H30   H     H_    0.393844 0.834181 0.681593 0.193532
H31   H     H_    0.310168 0.767500 0.708069 0.178995
H32   H     H_    0.349301 0.881557 0.598636 0.207847
O21   O     O_3   0.198207 0.542335 0.937020 -0.585690
H33   H     H_    0.218824 0.467309 0.881128 0.309540
O22   O     O_3   0.801172 0.039416 0.063331 -0.586226
H34   H     H_    0.783313 0.964829 0.120923 0.305071
N3    N     N_2   0.175229 0.625016 0.116196 -0.427528
H35   H     H_    0.209512 0.523460 0.108404 0.291479
C63   C     C_3   0.117294 0.596865 0.191930 -0.483202
H36   H     H_    0.105892 0.447956 0.200479 0.211755
H37   H     H_    0.077027 0.666104 0.173991 0.192279
H38   H     H_    0.123790 0.650847 0.258211 0.183174
N4    N     N_2   0.823184 0.129477 0.884701 -0.426611
H39   H     H_    0.788372 0.028849 0.892376 0.291176
C64   C     C_3   0.880671 0.103202 0.808221 -0.484403
H40   H     H_    0.891121 0.954291 0.798423 0.209100
H41   H     H_    0.921559 0.169004 0.826126 0.193648
H42   H     H_    0.874179 0.161954 0.742548 0.182067
O23   O     O_3   0.196582 0.201524 0.004237 -0.606588
H43   H     H_    0.196904 0.183626 0.070110 0.255394
O24   O     O_3   0.802768 0.700681 0.997437 -0.607417
H44   H     H_    0.800237 0.686493 0.932470 0.255192
N5    N     N_2   0.231458 0.087481 0.851749 -0.522515
H45   H     H_    0.264403 0.016095 0.800448 0.238357
C65   C     C_3   0.174985 0.130555 0.823927 -0.481245
H46   H     H_    0.190754 0.177025 0.749953 0.171742
H47   H     H_    0.148105 0.242419 0.867792 0.254922
H48   H     H_    0.144811 0.006412 0.826561 0.170879
N6    N     N_2   0.769994 0.581449 0.149961 -0.515760
H49   H     H_    0.736966 0.509508 0.201694 0.260608
C66   C     C_3   0.826829 0.624632 0.176581 -0.492999
H50   H     H_    0.811621 0.668414 0.250640 0.174463
H51   H     H_    0.853047 0.738449 0.132458 0.256414
H52   H     H_    0.857207 0.501123 0.173243 0.172060
N7    N     N_2   0.350174 0.088990 0.869534 -0.515842
H53   H     H_    0.360442 0.995434 0.816018 0.234757
C67   C     C_3   0.364532 0.278716 0.843081 -0.488871
H54   H     H_    0.323172 0.344096 0.825879 0.198867
H55   H     H_    0.407224 0.286760 0.780271 0.165575
H56   H     H_    0.376717 0.352683 0.900409 0.211564
N8    N     N_2   0.651622 0.576629 0.139926 -0.523350
H57   H     H_    0.611979 0.491099 0.160758 0.238909
C68   C     C_3   0.636773 0.765615 0.166348 -0.527340
H58   H     H_    0.602823 0.770772 0.238217 0.181840
H59   H     H_    0.613881 0.832986 0.117196 0.210369
H60   H     H_    0.681101 0.840706 0.166902 0.213638
O25   O     O_3   0.879962 0.769726 0.630737 -0.665915
H61   H     H_    0.922302 0.832065 0.606299 0.282260
O26   O     O_3   0.118305 0.287354 0.369322 -0.666717
H62   H     H_    0.076234 0.349762 0.394295 0.281511
N9    N     N_2   0.540134 0.197107 0.548948 -0.473599
H63   H     H_    0.547810 0.326117 0.571794 0.249994
C69   C     C_3   0.474645 0.165026 0.546543 -0.523144
H64   H     H_    0.440515 0.248000 0.600831 0.171726
H65   H     H_    0.461063 0.019119 0.559836 0.200321
H66   H     H_    0.470486 0.203803 0.476425 0.219484
N10   N     N_2   0.462254 0.700549 0.440958 -0.493796
H67   H     H_    0.434724 0.812080 0.469193 0.273886
C70   C     C_3   0.520712 0.665092 0.466428 -0.520180
H68   H     H_    0.558470 0.764815 0.429667 0.200457
H69   H     H_    0.538704 0.524720 0.446394 0.209512
H70   H     H_    0.511364 0.680651 0.543292 0.211011
O27   O     O_3   0.653879 0.651694 0.714262 -0.627242
H71   H     H_    0.686080 0.587299 0.663232 0.293842
O28   O     O_3   0.342634 0.158864 0.285203 -0.627217
H72   H     H_    0.309584 0.096031 0.336476 0.294319
O29   O     O_3   0.750632 0.862430 0.707237 -0.633544
H73   H     H_    0.783702 0.840015 0.740016 0.322601
O30   O     O_3   0.248188 0.376918 0.291651 -0.634263
H74   H     H_    0.215116 0.352988 0.259132 0.323345

loop_
_geom_bond_atom_site_label_1
_geom_bond_atom_site_label_2
_ccdc_geom_bond_type
C46   H22   S    
O17   V3    S    
C65   H48   S    
O15   C59   A    
C69   H64   S    
C41   H11   S    
C3    C6    S    
O25   H61   S    
C1    C52   S    
C67   H55   S    
C62   H30   S    
C21   C33   A    
N9    H63   S    
N6    H49   S    
O1    C3    A    
O2    C4    A    
C48   O24   S    
O11   C59   A    
C2    O7    A    
C10   N10   S    
C66   H50   S    
O22   H34   S    
N10   C70   S    
C28   O30   S    
C41   C49   S    
O27   H71   S    
O5    C3    A    
C69   H65   S    
C5    C11   A    
C6    C12   A    
C42   C44   S    
C23   C25   A    
C47   O23   S    
N1    C61   S    
O11   V4    S    
C46   N4    S    
C56   H20   S    
C43   H15   S    
C15   C17   A    
O20   V3    S    
C33   C39   A    
C65   H46   S    
C34   C40   A    
O16   C60   A    
C18   C26   A    
C23   H7    S    
C8    C38   A    
C51   C53   S    
C42   C50   S    
C8    C57   S    
N10   H67   S    
C40   H2    S    
C70   H69   S    
C6    C14   A    
C4    C5    S    
C64   H42   S    
C19   C21   A    
O18   V4    S    
C22   C34   A    
N7    C67   S    
C56   N8    S    
C25   N1    S    
C57   O18   A    
C44   H16   S    
C14   O28   S    
C48   C56   S    
C36   C38   A    
O14   V4    S    
O12   C60   A    
O6    V2    S    
C2    C51   S    
C67   H56   S    
C29   C31   A    
C46   C54   S    
C30   C32   A    
C1    O8    A    
C68   H59   S    
C7    C58   S    
C13   O27   S    
C68   H58   S    
C55   H19   S    
C69   H66   S    
C41   C43   S    
O12   V3    S    
O16   V4    S    
C50   C59   S    
C15   C19   A    
C16   C20   A    
C35   C37   A    
C66   H52   S    
O26   H62   S    
C62   H31   S    
C32   C34   A    
N2    C62   S    
C37   H3    S    
C9    C17   A    
C38   H4    S    
O14   C58   A    
C39   H1    S    
N5    C65   S    
C20   C22   A    
O4    V2    S    
O28   H72   S    
C63   H37   S    
C7    C39   A    
C7    C37   A    
C36   H10   S    
N8    H57   S    
N2    H29   S    
O6    C4    A    
C70   H70   S    
N8    C68   S    
C41   O21   S    
C47   C49   S    
C61   H27   S    
O1    V2    S    
C55   N7    S    
O19   V4    S    
O2    V1    S    
C31   C33   A    
O21   H33   S    
O13   V3    S    
C48   N6    S    
C11   H5    S    
O4    C2    A    
C43   C51   S    
C52   C54   S    
C9    C11   A    
N3    H35   S    
C10   C12   A    
C49   C60   S    
C62   H32   S    
N4    H39   S    
C58   O17   A    
O3    C1    A    
C68   H60   S    
O3    V1    S    
C30   O26   S    
N3    C63   S    
N9    C69   S    
C43   H13   S    
C65   H47   S    
C10   C18   A    
C61   H26   S    
N6    C66   S    
C46   C50   S    
H18   C54   S    
C28   C30   A    
N4    C64   S    
C35   H9    S    
O24   H44   S    
O13   C57   A    
C13   C15   A    
C42   O22   S    
O15   V3    S    
O23   H43   S    
C14   C16   A    
C44   C52   S    
C66   H51   S    
O7    V1    S    
C63   H38   S    
C5    C13   A    
C16   C18   A    
C8    C40   A    
C52   C56   S    
N5    H45   S    
C24   C26   A    
C26   N2    S    
C45   C53   S    
O29   H73   S    
C64   H40   S    
C45   C49   S    
C9    N9    S    
C53   H23   S    
O5    V1    S    
C21   C23   A    
C22   C24   A    
C19   C27   A    
C61   H28   S    
C48   C50   S    
C20   C28   A    
C47   N5    S    
C45   H21   S    
C47   C55   S    
C27   O29   S    
C32   C36   A    
O30   H74   S    
C29   O25   S    
C27   C29   A    
C12   H6    S    
C70   H68   S    
O9    V2    S    
C17   C25   A    
C67   H54   S    
C64   H41   S    
C44   H14   S    
C24   H8    S    
O10   V1    S    
O8    V2    S    
C54   H24   S    
C45   N3    S    
N7    H53   S    
N1    H25   S    
C31   C35   A    
H17   C53   S    
C51   C55   S    
C63   H36   S    
C42   H12   S    
