data_mof_unit_9783.cif
_audit_creation_date              2012-10-26T19:46:25-0400
_audit_creation_method            fapswitch 2.2
_symmetry_space_group_name_H-M    P1
_symmetry_Int_Tables_number       1
_space_group_crystal_system       triclinic
_cell_length_a                    10.958765
_cell_length_b                    9.522967
_cell_length_c                    15.133499
_cell_angle_alpha                 90.042536
_cell_angle_beta                  90.229353
_cell_angle_gamma                 90.130206
_cell_volume                      1579.31413438

loop_
_atom_site_label
_atom_site_type_symbol
_atom_type_description
_atom_site_fract_x
_atom_site_fract_y
_atom_site_fract_z
_atom_type_partial_charge
C1    C     C_R   0.262561 0.499601 0.499543 0.585646
C2    C     C_R   0.939122 0.623629 0.480914 0.004556
C3    C     C_R   0.938257 0.373597 0.518476 0.012438
C4    C     C_R   0.064989 0.616941 0.467986 0.005583
C5    C     C_R   0.461823 0.620110 0.095256 -0.107601
C6    C     C_R   0.460260 0.380403 0.904446 -0.109453
C7    C     C_R   0.536519 0.619820 0.905022 -0.108887
C8    C     C_R   0.534493 0.379617 0.095164 -0.110524
C9    C     C_R   0.463108 0.620422 0.187099 -0.101107
C10   C     C_R   0.461661 0.380072 0.812613 -0.105072
C11   C     C_R   0.536293 0.620138 0.813176 -0.116115
C12   C     C_R   0.738289 0.499957 0.500340 0.557965
C13   C     C_R   0.534128 0.379296 0.187002 -0.119158
C14   C     C_R   0.498969 0.499896 0.233457 0.030719
C15   C     C_R   0.499332 0.500078 0.766507 0.025893
C16   C     C_R   0.498031 0.499904 0.048543 0.035170
C17   C     C_R   0.498151 0.500089 0.951400 0.034553
C18   C     C_R   0.873236 0.499170 0.500105 -0.072277
C19   C     C_R   0.129168 0.498254 0.498840 -0.061095
C20   C     C_2   0.127863 0.259624 0.573642 0.629441
C21   C     C_2   0.880793 0.763009 0.481812 0.653080
C22   C     C_2   0.876447 0.235827 0.524573 0.646778
C23   C     C_R   0.499669 0.499964 0.329934 0.562584
C24   C     C_2   0.126618 0.728855 0.415912 0.621259
C25   C     C_R   0.499897 0.500035 0.670054 0.556561
C26   C     C_R   0.441979 0.074169 0.434642 0.041989
C27   C     C_R   0.556822 0.925864 0.565889 0.008254
C28   C     C_R   0.557198 0.074569 0.565740 0.010104
C29   C     C_R   0.442443 0.925495 0.434477 0.051545
C30   C     C_R   0.064884 0.378661 0.529116 0.003928
Cu1   Cu    Cu3+1 0.500000 0.640660 0.500000 1.017632
Cu2   Cu    Cu3+1 0.500000 0.359340 0.500000 1.020439
H1    H     H_    0.431255 0.713358 0.060848 0.112148
H2    H     H_    0.602642 0.870231 0.618652 0.131694
H3    H     H_    0.603621 0.130514 0.618244 0.147569
H4    H     H_    0.396702 0.869639 0.381808 0.119596
H5    H     H_    0.170869 0.053969 0.572806 0.358484
H6    H     H_    0.814617 0.918838 0.557997 0.343934
H7    H     H_    0.782737 0.086079 0.457911 0.343216
H8    H     H_    0.223017 0.776782 0.306656 0.321117
H9    H     H_    0.428222 0.287621 0.938646 0.115215
H10   H     H_    0.568207 0.712572 0.939694 0.114670
H11   H     H_    0.564842 0.286410 0.060699 0.114838
H12   H     H_    0.434613 0.714276 0.221762 0.124427
H13   H     H_    0.431691 0.286704 0.777729 0.151819
H14   H     H_    0.566678 0.713504 0.778746 0.128793
H15   H     H_    0.563033 0.285459 0.221597 0.137690
H16   H     H_    0.395077 0.129783 0.382354 0.126839
N1    N     N_R   0.500000 0.852070 0.500000 -0.228667
N2    N     N_R   0.500000 0.147930 0.500000 -0.233723
O1    O     O_R   0.319640 0.618740 0.499990 -0.481342
O2    O     O_R   0.123814 0.125265 0.536537 -0.614393
O3    O     O_2   0.853386 0.821644 0.412715 -0.477584
O4    O     O_R   0.857099 0.825404 0.563476 -0.664370
O5    O     O_2   0.860360 0.180545 0.596468 -0.521458
O6    O     O_R   0.834501 0.172194 0.446843 -0.632413
O7    O     O_2   0.122403 0.851459 0.439646 -0.460743
O8    O     O_R   0.189165 0.692164 0.338967 -0.694735
O9    O     O_R   0.680360 0.381260 0.500010 -0.479685
O10   O     O_R   0.680360 0.618740 0.500010 -0.479445
O11   O     O_R   0.319640 0.381260 0.499990 -0.478196
O12   O     O_R   0.499990 0.618780 0.371460 -0.504011
O13   O     O_R   0.500010 0.381220 0.628540 -0.504054
O14   O     O_R   0.500010 0.618780 0.628540 -0.517058
O15   O     O_R   0.499990 0.381220 0.371460 -0.516688
O16   O     O_2   0.183732 0.280177 0.642594 -0.508313

loop_
_geom_bond_atom_site_label_1
_geom_bond_atom_site_label_2
_ccdc_geom_bond_type
Cu1   O10   S    
C6    C10   A    
C3    C30   A    
C2    C4    A    
C9    C14   A    
C5    C9    A    
C8    C13   A    
C26   C29   A    
C2    C18   A    
C1    O1    A    
C24   O7    D    
H7    O6    S    
H6    O4    S    
C8    H11   S    
C26   H16   S    
C20   O2    S    
C29   H4    S    
C23   O15   A    
C10   H13   S    
C5    C16   A    
C19   C30   A    
C8    C16   A    
C29   N1    A    
C13   C14   A    
C21   O3    D    
C12   O9    A    
Cu1   O12   S    
Cu2   N2    S    
C22   O5    D    
C28   N2    A    
C2    C21   S    
C20   O16   D    
C14   C23   S    
Cu1   N1    S    
Cu2   O11   S    
C7    C11   A    
C10   C15   A    
C26   N2    A    
C27   H2    S    
C21   O4    S    
C4    C24   S    
C15   C25   S    
H8    O8    S    
H5    O2    S    
C22   O6    S    
C1    O11   A    
C12   O10   A    
C27   N1    A    
C1    C19   S    
C28   H3    S    
C3    C18   A    
C24   O8    S    
C25   O13   A    
C7    H10   S    
C12   C18   S    
C27   C28   A    
C13   H15   S    
C6    C17   A    
C9    H12   S    
Cu2   O15   S    
C3    C22   S    
C20   C30   S    
Cu2   O9    S    
C7    C17   A    
C4    C19   A    
C11   C15   A    
Cu1   O14   S    
C6    H9    S    
C23   O12   A    
Cu1   Cu2   S    
Cu2   O13   S    
Cu1   O1    S    
C16   C17   S    
C11   H14   S    
C25   O14   A    
C5    H1    S    
