data_mof_unit_36746.cif
_audit_creation_date              2013-03-05T16:32:51-0500
_audit_creation_method            fapswitch 2.2
_symmetry_space_group_name_H-M    P1
_symmetry_Int_Tables_number       1
_space_group_crystal_system       triclinic
_cell_length_a                    19.318274
_cell_length_b                    10.837808
_cell_length_c                    9.589416
_cell_angle_alpha                 89.668471
_cell_angle_beta                  89.830438
_cell_angle_gamma                 91.557809
_cell_volume                      2006.92900454

loop_
_atom_site_label
_atom_site_type_symbol
_atom_site_description
_atom_site_fract_x
_atom_site_fract_y
_atom_site_fract_z
_atom_type_partial_charge
O1    O     O_R   0.500000 0.319640 0.618810 -0.576204
O2    O     O_R   0.500010 0.319680 0.381230 -0.560030
C1    C     C_R   0.502288 0.262564 0.500251 0.795546
O3    O     O_R   0.400140 0.499970 0.618830 -0.533170
O4    O     O_R   0.400150 0.500010 0.381250 -0.562958
C2    C     C_R   0.367791 0.501244 0.500066 0.812612
Cu1   Cu    Cu3+1 0.500000 0.499980 0.640670 0.963744
Cu2   Cu    Cu3+1 0.500000 0.500020 0.359330 0.955847
O5    O     O_R   0.499990 0.680320 0.618770 -0.568230
O6    O     O_R   0.500000 0.680360 0.381190 -0.590647
O7    O     O_R   0.599850 0.499990 0.618750 -0.585719
O8    O     O_R   0.599860 0.500030 0.381170 -0.581529
C3    C     C_R   0.500814 0.737591 0.499607 0.811905
C4    C     C_R   0.632535 0.500404 0.499803 0.808545
C5    C     C_R   0.258679 0.585757 0.589928 -0.277571
H1    H     H_    0.288851 0.645013 0.658642 0.157413
C6    C     C_R   0.186232 0.587403 0.595165 0.277679
C7    C     C_R   0.146863 0.510363 0.504263 0.029230
C8    C     C_R   0.181664 0.431649 0.413124 -0.211848
H2    H     H_    0.153293 0.371339 0.342611 0.165814
C9    C     C_R   0.253575 0.429021 0.411522 -0.213301
H3    H     H_    0.278801 0.364823 0.343477 0.147457
C10   C     C_R   0.292311 0.505775 0.499918 -0.058029
N1    N     N_R   0.034364 0.603284 0.557670 -0.190639
N2    N     N_R   0.965501 0.600920 0.556012 -0.238312
C11   C     C_R   0.930047 0.505040 0.497171 0.428543
N3    N     N_R   0.965566 0.412012 0.439537 -0.220931
N4    N     N_R   0.034397 0.414266 0.441782 -0.254058
C12   C     C_R   0.070265 0.509515 0.501704 0.407439
C13   C     C_R   0.817617 0.503105 0.626869 0.229276
C14   C     C_R   0.745221 0.502165 0.625621 -0.199683
H4    H     H_    0.717584 0.501304 0.724084 0.164749
C15   C     C_R   0.708688 0.500853 0.499504 -0.124908
C16   C     C_R   0.745273 0.499666 0.373174 -0.257429
C17   C     C_R   0.817609 0.498046 0.371899 0.238634
C18   C     C_R   0.854179 0.500590 0.498896 -0.043130
C19   C     C_R   0.513497 0.063169 0.624679 0.064759
C20   C     C_R   0.510802 0.129934 0.500070 -0.126565
C21   C     C_R   0.518322 0.066001 0.373851 -0.207584
H5    H     H_    0.522287 0.114671 0.275244 0.169955
C22   C     C_R   0.516556 0.937155 0.373243 -0.208787
H6    H     H_    0.519060 0.890259 0.274213 0.157729
C23   C     C_R   0.507348 0.871013 0.498864 -0.088578
C24   C     C_R   0.509618 0.935970 0.623979 -0.003689
C25   C     C_3   0.464234 0.929175 0.751449 0.071106
C26   C     C_3   0.470880 0.070047 0.754884 0.023133
C27   C     C_R   0.556617 0.541473 0.072382 0.190591
N5    N     N_R   0.500440 0.500930 0.147930 -0.214885
C28   C     C_R   0.449045 0.439075 0.076229 0.274743
C29   C     C_R   0.447327 0.443039 0.926479 0.250733
N6    N     N_R   0.500440 0.500890 0.852020 -0.214725
C30   C     C_R   0.557207 0.539342 0.926034 0.189944
C31   C     C_3   0.594029 0.661658 0.917528 -0.482799
C32   C     C_3   0.591653 0.665502 0.076156 -0.483229
H7    H     H_    0.647400 0.654103 0.875424 0.186674
H8    H     H_    0.643731 0.662701 0.124832 0.192060
H9    H     H_    0.557454 0.737783 0.116748 0.201941
N7    N     N_2   0.394380 0.884598 0.719989 -0.422485
H10   H     H_    0.371488 0.926034 0.635246 0.250190
C33   C     C_3   0.349126 0.871707 0.839815 -0.702570
H11   H     H_    0.298001 0.833155 0.806794 0.214700
H12   H     H_    0.341507 0.963091 0.888691 0.225215
H13   H     H_    0.371417 0.807520 0.917388 0.235532
H14   H     H_    0.487282 0.880546 0.841066 0.154146
H15   H     H_    0.421135 0.117148 0.738542 0.114605
N8    N     N_2   0.509679 0.118383 0.874277 -0.433983
H16   H     H_    0.504961 0.212170 0.885059 0.259227
C34   C     C_3   0.580695 0.082293 0.896453 -0.680668
H17   H     H_    0.599096 0.119125 0.998024 0.217279
H18   H     H_    0.614852 0.121292 0.812882 0.232850
H19   H     H_    0.584998 0.980610 0.900056 0.221154
N9    N     N_2   0.396508 0.374187 0.152500 -0.372001
H20   H     H_    0.348878 0.414227 0.153486 0.241982
C35   C     C_3   0.395885 0.240683 0.149177 -0.688745
H21   H     H_    0.353490 0.205531 0.081042 0.201691
H22   H     H_    0.386412 0.204243 0.256099 0.234187
H23   H     H_    0.445979 0.205813 0.111334 0.229940
N10   N     N_2   0.392821 0.380510 0.853856 -0.368872
H24   H     H_    0.392836 0.286137 0.863981 0.229895
C36   C     C_3   0.324117 0.429685 0.867507 -0.667723
H25   H     H_    0.295683 0.386331 0.956222 0.192688
H26   H     H_    0.293775 0.405241 0.773416 0.240475
H27   H     H_    0.326389 0.531754 0.878902 0.226516
H28   H     H_    0.562919 0.732842 0.866308 0.202032
N11   N     N_2   0.153904 0.664080 0.694580 -0.415500
H29   H     H_    0.180248 0.746792 0.710922 0.244480
C37   C     C_3   0.136399 0.601874 0.824366 -0.666813
H30   H     H_    0.184220 0.573639 0.878791 0.210603
H31   H     H_    0.102698 0.519062 0.805019 0.237504
H32   H     H_    0.107858 0.665384 0.892853 0.235234
N12   N     N_2   0.852491 0.500926 0.757715 -0.432573
H33   H     H_    0.900881 0.463145 0.757031 0.258274
C38   C     C_3   0.849846 0.614443 0.835911 -0.672282
H34   H     H_    0.878493 0.604121 0.935234 0.226423
H35   H     H_    0.795430 0.636521 0.861089 0.218976
H36   H     H_    0.874334 0.691722 0.775244 0.244921
H37   H     H_    0.717893 0.499535 0.274716 0.161043
N13   N     N_2   0.853586 0.500825 0.242298 -0.425042
H38   H     H_    0.836576 0.568980 0.176253 0.244551
C39   C     C_3   0.855533 0.382585 0.173410 -0.640276
H39   H     H_    0.802594 0.352154 0.141058 0.212743
H40   H     H_    0.877453 0.311924 0.243734 0.248452
H41   H     H_    0.888845 0.390833 0.079095 0.233388

loop_
_geom_bond_atom_site_label_1
_geom_bond_atom_site_label_2
_geom_bond_distance
_ccdc_geom_bond_type
N8    C34   1.452672 S    
C37   H30   1.111682 S    
C38   H34   1.109587 S    
C22   H6    1.081253 S    
C17   C18   1.409746 A    
C4    C15   1.471024 S    
Cu1   Cu2   2.697884 S    
C21   C22   1.395941 A    
C31   C32   1.522552 S    
C30   C31   1.488990 S    
Cu1   O7    1.939727 S    
C11   N3    1.354483 A    
C35   H22   1.109507 S    
C31   H28   1.104621 S    
C6    N11   1.422429 S    
N4    C12   1.358773 A    
C8    C9    1.390292 A    
C26   N8    1.462103 S    
O3    Cu1   1.941071 S    
C20   C21   1.407242 A    
C36   H25   1.106708 S    
O7    C4    1.302020 A    
N10   C36   1.449478 S    
N7    C33   1.445584 S    
C5    H1    1.083131 S    
C16   H37   1.083566 S    
C33   H12   1.111351 S    
C16   C17   1.398014 A    
O5    C3    1.297085 A    
N1    C12   1.358019 A    
C14   H4    1.083189 S    
C1    C20   1.451247 S    
C34   H17   1.110514 S    
C28   N9    1.417884 S    
C14   C15   1.402006 A    
C13   N12   1.426299 S    
C17   N13   1.421898 S    
N11   C37   1.446804 S    
N8    H16   1.028767 S    
C38   H35   1.110626 S    
C9    H3    1.081284 S    
C22   C23   1.406567 A    
C36   H27   1.111911 S    
C29   N10   1.422674 S    
C15   C16   1.401013 A    
Cu1   O5    1.964536 S    
C31   H7    1.111422 S    
C32   H8    1.111412 S    
C25   N7    1.453981 S    
C35   H21   1.109895 S    
N6    C30   1.365003 A    
N1    N2    1.330020 A    
C26   H15   1.111420 S    
C36   H26   1.106941 S    
N12   H33   1.030726 S    
N10   H24   1.026836 S    
C7    C8    1.407092 A    
C29   N6    1.382459 A    
N7    H10   1.032627 S    
N11   H29   1.031705 S    
C35   H23   1.109243 S    
C39   H41   1.110222 S    
C33   H11   1.109600 S    
O1    C1    1.298642 A    
C23   C24   1.394773 A    
Cu2   N5    2.027161 S    
C19   C20   1.395199 A    
N12   C38   1.446488 S    
C27   N5    1.364338 A    
C13   C14   1.398403 A    
Cu2   O8    1.941069 S    
C39   H40   1.110809 S    
C6    C7    1.418881 A    
C7    C12   1.479789 S    
C27   C32   1.489140 S    
N9    C35   1.447147 S    
N5    C28   1.371539 A    
O8    C4    1.302617 A    
C28   C29   1.436920 A    
C38   H36   1.111254 S    
N13   C39   1.446451 S    
C33   H13   1.111269 S    
O3    C2    1.300872 A    
C3    C23   1.448054 S    
C24   C25   1.502469 S    
C11   C18   1.465162 S    
C5    C6    1.400903 A    
O1    Cu1   1.966905 S    
Cu2   O6    1.966906 S    
O2    Cu2   1.964536 S    
N9    H20   1.027982 S    
O6    C3    1.296990 A    
O4    Cu2   1.939727 S    
C27   C30   1.403742 A    
C25   H14   1.106493 S    
C13   C18   1.414890 A    
C8    H2    1.082904 S    
C9    C10   1.395910 A    
O2    C1    1.296678 A    
N2    C11   1.355590 A    
Cu1   N6    2.026846 S    
O4    C2    1.298290 A    
C19   C24   1.378609 A    
C34   H19   1.107748 S    
C2    C10   1.460301 S    
C5    C10   1.398028 A    
C39   H39   1.111610 S    
C21   H5    1.081594 S    
C25   C26   1.529205 S    
C34   H18   1.110892 S    
N13   H38   1.031363 S    
C37   H32   1.110324 S    
N3    N4    1.329504 A    
C37   H31   1.111144 S    
C19   C26   1.496882 S    
C32   H9    1.109873 S    
