data_mof_unit_12801.cif
_audit_creation_date              2013-03-05T15:59:36-0500
_audit_creation_method            fapswitch 2.2
_symmetry_space_group_name_H-M    P1
_symmetry_Int_Tables_number       1
_space_group_crystal_system       triclinic
_cell_length_a                    12.605221
_cell_length_b                    13.120758
_cell_length_c                    15.714095
_cell_angle_alpha                 90.814181
_cell_angle_beta                  103.063332
_cell_angle_gamma                 81.648979
_cell_volume                      2504.38483888

loop_
_atom_site_label
_atom_site_type_symbol
_atom_site_description
_atom_site_fract_x
_atom_site_fract_y
_atom_site_fract_z
_atom_type_partial_charge
O1    O     O_R   0.366730 0.627160 0.478790 -0.585194
O2    O     O_R   0.544830 0.662520 0.507160 -0.622202
C1    C     C_R   0.437670 0.691661 0.484252 0.877179
O3    O     O_R   0.410960 0.482330 0.609040 -0.613140
O4    O     O_R   0.589060 0.517690 0.637410 -0.610483
C2    C     C_R   0.501304 0.500376 0.661987 0.905568
Zn1   Zn    Zn3+2 0.381080 0.476390 0.481050 0.981227
Zn2   Zn    Zn3+2 0.618920 0.523610 0.518950 0.934216
O5    O     O_R   0.455170 0.337480 0.492840 -0.612518
O6    O     O_R   0.633270 0.372840 0.521210 -0.634793
O7    O     O_R   0.410940 0.482310 0.362590 -0.597928
O8    O     O_R   0.589040 0.517670 0.390960 -0.640449
C3    C     C_R   0.561791 0.308562 0.509464 0.858818
C4    C     C_R   0.498717 0.499626 0.338025 0.886437
C5    C     C_3   0.437562 0.585718 0.017376 -0.157361
C6    C     C_3   0.542996 0.582883 0.982088 -0.164365
H1    H     H_    0.577865 0.650887 0.965255 0.145338
H2    H     H_    0.385957 0.656012 0.033578 0.147566
H3    H     H_    0.687478 0.493318 0.090747 0.158754
C7    C     C_1   0.504094 0.500815 0.751633 -0.173176
C8    C     C_1   0.496190 0.498892 0.248454 -0.162022
C9    C     C_3   0.397602 0.503078 0.951482 -0.154858
C10   C     C_3   0.503018 0.500241 0.917956 0.192027
C11   C     C_3   0.457999 0.416395 0.018166 -0.158432
C12   C     C_3   0.497964 0.499042 0.082288 0.190158
C13   C     C_3   0.563436 0.413555 0.982870 -0.153775
C14   C     C_3   0.603397 0.496198 0.048783 -0.149828
C15   C     C_1   0.504599 0.500751 0.827176 -0.065122
C16   C     C_1   0.496057 0.498709 0.172989 -0.059751
H4    H     H_    0.615049 0.343263 0.966679 0.149033
H5    H     H_    0.423133 0.348396 0.035014 0.147290
H6    H     H_    0.313507 0.505938 0.909552 0.145872
C17   C     C_R   0.711248 0.059586 0.450477 -0.160831
H7    H     H_    0.751749 0.212877 0.467117 0.160827
H8    H     H_    0.713172 0.867333 0.392874 0.160846
H9    H     H_    0.783933 0.031623 0.426273 0.171211
C18   C     C_R   0.599621 0.199123 0.505275 -0.062347
C19   C     C_R   0.287725 0.845085 0.473866 -0.156176
C20   C     C_R   0.263954 0.951466 0.486946 0.318010
C21   C     C_R   0.345682 0.013558 0.491318 -0.252429
C22   C     C_R   0.450698 0.973196 0.477803 0.028166
C23   C     C_R   0.470525 0.869072 0.455768 0.082218
C24   C     C_R   0.535486 0.034189 0.482382 0.111503
C25   C     C_R   0.630930 0.996099 0.451535 0.152741
C26   C     C_R   0.642685 0.896740 0.419378 -0.243383
C27   C     C_R   0.563359 0.834141 0.421020 -0.154411
C28   C     C_R   0.527130 0.132959 0.515948 -0.241107
C29   C     C_R   0.694267 0.162034 0.475311 -0.181563
C30   C     C_R   0.396087 0.802578 0.467417 -0.233861
H10   H     H_    0.461497 0.162467 0.547336 0.153867
H11   H     H_    0.322005 0.094624 0.500251 0.180836
H12   H     H_    0.573834 0.759022 0.392194 0.172507
C31   C     C_R   0.088280 0.350017 0.372596 -0.100988
H13   H     H_    0.257073 0.337247 0.361779 0.168533
H14   H     H_    0.879097 0.312057 0.361700 0.195626
N1    N     N_R   0.222180 0.444680 0.455580 -0.109229
C32   C     C_R   0.800084 0.628632 0.603837 0.020917
C33   C     C_R   0.905992 0.653116 0.628507 -0.219506
C34   C     C_R   0.987807 0.602213 0.590459 -0.202546
C35   C     C_R   0.963390 0.527238 0.526067 0.018420
C36   C     C_R   0.854912 0.503167 0.505352 0.244476
C37   C     C_R   0.041811 0.475293 0.481951 -0.024399
C38   C     C_R   0.010837 0.399628 0.418379 0.106523
C39   C     C_R   0.904677 0.373563 0.404321 -0.214755
C40   C     C_R   0.828358 0.425175 0.446381 -0.219101
C41   C     C_R   0.150420 0.495998 0.498351 -0.019412
C42   C     C_R   0.195044 0.373502 0.394673 -0.030490
N2    N     N_R   0.776980 0.554790 0.543960 -0.132421
H15   H     H_    0.181150 0.552042 0.544457 0.139621
H16   H     H_    0.736038 0.667405 0.633398 0.145601
H17   H     H_    0.068821 0.623075 0.613162 0.166397
H18   H     H_    0.924801 0.710966 0.677218 0.168452
H19   H     H_    0.748879 0.401578 0.431805 0.207965
C43   C     C_2   0.195967 0.783044 0.455339 0.980250
O9    O     O_2   0.177526 0.736788 0.386649 -0.613429
O10   O     O_R   0.129155 0.779168 0.514605 -0.770595
H20   H     H_    0.065702 0.739613 0.491230 0.333028
N3    N     N_R   0.156652 0.998457 0.495046 0.211542
O11   O     O_R   0.120042 0.976114 0.562494 -0.343481
O12   O     O_R   0.107547 0.079130 0.447133 -0.387906
C44   C     C_2   0.062208 0.276967 0.300284 0.936951
O13   O     O_2   0.974376 0.291757 0.246608 -0.641608
O14   O     O_R   0.141548 0.193880 0.290829 -0.779285
H21   H     H_    0.115354 0.150247 0.238667 0.354141

loop_
_geom_bond_atom_site_label_1
_geom_bond_atom_site_label_2
_geom_bond_distance
_ccdc_geom_bond_type
C5    H2    1.110186 S    
C22   C23   1.405464 A    
C44   O13   1.222688 D    
C1    C30   1.479648 S    
C19   C30   1.423645 A    
C26   C27   1.387776 A    
Zn1   O7    1.985497 S    
C13   C14   1.546999 S    
C9    H6    1.110240 S    
C4    C8    1.400587 S    
C31   C44   1.486481 S    
C11   C13   1.547165 S    
O4    C2    1.301159 A    
O7    C4    1.301328 A    
N3    O12   1.300792 A    
C5    C12   1.530976 S    
C41   H15   1.075379 S    
C5    C6    1.547057 S    
C27   H12   1.081946 S    
C17   H9    1.083804 S    
C40   H19   1.066005 S    
C35   C37   1.422289 A    
C23   C27   1.415458 A    
C10   C13   1.531121 S    
O5    C3    1.309384 A    
C5    C9    1.546800 S    
C6    H1    1.110162 S    
C32   H16   1.081607 S    
C18   C28   1.385845 A    
H3    C14   1.110281 S    
C3    C18   1.451279 S    
C6    C14   1.547048 S    
C34   C35   1.416053 A    
C22   C24   1.414196 A    
Zn1   N1    2.054292 S    
O3    Zn1   1.963334 S    
C44   O14   1.398776 S    
C28   H10   1.078726 S    
C12   C16   1.430988 S    
C43   O9    1.223283 D    
C37   C41   1.400374 A    
C20   N3    1.434974 S    
O10   H20   1.013092 S    
O3    C2    1.299846 A    
C20   C21   1.392819 A    
N3    O11   1.300570 A    
H13   C42   1.082820 S    
C7    C15   1.185674 T    
C33   C34   1.390831 A    
C8    C16   1.185469 T    
C35   C36   1.413073 A    
O1    C1    1.306242 A    
C24   C25   1.419227 A    
C37   C38   1.429721 A    
O14   H21   1.013841 S    
Zn2   O8    1.963332 S    
H14   C39   1.079991 S    
C10   C15   1.431289 S    
C11   C12   1.530725 S    
C18   C29   1.400232 A    
C43   O10   1.395547 S    
C21   C22   1.413546 A    
O8    C4    1.299550 A    
C13   H4    1.110174 S    
C6    C10   1.530823 S    
C9    C11   1.546906 S    
H7    C29   1.082422 S    
C32   N2    1.356831 A    
N1    C42   1.350789 A    
C25   C26   1.391352 A    
C19   C43   1.483143 S    
Zn1   O5    1.914513 S    
O1    Zn1   1.960223 S    
C17   C25   1.404332 A    
O2    Zn2   1.914513 S    
O6    C3    1.303177 A    
O4    Zn2   1.985496 S    
Zn2   N2    2.041969 S    
C12   C14   1.531722 S    
C21   H11   1.078243 S    
C2    C7    1.401131 S    
C39   C40   1.380720 A    
O2    C1    1.316988 A    
C11   H5    1.110169 S    
C31   C38   1.419091 A    
C36   N2    1.362470 A    
C33   H18   1.082580 S    
C32   C33   1.386656 A    
C19   C20   1.406586 A    
N1    C41   1.344753 A    
C31   C42   1.390257 A    
C23   C30   1.412471 A    
C38   C39   1.397723 A    
C36   C40   1.396518 A    
Zn2   O6    1.960223 S    
C17   C29   1.394362 A    
C9    C10   1.531726 S    
C24   C28   1.390976 A    
C34   H17   1.076463 S    
H8    C26   1.083935 S    
