data_mof_unit_18571.cif
_audit_creation_date              2012-12-10T20:39:58-0500
_audit_creation_method            fapswitch 2.2
_symmetry_space_group_name_H-M    P1
_symmetry_Int_Tables_number       1
_space_group_crystal_system       triclinic
_cell_length_a                    23.031142
_cell_length_b                    10.62584
_cell_length_c                    9.919182
_cell_angle_alpha                 89.895931
_cell_angle_beta                  90.81666
_cell_angle_gamma                 89.79199
_cell_volume                      2427.20728552

loop_
_atom_site_label
_atom_site_type_symbol
_atom_type_description
_atom_site_fract_x
_atom_site_fract_y
_atom_site_fract_z
_atom_type_partial_charge
C1    C     C_R   0.500039 0.260766 0.500026 0.889520
C2    C     C_R   0.972391 0.336807 0.734928 -0.163767
C3    C     C_R   0.032730 0.327343 0.733919 -0.164560
C4    C     C_R   0.062963 0.344940 0.613466 -0.012595
C5    C     C_R   0.031974 0.366918 0.492094 -0.022650
C6    C     C_R   0.061872 0.384707 0.370642 -0.009940
C7    C     C_R   0.030613 0.405127 0.249981 -0.164238
C8    C     C_R   0.970265 0.413365 0.250788 -0.163412
C9    C     C_R   0.123640 0.347208 0.611856 0.497595
C10   C     C_R   0.122503 0.387682 0.374503 0.485070
C11   C     C_R   0.253651 0.312625 0.450923 0.155005
C12   C     C_R   0.389342 0.498293 0.499030 0.846481
C13   C     C_R   0.311729 0.349658 0.447384 -0.240760
C14   C     C_R   0.328462 0.467698 0.496367 -0.028622
C15   C     C_R   0.287751 0.550964 0.548165 -0.270785
C16   C     C_R   0.229649 0.517082 0.548504 -0.128136
C17   C     C_R   0.212311 0.398978 0.499680 0.295991
C18   C     C_R   0.753048 0.338079 0.528906 -0.094974
C19   C     C_R   0.693883 0.361616 0.530512 -0.258617
C20   C     C_R   0.672772 0.482900 0.504109 -0.041889
C21   C     C_R   0.710966 0.583269 0.478783 0.049026
C22   C     C_R   0.770605 0.558138 0.477045 -0.129105
C23   C     C_R   0.498442 0.739441 0.499598 0.867095
C24   C     C_R   0.791403 0.435887 0.501374 0.288795
C25   C     C_R   0.542992 0.062869 0.565196 0.105772
C26   C     C_R   0.499713 0.129246 0.497676 -0.120250
C27   C     C_R   0.458975 0.068481 0.415689 -0.259711
C28   C     C_R   0.456995 0.937953 0.414037 0.144675
C29   C     C_R   0.497359 0.871726 0.496772 -0.140273
C30   C     C_R   0.541876 0.934528 0.564613 0.081515
C31   C     C_3   0.561290 0.926658 0.708929 -0.505264
C32   C     C_3   0.562305 0.069301 0.709257 -0.453671
C33   C     C_R   0.456560 0.441599 0.070022 0.170564
C34   C     C_R   0.610595 0.499629 0.501014 0.867302
C35   C     C_R   0.544084 0.551483 0.075050 -0.147718
C36   C     C_R   0.544240 0.554093 0.932048 0.196378
C37   C     C_R   0.455270 0.447034 0.927690 0.125132
C38   C     C_3   0.392978 0.490984 0.927724 -0.133612
C39   C     C_3   0.393793 0.472993 0.080002 -0.499666
C40   C     C_R   0.880080 0.418506 0.377260 0.504472
C41   C     C_R   0.881151 0.381961 0.615362 0.502449
C42   C     C_R   0.941287 0.363504 0.615395 -0.014190
C43   C     C_R   0.971059 0.375991 0.493032 -0.023196
C44   C     C_R   0.940226 0.401746 0.372338 -0.015336
H1    H     H_    0.950369 0.325832 0.829982 0.190605
H2    H     H_    0.664328 0.284792 0.550391 0.139789
H3    H     H_    0.801025 0.633229 0.457057 0.140148
H4    H     H_    0.426899 0.122784 0.359127 0.154758
H5    H     H_    0.527695 0.886525 0.775893 0.212652
H6    H     H_    0.605280 0.884149 0.719810 0.195463
H7    H     H_    0.529121 0.111784 0.775864 0.216115
H8    H     H_    0.606737 0.108796 0.720500 0.197294
H9    H     H_    0.578381 0.596813 0.132123 0.156573
H10   H     H_    0.055626 0.309664 0.828252 0.190989
H11   H     H_    0.363585 0.424648 0.873632 0.183185
H12   H     H_    0.385968 0.559815 0.139496 0.214830
H13   H     H_    0.368069 0.390507 0.113212 0.189784
H14   H     H_    0.052691 0.417816 0.155239 0.191088
H15   H     H_    0.947409 0.431877 0.156585 0.193509
H16   H     H_    0.344249 0.285485 0.409006 0.126874
H17   H     H_    0.300858 0.642213 0.585901 0.141161
H18   H     H_    0.197695 0.583041 0.585598 0.145696
H19   H     H_    0.769186 0.243721 0.547704 0.145484
N1    N     N_R   0.852220 0.410857 0.497839 -0.354859
N2    N     N_R   0.151741 0.372020 0.494376 -0.361476
N3    N     N_R   0.499610 0.499140 0.142800 -0.122321
N4    N     N_R   0.499610 0.499180 0.857150 -0.132525
O1    O     O_R   0.500010 0.316790 0.614690 -0.613393
O2    O     O_2   0.851889 0.373762 0.731975 -0.553567
O3    O     O_2   0.154431 0.328395 0.726965 -0.562224
O4    O     O_2   0.152124 0.409817 0.260468 -0.559246
O5    O     O_R   0.500000 0.316760 0.385350 -0.608225
O6    O     O_R   0.416160 0.499980 0.614700 -0.625651
O7    O     O_R   0.416150 0.499940 0.385360 -0.619578
O8    O     O_R   0.500000 0.683240 0.614650 -0.647608
O9    O     O_R   0.499990 0.683210 0.385310 -0.620290
O10   O     O_R   0.583850 0.500060 0.614640 -0.620307
O11   O     O_R   0.583840 0.500020 0.385300 -0.607894
O12   O     O_2   0.849593 0.443143 0.262941 -0.553793
Zn1   Zn    Zn3+2 0.500000 0.500020 0.653130 0.918516
Zn2   Zn    Zn3+2 0.500000 0.499980 0.346870 0.932311
C45   C     C_3   0.689370 0.716157 0.454307 -0.445904
C46   C     C_3   0.685655 0.744674 0.302945 -0.307487
C47   C     C_3   0.654574 0.869415 0.275534 -0.868298
H20   H     H_    0.609049 0.864909 0.310746 0.264280
H21   H     H_    0.677454 0.947559 0.327915 0.265553
H22   H     H_    0.653861 0.888784 0.165476 0.249534
H23   H     H_    0.730149 0.748904 0.261197 0.232069
H24   H     H_    0.661633 0.668505 0.250115 0.227293
H25   H     H_    0.646152 0.730395 0.500489 0.192838
H26   H     H_    0.719217 0.784136 0.504451 0.200564
C48   C     C_3   0.407286 0.875269 0.338282 -0.390796
C49   C     C_3   0.420686 0.851069 0.189297 -0.318297
C50   C     C_3   0.429057 0.971679 0.107772 -0.872675
H27   H     H_    0.390979 0.035157 0.118451 0.255520
H28   H     H_    0.469100 0.021115 0.141163 0.274821
H29   H     H_    0.433817 0.947667 0.999574 0.236224
H30   H     H_    0.459859 0.790857 0.179572 0.241916
H31   H     H_    0.383303 0.799247 0.145040 0.202998
H32   H     H_    0.395768 0.784702 0.386994 0.159611
H33   H     H_    0.367561 0.934528 0.344733 0.190770
C51   C     C_3   0.591934 0.630188 0.869599 -0.414384
C52   C     C_3   0.649724 0.559018 0.873096 -0.786802
H34   H     H_    0.644925 0.463756 0.828615 0.278798
H35   H     H_    0.682438 0.612076 0.814869 0.248385
H36   H     H_    0.665796 0.548993 0.978704 0.245806
H37   H     H_    0.580696 0.660822 0.766977 0.259534
H38   H     H_    0.597432 0.719447 0.926747 0.171589
C53   C     C_3   0.384514 0.630786 0.887574 -0.348889
C54   C     C_3   0.320809 0.671106 0.900513 -0.353820
C55   C     C_3   0.311430 0.806312 0.852366 -0.901250
H39   H     H_    0.336520 0.872443 0.916816 0.270661
H40   H     H_    0.325252 0.817096 0.746168 0.251800
H41   H     H_    0.264657 0.830990 0.858441 0.266320
H42   H     H_    0.292721 0.607720 0.839273 0.243625
H43   H     H_    0.307308 0.663801 0.007333 0.235137
H44   H     H_    0.412710 0.691900 0.951108 0.189313
H45   H     H_    0.398103 0.646936 0.782801 0.243921
C56   C     C_3   0.237383 0.181849 0.403662 -0.396509
C57   C     C_3   0.261563 0.081189 0.500706 -0.368015
C58   C     C_3   0.243230 0.949351 0.456950 -0.875318
H46   H     H_    0.195216 0.940473 0.459347 0.273284
H47   H     H_    0.258376 0.929481 0.353304 0.261155
H48   H     H_    0.262665 0.878563 0.526797 0.244176
H49   H     H_    0.309784 0.085223 0.504156 0.213707
H50   H     H_    0.245268 0.098963 0.603968 0.252455
H51   H     H_    0.189571 0.170705 0.395814 0.218518
H52   H     H_    0.254985 0.166654 0.301128 0.206502

loop_
_geom_bond_atom_site_label_1
_geom_bond_atom_site_label_2
_ccdc_geom_bond_type
C27   H4    S    
O1    Zn1   S    
C49   C50   S    
C12   O7    A    
C35   H9    S    
C41   C42   A    
C19   C20   A    
C47   H22   S    
C23   O9    A    
C11   C56   S    
C19   H2    S    
C53   H44   S    
C7    C8    A    
C13   H16   S    
C26   C27   A    
C33   C39   S    
C18   C24   A    
C23   C29   S    
C28   C29   A    
C37   C38   S    
C47   H21   S    
C8    H15   S    
C30   C31   S    
C3    H10   S    
C57   H50   S    
C18   H19   S    
C10   N2    A    
C15   C16   A    
C39   H13   S    
C1    O1    A    
C36   C51   S    
C18   C19   A    
C54   C55   S    
C32   H8    S    
C58   H48   S    
C38   H11   S    
C46   C47   S    
C16   C17   A    
C33   N3    A    
C51   H38   S    
C52   H36   S    
O8    Zn1   S    
C49   H31   S    
C7    H14   S    
O5    Zn2   S    
C20   C34   S    
C10   O4    S    
C25   C32   S    
C46   H23   S    
C5    C43   A    
C24   N1    S    
C13   C14   A    
C50   H27   S    
C16   H18   S    
C31   H5    S    
C12   O6    A    
C53   H45   S    
C2    H1    S    
C38   C39   S    
C46   H24   S    
C36   N4    A    
C1    O5    A    
C47   H20   S    
C52   H35   S    
C57   H49   S    
C35   N3    A    
C25   C26   A    
C33   C37   A    
C45   H26   S    
C35   C36   A    
C43   C44   A    
C32   H7    S    
C29   C30   A    
C39   H12   S    
C20   C21   A    
C15   H17   S    
C40   O12   S    
C51   H37   S    
C55   H40   S    
C45   H25   S    
C9    O3    S    
C38   C53   S    
C50   H28   S    
C58   H46   S    
C48   H33   S    
C12   C14   S    
C1    C26   S    
C22   C24   A    
C42   C43   A    
O7    Zn2   S    
C3    C4    A    
C54   H43   S    
C52   H34   S    
C57   C58   S    
C48   H32   S    
C41   O2    S    
O10   Zn1   S    
C25   C30   A    
C11   C17   A    
C55   H39   S    
C31   C32   S    
N4    Zn1   S    
C8    C44   A    
C23   O8    A    
C4    C5    A    
C40   N1    A    
O9    Zn2   S    
C6    C10   A    
C54   H42   S    
C56   C57   S    
C6    C7    A    
C17   N2    S    
C50   H29   S    
C2    C3    A    
C34   O10   A    
C53   C54   S    
C56   H52   S    
N3    Zn2   S    
C11   C13   A    
O11   Zn2   S    
C5    C6    A    
C2    C42   A    
C37   N4    A    
C48   C49   S    
O6    Zn1   S    
C22   H3    S    
C55   H41   S    
C51   C52   S    
C9    N2    A    
C58   H47   S    
C28   C48   S    
C40   C44   A    
C21   C45   S    
C45   C46   S    
C27   C28   A    
C14   C15   A    
C31   H6    S    
C41   N1    A    
C4    C9    A    
C21   C22   A    
C49   H30   S    
C34   O11   A    
C56   H51   S    
