data_mof_unit_6128.cif
_audit_creation_date              2012-12-10T17:15:45-0500
_audit_creation_method            fapswitch 2.2
_symmetry_space_group_name_H-M    P1
_symmetry_Int_Tables_number       1
_space_group_crystal_system       triclinic
_cell_length_a                    17.312931
_cell_length_b                    12.937496
_cell_length_c                    11.824058
_cell_angle_alpha                 99.030794
_cell_angle_beta                  89.399594
_cell_angle_gamma                 93.258242
_cell_volume                      2611.36228154

loop_
_atom_site_label
_atom_site_type_symbol
_atom_type_description
_atom_site_fract_x
_atom_site_fract_y
_atom_site_fract_z
_atom_type_partial_charge
C1    C     C_R   0.495945 0.299815 0.479876 0.935232
C2    C     C_R   0.504095 0.700222 0.520090 0.902745
C3    C     C_R   0.513231 0.813299 0.526704 -0.231662
C4    C     C_R   0.487442 0.186494 0.470295 -0.203914
C5    C     C_R   0.413449 0.022528 0.408119 -0.090304
C6    C     C_R   0.600486 0.967392 0.536389 -0.077879
C7    C     C_R   0.421119 0.132163 0.419028 0.354560
C8    C     C_R   0.584241 0.865809 0.560767 0.290156
C9    C     C_R   0.544477 0.133724 0.516394 0.433885
C10   C     C_R   0.455133 0.864262 0.479557 0.497511
C11   C     C_R   0.539237 0.023470 0.502339 -0.113044
C12   C     C_R   0.468978 0.968878 0.460936 -0.091992
C13   C     C_R   0.442974 0.380838 0.030657 -0.231505
C14   C     C_R   0.573672 0.603534 0.965891 -0.194008
C15   C     C_R   0.442796 0.398344 0.152094 0.659407
C16   C     C_R   0.569769 0.586855 0.844547 0.650072
C17   C     C_R   0.523910 0.553005 0.153243 0.027294
C18   C     C_R   0.470483 0.452883 0.847176 0.084141
C19   C     C_R   0.526096 0.539010 0.030076 -0.092095
C20   C     C_R   0.479570 0.456113 0.968423 -0.095814
C21   C     C_R   0.351052 0.508565 0.516319 0.817862
C22   C     C_R   0.649078 0.495159 0.483797 0.873518
C23   C     C_R   0.266107 0.519256 0.526662 -0.296651
C24   C     C_R   0.732927 0.479046 0.471928 -0.270991
C25   C     C_R   0.221186 0.512423 0.426321 0.460437
C26   C     C_R   0.768082 0.420966 0.547826 0.504926
C27   C     C_R   0.141279 0.498504 0.432290 -0.322824
C28   C     C_R   0.847907 0.405894 0.536237 -0.325304
C29   C     C_R   0.103861 0.493368 0.536824 -0.027097
C30   C     C_R   0.892088 0.450109 0.455312 -0.019717
C31   C     C_R   0.147058 0.511685 0.638902 0.511405
C32   C     C_R   0.858064 0.508463 0.380964 0.493531
C33   C     C_R   0.227936 0.533183 0.634833 -0.189872
C34   C     C_R   0.777864 0.519471 0.385597 -0.158527
C35   C     C_2   0.018738 0.480318 0.541847 -0.198058
C36   C     C_2   0.975405 0.438437 0.451156 -0.165543
Cu1   Cu    Cu3+1 0.505800 0.507690 0.615350 1.019968
Cu2   Cu    Cu3+1 0.494200 0.492310 0.384650 1.035114
H1    H     H_    0.000622 0.406731 0.369703 0.179808
H2    H     H_    0.989965 0.511359 0.621132 0.194547
H3    H     H_    0.877030 0.358912 0.588812 0.163922
H4    H     H_    0.109171 0.493235 0.353532 0.175948
N1    N     N_R   0.514530 0.519260 0.788680 -0.260279
N2    N     N_R   0.485470 0.480740 0.211320 -0.253424
O1    O     O_R   0.504120 0.354440 0.581590 -0.543062
O2    O     O_R   0.495880 0.645560 0.418410 -0.580851
O3    O     O_R   0.494320 0.341440 0.386760 -0.520787
O4    O     O_R   0.505680 0.658560 0.613240 -0.559522
O5    O     O_R   0.391870 0.507230 0.608700 -0.647807
O6    O     O_R   0.608130 0.492770 0.391300 -0.650643
O7    O     O_R   0.382070 0.494240 0.413880 -0.490763
O8    O     O_R   0.617930 0.505760 0.586120 -0.501586
O9    O     O_3   0.255126 0.514010 0.320223 -0.593553
C37   C     C_3   0.248664 0.613891 0.288935 -0.212095
H5    H     H_    0.275233 0.676661 0.354187 0.209018
H6    H     H_    0.187305 0.629229 0.274042 0.140381
H7    H     H_    0.280583 0.616559 0.207479 0.212542
O10   O     O_3   0.720556 0.374460 0.624485 -0.525054
C38   C     C_3   0.760796 0.344178 0.716250 -0.291095
H8    H     H_    0.803540 0.406664 0.755688 0.128160
H9    H     H_    0.788512 0.269069 0.687831 0.185122
H10   H     H_    0.718689 0.330735 0.784362 0.168258
O11   O     O_3   0.620117 0.641294 0.780280 -0.541539
C39   C     C_3   0.696803 0.610148 0.788998 -0.257168
H11   H     H_    0.700003 0.530108 0.811325 0.139471
H12   H     H_    0.730405 0.667233 0.852084 0.156564
H13   H     H_    0.726479 0.611726 0.705740 0.197409
O12   O     O_3   0.403993 0.328197 0.213083 -0.521078
C40   C     C_3   0.323748 0.319679 0.188882 -0.167651
H14   H     H_    0.308346 0.241484 0.138722 0.144861
H15   H     H_    0.303042 0.381900 0.142978 0.126520
H16   H     H_    0.291487 0.324071 0.270530 0.228012
C41   C     C_2   0.415573 0.275720 0.973266 0.467028
H17   H     H_    0.355505 0.260411 0.947558 0.044412
O13   O     O_2   0.460405 0.205497 0.955027 -0.515153
C42   C     C_2   0.632002 0.683712 0.020667 0.427281
H18   H     H_    0.672412 0.664052 0.082415 0.061743
O14   O     O_2   0.635199 0.772393 0.996939 -0.500262
C43   C     C_2   0.742637 0.571291 0.297417 0.436464
H19   H     H_    0.698478 0.529204 0.241060 0.046097
O15   O     O_2   0.763927 0.660454 0.285305 -0.544939
C44   C     C_2   0.269987 0.580994 0.741349 0.414141
H20   H     H_    0.321989 0.630883 0.736340 0.079972
O16   O     O_2   0.246485 0.567910 0.836055 -0.522594
O17   O     O_3   0.109258 0.516798 0.743176 -0.545278
C45   C     C_3   0.102252 0.414901 0.772044 -0.255757
H21   H     H_    0.065030 0.361227 0.709772 0.133781
H22   H     H_    0.074268 0.419126 0.857337 0.193069
H23   H     H_    0.159865 0.381985 0.778058 0.168118
O18   O     O_3   0.902079 0.547984 0.297201 -0.568558
C46   C     C_3   0.937879 0.645749 0.344823 -0.234975
H24   H     H_    0.961501 0.685051 0.273987 0.192915
H25   H     H_    0.987151 0.635475 0.400535 0.148525
H26   H     H_    0.896574 0.698896 0.393726 0.186984
O19   O     O_3   0.383399 0.812234 0.458391 -0.552866
C47   C     C_3   0.339154 0.828074 0.559975 -0.408440
H27   H     H_    0.330601 0.912825 0.588627 0.168455
H28   H     H_    0.365960 0.793583 0.629558 0.161777
H29   H     H_    0.281180 0.787940 0.542959 0.186416
O20   O     O_3   0.601977 0.191847 0.583023 -0.529410
C48   C     C_3   0.586470 0.189366 0.700591 -0.145252
H30   H     H_    0.531256 0.146262 0.719230 0.166742
H31   H     H_    0.583960 0.270972 0.745815 0.211253
H32   H     H_    0.634669 0.152888 0.737791 0.126443
O21   O     O_3   0.639760 0.814813 0.610590 -0.588507
C49   C     C_3   0.642932 0.856540 0.728520 -0.154821
H33   H     H_    0.589071 0.833696 0.772749 0.221396
H34   H     H_    0.652294 0.943385 0.744914 0.090580
H35   H     H_    0.692743 0.825031 0.767237 0.209159
O22   O     O_3   0.363150 0.186525 0.379409 -0.556080
C50   C     C_3   0.310990 0.214516 0.470312 -0.347047
H36   H     H_    0.288932 0.145406 0.509034 0.144192
H37   H     H_    0.260233 0.248429 0.436676 0.174864
H38   H     H_    0.338035 0.275278 0.537219 0.190301
C51   C     C_2   0.349909 0.967746 0.334495 0.538521
H39   H     H_    0.294153 0.001889 0.333793 0.050466
O23   O     O_2   0.360838 0.887408 0.268395 -0.475374
C52   C     C_2   0.683015 0.007085 0.534331 0.497913
H40   H     H_    0.726350 0.976666 0.583814 0.066063
O24   O     O_2   0.704541 0.069345 0.471315 -0.489794
C53   C     C_2   0.407099 0.387016 0.785715 0.397741
H41   H     H_    0.349860 0.416352 0.785986 0.071694
O25   O     O_2   0.417034 0.297495 0.739973 -0.586562
C54   C     C_2   0.555063 0.651624 0.219844 0.457303
H42   H     H_    0.601504 0.651877 0.280227 0.075039
O26   O     O_2   0.527154 0.734328 0.209736 -0.472731

loop_
_geom_bond_atom_site_label_1
_geom_bond_atom_site_label_2
_ccdc_geom_bond_type
C48   H30   S    
C31   O17   S    
C27   C29   A    
O19   C47   S    
C41   H17   S    
C19   C20   A    
C8    O21   S    
C21   O5    A    
O9    C37   S    
C2    O2    A    
C22   O8    A    
C25   O9    S    
C15   N2    A    
C54   O26   D    
C45   H22   S    
C49   H33   S    
C51   H39   S    
C47   H29   S    
C28   H3    S    
C40   H15   S    
C52   H40   S    
C49   H35   S    
C32   C34   A    
O22   C50   S    
C26   O10   S    
C32   O18   S    
C50   H36   S    
O12   C40   S    
C23   C33   A    
C47   H28   S    
C31   C33   A    
C16   O11   S    
C33   C44   S    
C18   C20   A    
C46   H24   S    
C22   O6    A    
C38   H8    S    
C48   H31   S    
C5    C51   S    
C41   O13   D    
C4    C7    A    
C37   H6    S    
C38   H9    S    
Cu2   O2    S    
C39   H13   S    
C42   H18   S    
C5    C12   A    
C3    C8    A    
C6    C11   A    
C43   O15   D    
Cu1   O8    S    
C45   H21   S    
C1    O3    A    
C6    C8    A    
Cu2   O7    S    
C51   O23   D    
O10   C38   S    
O17   C45   S    
C24   C34   A    
O11   C39   S    
C35   C36   D    
C39   H12   S    
Cu1   N1    S    
C40   H16   S    
Cu2   N2    S    
Cu1   Cu2   S    
C34   C43   S    
C46   H25   S    
Cu1   O5    S    
C17   C54   S    
C47   H27   S    
C53   H41   S    
C50   H37   S    
Cu1   O4    S    
C9    C11   A    
C16   N1    A    
Cu2   O3    S    
C10   C12   A    
C13   C41   S    
C48   H32   S    
C44   O16   D    
C13   C15   A    
C22   C24   S    
Cu1   O1    S    
C21   O7    A    
C5    C7    A    
C37   H5    S    
C38   H10   S    
C13   C20   A    
C14   C19   A    
C36   H1    S    
C24   C26   A    
C42   O14   D    
C45   H23   S    
C11   C12   A    
Cu2   O6    S    
C25   C27   A    
O21   C49   S    
C29   C35   S    
C26   C28   A    
C7    O22   S    
C30   C36   S    
C1    C4    S    
C2    O4    A    
C39   H11   S    
C21   C23   S    
C2    C3    S    
C17   N2    A    
C29   C31   A    
C3    C10   A    
C18   N1    A    
C46   H26   S    
C30   C32   A    
C27   H4    S    
C1    O1    A    
O18   C46   S    
C49   H34   S    
C10   O19   S    
C15   O12   S    
C28   C30   A    
O20   C48   S    
C17   C19   A    
C9    O20   S    
C35   H2    S    
C50   H38   S    
C14   C16   A    
C23   C25   A    
C40   H14   S    
C52   O24   D    
C53   O25   D    
C18   C53   S    
C43   H19   S    
C44   H20   S    
C4    C9    A    
C6    C52   S    
C14   C42   S    
C54   H42   S    
C37   H7    S    
