data_mof_unit_64443.cif
_audit_creation_date              2012-12-11T15:12:00-0500
_audit_creation_method            fapswitch 2.2
_symmetry_space_group_name_H-M    P1
_symmetry_Int_Tables_number       1
_space_group_crystal_system       triclinic
_cell_length_a                    8.262453
_cell_length_b                    17.361105
_cell_length_c                    19.087745
_cell_angle_alpha                 93.30786
_cell_angle_beta                  94.465313
_cell_angle_gamma                 95.657914
_cell_volume                      2710.53374511

loop_
_atom_site_label
_atom_site_type_symbol
_atom_type_description
_atom_site_fract_x
_atom_site_fract_y
_atom_site_fract_z
_atom_type_partial_charge
Ba1   Ba    Ba6+2 0.157360 0.537160 0.466280 1.708249
Ba2   Ba    Ba6+2 0.652820 0.462830 0.533660 1.744849
C1    C     C_3   0.460173 0.759955 0.212283 0.584476
C2    C     C_R   0.864719 0.745044 0.505990 0.062056
C3    C     C_R   0.925454 0.824492 0.509949 -0.124384
C4    C     C_3   0.948446 0.755529 0.311282 0.829007
C5    C     C_R   0.830986 0.879985 0.480031 -0.020004
C6    C     C_R   0.672920 0.855131 0.448803 -0.081539
C7    C     C_R   0.612832 0.776270 0.445977 0.071851
C8    C     C_R   0.894353 0.171137 0.475738 0.537077
C9    C     C_R   0.949211 0.251083 0.486403 0.008436
C10   C     C_R   0.212950 0.219489 0.533781 0.022324
C11   C     C_R   0.165291 0.139222 0.518201 0.073891
C12   C     C_3   0.408655 0.716746 0.275335 0.310865
C13   C     C_R   0.000365 0.114477 0.493568 -0.103700
C14   C     C_1   0.940686 0.031523 0.486936 0.090905
C15   C     C_1   0.891904 0.962498 0.483558 0.000213
C16   C     C_3   0.995059 0.836985 0.289024 -0.223583
C17   C     C_R   0.103122 0.273595 0.519601 -0.412912
C18   C     C_R   0.606425 0.539442 0.298391 -0.300764
C19   C     C_R   0.457712 0.496589 0.275193 0.020538
C20   C     C_R   0.405202 0.490027 0.201921 0.123160
C21   C     C_R   0.502041 0.530609 0.154451 0.062313
C22   C     C_R   0.655000 0.569436 0.179242 -0.171227
C23   C     C_3   0.535931 0.696611 0.625839 0.392627
C24   C     C_R   0.709405 0.571242 0.250559 0.029527
C25   C     C_R   0.374617 0.577946 0.042526 0.552570
C26   C     C_R   0.322045 0.565464 0.970744 0.525110
C27   C     C_R   0.350219 0.497078 0.932292 -0.139181
C28   C     C_3   0.774855 0.378331 0.322083 0.391008
C29   C     C_R   0.439077 0.442289 0.967209 0.112929
C30   C     C_R   0.492501 0.456247 0.038922 -0.164904
C31   C     C_R   0.457695 0.522514 0.077297 -0.124943
C32   C     C_R   0.129058 0.452810 0.832232 0.215427
C33   C     C_R   0.079108 0.445600 0.758750 0.017075
C34   C     C_3   0.561569 0.784769 0.639190 -0.053086
C35   C     C_R   0.342250 0.509721 0.734675 0.102534
C36   C     C_R   0.393872 0.515869 0.806479 -0.156764
C37   C     C_R   0.290715 0.486038 0.855899 0.036158
C38   C     C_R   0.189092 0.471982 0.711385 -0.277300
C39   C     C_3   0.742024 0.359843 0.242960 0.513127
C40   C     C_3   0.011006 0.635395 0.684724 0.768036
C41   C     C_3   0.979413 0.652009 0.762178 0.624089
C42   C     C_3   0.252431 0.302424 0.372535 0.321606
C43   C     C_3   0.222975 0.217154 0.347037 -0.323451
C44   C     C_3   0.230185 0.739002 0.801433 -0.138164
C45   C     C_3   0.751496 0.284447 0.790009 0.385307
C46   C     C_3   0.761232 0.889249 0.691553 -0.240183
C47   C     C_3   0.866238 0.245988 0.947835 -0.146490
C48   C     C_3   0.147839 0.113644 0.724745 -0.177408
C49   C     C_3   0.320173 0.046929 0.578842 -0.172672
C50   C     C_3   0.137365 0.460632 0.131263 -0.131748
C51   C     C_3   0.407660 0.301853 0.954448 -0.142416
C52   C     C_3   0.912675 0.479197 0.905690 -0.253475
C53   C     C_3   0.783086 0.207496 0.822245 0.654695
C54   C     C_3   0.252849 0.247698 0.695687 0.561692
C55   C     C_3   0.285619 0.275052 0.773141 1.098642
C56   C     C_R   0.710738 0.721886 0.472417 -0.220921
F1    F     F_    0.872748 0.326970 0.216819 -0.705036
F2    F     F_    0.338640 0.642740 0.078621 -0.648525
F3    F     F_    0.783405 0.748217 0.319387 -0.819052
F4    F     F_    0.171665 0.627349 0.680891 -0.808300
F5    F     F_    0.813105 0.648024 0.768019 -0.725670
F6    F     F_    0.325991 0.786821 0.177403 -0.628380
F7    F     F_    0.641819 0.172047 0.845782 -0.687461
F8    F     F_    0.142741 0.285987 0.802725 -0.762244
F9    F     F_    0.364920 0.221924 0.809982 -0.704092
F10   F     F_    0.741835 0.148567 0.445204 -0.682875
F11   F     F_    0.241581 0.620071 0.938751 -0.680185
H1    H     H_    0.306338 0.671672 0.258044 0.081743
H2    H     H_    0.341347 0.192252 0.344591 0.142316
H3    H     H_    0.513645 0.687049 0.295572 -0.026717
H4    H     H_    0.516667 0.720710 0.175666 0.044519
H5    H     H_    0.650325 0.675374 0.609524 -0.029112
H6    H     H_    0.438313 0.682890 0.582374 0.025081
H7    H     H_    0.578087 0.810868 0.588180 0.014031
H8    H     H_    0.451435 0.806116 0.660420 0.079032
H9    H     H_    0.551685 0.809846 0.230029 0.039635
H10   H     H_    0.969962 0.880423 0.330761 0.054335
H11   H     H_    0.765719 0.331885 0.832080 0.014467
H12   H     H_    0.630195 0.318576 0.231812 0.032470
H13   H     H_    0.624603 0.279755 0.766211 0.081599
H14   H     H_    0.820137 0.167427 0.780209 0.028786
H15   H     H_    0.202537 0.297570 0.670194 -0.201609
H16   H     H_    0.363176 0.331089 0.776543 -0.184494
H17   H     H_    0.017494 0.748371 0.362354 0.029250
H18   H     H_    0.596364 0.896810 0.427480 0.088835
H19   H     H_    0.043856 0.843094 0.537317 0.083058
H20   H     H_    0.662746 0.661457 0.470514 0.048622
H21   H     H_    0.142135 0.334776 0.530499 0.091519
H22   H     H_    0.512701 0.545729 0.824124 0.122764
H23   H     H_    0.724149 0.413351 0.215778 -0.124558
H24   H     H_    0.561352 0.414754 0.065338 0.125547
H25   H     H_    0.734977 0.594853 0.142491 0.107122
H26   H     H_    0.151773 0.466891 0.655550 0.081052
H27   H     H_    0.648640 0.542552 0.353675 0.081710
H28   H     H_    0.126465 0.845382 0.280268 0.150632
H29   H     H_    0.922467 0.846692 0.239441 0.129466
H30   H     H_    0.664545 0.398167 0.343293 -0.141488
H31   H     H_    0.877407 0.424849 0.331832 0.029299
H32   H     H_    0.002317 0.774287 0.770073 0.215229
H33   H     H_    0.282770 0.752897 0.751396 0.126880
H34   H     H_    0.937393 0.580501 0.664651 -0.014955
H35   H     H_    0.279870 0.686486 0.821301 0.176417
H36   H     H_    0.267271 0.788404 0.840773 0.135769
H37   H     H_    0.693710 0.786482 0.737102 0.266753
H38   H     H_    0.873813 0.900434 0.727904 0.114039
H39   H     H_    0.666863 0.924358 0.711339 0.119711
H40   H     H_    0.791145 0.907196 0.638747 0.114356
H41   H     H_    0.982510 0.173534 0.882691 0.207887
H42   H     H_    0.789448 0.199266 0.970727 0.157201
H43   H     H_    0.798636 0.297874 0.944103 0.103692
H44   H     H_    0.978151 0.262009 0.983826 0.095524
H45   H     H_    0.027292 0.606408 0.794067 -0.002737
H46   H     H_    0.011808 0.194075 0.676609 0.201976
H47   H     H_    0.107588 0.124511 0.778182 0.154824
H48   H     H_    0.276168 0.099626 0.729340 0.174839
H49   H     H_    0.069558 0.062875 0.698529 0.067715
H50   H     H_    0.269030 0.048211 0.471401 0.204462
H51   H     H_    0.206622 0.015870 0.595180 0.076080
H52   H     H_    0.377881 0.088936 0.621312 0.155789
H53   H     H_    0.408027 0.003847 0.568938 0.098581
H54   H     H_    0.239501 0.388509 0.203806 0.242685
H55   H     H_    0.135205 0.433294 0.077129 0.068097
H56   H     H_    0.133449 0.324448 0.379739 0.020177
H57   H     H_    0.148239 0.524645 0.129225 0.153539
H58   H     H_    0.019381 0.442298 0.152502 0.165399
H59   H     H_    0.485906 0.375910 0.877966 0.217686
H60   H     H_    0.469898 0.253110 0.933000 0.213718
H61   H     H_    0.276006 0.293309 0.935967 0.165682
H62   H     H_    0.420847 0.300681 0.012673 0.086530
H63   H     H_    0.075420 0.397456 0.922002 0.208094
H64   H     H_    0.981902 0.525195 0.941959 0.164726
H65   H     H_    0.817216 0.448595 0.934741 0.113850
H66   H     H_    0.851795 0.506373 0.860979 0.159602
H67   H     H_    0.331150 0.308766 0.422827 0.019272
H68   H     H_    0.156546 0.210874 0.293805 0.162887
H69   H     H_    0.148230 0.184178 0.382805 0.036311
N1    N     N_2   0.053904 0.727860 0.790593 -0.395579
N2    N     N_2   0.703660 0.807605 0.688039 -0.403092
N3    N     N_2   0.911729 0.219125 0.879488 -0.394031
N4    N     N_2   0.130414 0.180644 0.683976 -0.455567
N5    N     N_2   0.286331 0.086210 0.515558 -0.393636
N6    N     N_2   0.270701 0.435143 0.174973 -0.429392
N7    N     N_2   0.481754 0.374158 0.931439 -0.431575
N8    N     N_2   0.020151 0.424360 0.881174 -0.419417
O1    O     O_2   0.143190 0.684560 0.534150 -0.442028
O2    O     O_2   0.728083 0.432876 0.746768 -0.524383
O3    O     O_3   0.855573 0.298344 0.736007 -0.614332
O4    O     O_3   0.882350 0.590230 0.535560 -0.502786
O5    O     O_3   0.431150 0.462160 0.416880 -0.488474
O6    O     O_2   0.634060 0.535220 0.669530 -0.447928
O7    O     O_3   0.490816 0.662600 0.687320 -0.563704
O8    O     O_2   0.561390 0.226394 0.557410 -0.414972
O9    O     O_3   0.401760 0.230215 0.669643 -0.629183
O10   O     O_3   0.372640 0.639320 0.408320 -0.490432
O11   O     O_2   0.277694 0.775217 0.454788 -0.516015
O12   O     O_3   0.330448 0.341751 0.321116 -0.642386
O13   O     O_3   0.975637 0.697708 0.645608 -0.645882
O14   O     O_3   0.357618 0.769904 0.325379 -0.614511
O15   O     O_2   0.176230 0.464730 0.330450 -0.458784
O16   O     O_3   0.952380 0.601530 0.373300 -0.489636
O17   O     O_2   0.041125 0.555633 0.249798 -0.494257
O18   O     O_3   0.985793 0.700900 0.259238 -0.580535
O19   O     O_2   0.667110 0.315390 0.465830 -0.429863
O20   O     O_3   0.927950 0.409760 0.464380 -0.514198
O21   O     O_3   0.437660 0.360670 0.591630 -0.486682
O22   O     O_3   0.813206 0.310877 0.353238 -0.600531
O23   O     O_3   0.379150 0.537830 0.583060 -0.469877
O24   O     O_3   0.857920 0.398470 0.626650 -0.463587
P1    P     P_3+3 0.970290 0.672580 0.555000 1.034678
P2    P     P_3+3 0.347000 0.441860 0.341200 0.996408
P3    P     P_3+3 0.921201 0.607177 0.282442 1.011504
P4    P     P_3+3 0.840010 0.327410 0.444950 1.064178
P5    P     P_3+3 0.877722 0.397176 0.719268 1.003281
P6    P     P_3+3 0.404579 0.740797 0.410086 0.951607
P7    P     P_3+3 0.459421 0.561718 0.670431 1.108124
P8    P     P_3+3 0.406833 0.258647 0.583363 1.030949

loop_
_geom_bond_atom_site_label_1
_geom_bond_atom_site_label_2
_ccdc_geom_bond_type
C42   H67   S    
C47   H44   S    
Ba2   O4    S    
C53   N3    S    
C2    P1    S    
C43   H2    S    
C48   H48   S    
H50   N5    S    
C10   P8    S    
C40   O13   S    
C55   F8    S    
C40   H34   S    
C34   H8    S    
H32   N1    S    
C41   F5    S    
C5    C6    A    
O16   P3    S    
C46   H39   S    
C1    F6    S    
C25   C31   A    
O22   P4    S    
C44   H33   S    
C9    C17   A    
C50   N6    S    
O13   P1    S    
C4    F3    S    
C26   C27   A    
C22   C24   A    
C23   H5    S    
C35   C38   A    
C8    C13   A    
C41   H45   S    
C36   C37   A    
H59   N7    S    
C46   H38   S    
C13   C14   S    
C52   H65   S    
C44   H36   S    
C28   H31   S    
C42   O12   S    
C54   C55   S    
C7    P6    S    
C32   C33   A    
C45   H13   S    
O6    P7    D    
C34   H7    S    
O15   P2    D    
C45   O3    S    
C16   H10   S    
C21   C31   S    
C47   N3    S    
H54   N6    S    
O14   P6    S    
C21   C22   A    
C36   H22   S    
C28   C39   S    
C41   N1    S    
C51   H62   S    
C16   H28   S    
Ba2   O20   S    
O9    P8    S    
C52   N8    S    
C54   N4    S    
C46   H40   S    
C18   H27   S    
H46   N4    S    
Ba1   O15   S    
C19   C20   A    
C12   H1    S    
C45   H11   S    
C55   F9    S    
C54   O9    S    
C30   H24   S    
O23   P7    S    
C53   F7    S    
C50   H58   S    
O1    P1    D    
C54   H15   S    
O24   P5    S    
C20   C21   A    
Ba2   O6    S    
C4    C16   S    
O7    P7    S    
C42   H56   S    
O20   P4    S    
O2    P5    D    
C46   N2    S    
C23   O7    S    
C32   C37   A    
O18   P3    S    
C39   F1    S    
C3    C5    A    
C50   H57   S    
C6    C7    A    
O11   P6    D    
C24   P3    S    
C5    C15   S    
O19   P4    D    
C52   H64   S    
C44   H35   S    
C28   H30   S    
Ba1   P1    S    
O5    P2    S    
C12   O14   S    
O3    P5    S    
Ba1   O10   S    
C35   C36   A    
C22   H25   S    
C39   H23   S    
H37   N2    S    
O4    P1    S    
C39   H12   S    
C27   C37   S    
C26   F11   S    
C51   N7    S    
C49   H51   S    
Ba1   O4    S    
C10   C11   A    
C34   N2    S    
Ba2   O19   S    
C1    C12   S    
Ba2   O24   S    
C47   H43   S    
C4    O18   S    
Ba1   O16   S    
C8    F10   S    
C11   C13   A    
C49   H52   S    
Ba1   O1    S    
C51   H60   S    
C40   C41   S    
C38   H26   S    
C53   H14   S    
O17   P3    D    
C42   C43   S    
C45   C53   S    
C43   H68   S    
Ba2   O5    S    
C40   F4    S    
O10   P6    S    
C9    P4    S    
C2    C56   A    
C23   C34   S    
C48   H49   S    
C12   H3    S    
C29   C30   A    
C2    C3    A    
C49   N5    S    
C19   P2    S    
C35   P7    S    
Ba1   P2    S    
C4    H17   S    
C47   H42   S    
C25   F2    S    
H41   N3    S    
H63   N8    S    
C30   C31   A    
C6    H18   S    
O8    P8    D    
C33   C38   A    
C33   P5    S    
C27   C29   A    
C17   H21   S    
Ba2   P4    S    
C50   H55   S    
O12   P2    S    
C14   C15   T    
C18   C24   A    
Ba1   O20   S    
C52   H66   S    
Ba1   Ba2   S    
C10   C17   A    
Ba1   O23   S    
C43   H69   S    
C55   H16   S    
Ba1   O5    S    
C48   H47   S    
C11   N5    S    
C1    H4    S    
C56   H20   S    
C8    C9    A    
Ba2   O23   S    
C28   O22   S    
C29   N7    S    
O21   P8    S    
C18   C19   A    
C7    C56   A    
C20   N6    S    
C25   C26   A    
C3    H19   S    
C49   H53   S    
C32   N8    S    
C51   H61   S    
C16   H29   S    
C23   H6    S    
C1    H9    S    
Ba2   O21   S    
C48   N4    S    
C44   N1    S    
