data_mof_unit_17562.cif
_audit_creation_date              2012-12-10T17:38:17-0500
_audit_creation_method            fapswitch 2.2
_symmetry_space_group_name_H-M    P1
_symmetry_Int_Tables_number       1
_space_group_crystal_system       triclinic
_cell_length_a                    12.326187
_cell_length_b                    13.194791
_cell_length_c                    19.36726
_cell_angle_alpha                 77.545755
_cell_angle_beta                  100.967485
_cell_angle_gamma                 116.432883
_cell_volume                      2738.19496925

loop_
_atom_site_label
_atom_site_type_symbol
_atom_type_description
_atom_site_fract_x
_atom_site_fract_y
_atom_site_fract_z
_atom_type_partial_charge
C1    C     C_R   0.854894 0.286341 0.510016 0.880484
C2    C     C_R   0.999074 0.503836 0.707917 -0.200946
C3    C     C_R   0.995891 0.493781 0.070991 0.394899
C4    C     C_R   0.994501 0.498021 0.930108 0.467832
C5    C     C_R   0.093952 0.486522 0.196457 -0.160199
C6    C     C_R   0.095198 0.488370 0.268341 -0.201851
C7    C     C_R   0.999461 0.497215 0.292134 -0.036300
C8    C     C_R   0.902038 0.503015 0.243041 -0.188282
C9    C     C_R   0.900827 0.501328 0.171338 -0.176601
C10   C     C_R   0.996922 0.493469 0.147227 0.065993
C11   C     C_R   0.280649 0.018904 0.411123 -0.178159
C12   C     C_R   0.999728 0.500798 0.632288 0.791289
C13   C     C_R   0.225698 0.835717 0.485489 -0.149655
C14   C     C_R   0.806830 0.099215 0.587226 0.420258
C15   C     C_R   0.716587 0.011101 0.626012 -0.284865
C16   C     C_R   0.594611 0.979635 0.601510 -0.144998
C17   C     C_R   0.557642 0.026738 0.533585 0.049706
C18   C     C_R   0.648612 0.122679 0.496276 -0.105598
C19   C     C_R   0.433573 0.984560 0.502296 -0.004482
C20   C     C_R   0.401696 0.052093 0.441248 0.019372
C21   C     C_R   0.491649 0.146795 0.406324 -0.270228
C22   C     C_R   0.613902 0.174918 0.429047 0.514710
C23   C     C_R   0.144668 0.713324 0.491846 0.820617
C24   C     C_R   0.341779 0.874507 0.525210 0.443556
C25   C     C_R   0.193064 0.911175 0.433090 -0.267383
C26   C     C_R   0.771876 0.164767 0.527394 -0.195760
C27   C     C_R   0.350953 0.337230 0.618763 -0.277491
C28   C     C_R   0.759768 0.646031 0.403637 0.706677
C29   C     C_R   0.663404 0.679863 0.385726 -0.350391
C30   C     C_R   0.560681 0.623995 0.422080 -0.240132
C31   C     C_R   0.552028 0.534458 0.478515 -0.001707
C32   C     C_R   0.653270 0.505353 0.497340 0.154274
C33   C     C_R   0.447950 0.474938 0.517802 -0.079979
C34   C     C_R   0.000142 0.499488 0.367752 0.811061
C35   C     C_R   0.449404 0.391029 0.577401 0.086346
C36   C     C_R   0.548873 0.362276 0.596010 0.380579
C37   C     C_R   0.648045 0.419112 0.555359 -0.236434
C38   C     C_R   0.341049 0.494665 0.500334 0.079345
C39   C     C_R   0.250912 0.363327 0.600004 0.047056
C40   C     C_R   0.065109 0.455677 0.760178 -0.252232
C41   C     C_R   0.063616 0.455173 0.831860 -0.244489
C42   C     C_R   0.994139 0.500775 0.853343 -0.101989
C43   C     C_R   0.925469 0.548121 0.801164 0.414175
C44   C     C_R   0.932798 0.554554 0.728672 0.316467
Cu1   Cu    Cu3+1 0.098280 0.475420 0.516260 0.972730
Cu2   Cu    Cu3+1 0.901720 0.524580 0.483740 0.989351
H1    H     H_    0.117543 0.417318 0.745724 0.184772
H2    H     H_    0.467578 0.193279 0.357054 0.159969
H3    H     H_    0.255715 0.072418 0.366240 0.148849
H4    H     H_    0.532441 0.921222 0.638650 0.199974
H5    H     H_    0.740954 0.969652 0.677234 0.155759
H6    H     H_    0.175847 0.323055 0.632313 0.164406
H7    H     H_    0.350999 0.275610 0.665837 0.187836
H8    H     H_    0.115826 0.417128 0.870713 0.184610
H9    H     H_    0.330646 0.554252 0.454863 0.115470
H10   H     H_    0.490765 0.654825 0.405781 0.155925
H11   H     H_    0.667865 0.750745 0.344263 0.153345
H12   H     H_    0.719961 0.393415 0.570520 0.193681
H13   H     H_    0.169326 0.480371 0.179499 0.151327
H14   H     H_    0.171424 0.483545 0.305119 0.149737
H15   H     H_    0.826006 0.507952 0.260014 0.168856
H16   H     H_    0.824313 0.506121 0.134886 0.154803
H17   H     H_    0.102782 0.883106 0.404231 0.205589
N1    N     N_R   0.905358 0.510126 0.954348 -0.184239
N2    N     N_R   0.905991 0.508116 0.023289 -0.248391
N3    N     N_R   0.084965 0.481027 0.046974 -0.248141
N4    N     N_R   0.084156 0.482929 0.977899 -0.249909
N5    N     N_R   0.246290 0.438200 0.540910 -0.179500
N6    N     N_R   0.754310 0.561190 0.459520 -0.240327
O1    O     O_R   0.972510 0.318130 0.520450 -0.544245
O2    O     O_R   0.806530 0.359650 0.492990 -0.577287
O3    O     O_R   0.083010 0.479220 0.613590 -0.586132
O4    O     O_R   0.917030 0.520740 0.586130 -0.575393
O5    O     O_R   0.193470 0.640350 0.507010 -0.541804
O6    O     O_R   0.027490 0.681870 0.479550 -0.557664
O7    O     O_R   0.082970 0.479260 0.413870 -0.608735
O8    O     O_R   0.916990 0.520780 0.386410 -0.521410
O9    O     O_3   0.370077 0.797792 0.577864 -0.574546
C45   C     C_3   0.308189 0.776724 0.637578 -0.347800
H18   H     H_    0.211777 0.715194 0.629229 0.160691
H19   H     H_    0.351338 0.736976 0.684044 0.194967
H20   H     H_    0.314076 0.856792 0.651616 0.138482
O10   O     O_3   0.928722 0.130074 0.612388 -0.575517
C46   C     C_3   0.957823 0.038185 0.611201 0.068487
H21   H     H_    0.925460 0.007150 0.558615 0.144759
H22   H     H_    0.917006 0.966535 0.654198 0.150305
C47   C     C_3   0.094929 0.076645 0.623530 -0.797418
H23   H     H_    0.132265 0.115762 0.673054 0.242137
H24   H     H_    0.116808 0.002050 0.629093 0.198328
H25   H     H_    0.137752 0.138932 0.577360 0.255006
O11   O     O_3   0.698263 0.253885 0.384092 -0.570007
C48   C     C_3   0.731322 0.193987 0.345981 -0.361720
H26   H     H_    0.650867 0.137395 0.313619 0.167609
H27   H     H_    0.777210 0.143429 0.382106 0.156571
H28   H     H_    0.797020 0.256920 0.308811 0.199504
O12   O     O_3   0.539841 0.270123 0.649816 -0.587814
C49   C     C_3   0.652124 0.285174 0.691179 0.057467
H29   H     H_    0.706749 0.375327 0.700627 0.158036
H30   H     H_    0.705108 0.257674 0.664796 0.152046
C50   C     C_3   0.627573 0.210440 0.763160 -0.796240
H31   H     H_    0.576200 0.118971 0.756112 0.254159
H32   H     H_    0.715306 0.222291 0.796264 0.206941
H33   H     H_    0.573528 0.234608 0.790911 0.240027
O13   O     O_3   0.866182 0.703638 0.370570 -0.560849
C51   C     C_3   0.842695 0.729369 0.296148 -0.381861
H34   H     H_    0.832242 0.810945 0.282180 0.164123
H35   H     H_    0.761849 0.658842 0.273151 0.155057
H36   H     H_    0.922625 0.741815 0.271330 0.198715
O14   O     O_3   0.860290 0.598057 0.820655 -0.563465
C52   C     C_3   0.735015 0.523791 0.813444 -0.245589
H37   H     H_    0.716770 0.434930 0.840255 0.142598
H38   H     H_    0.697211 0.523476 0.756624 0.189588
H39   H     H_    0.685577 0.555485 0.839293 0.186904
O15   O     O_3   0.869283 0.605751 0.678479 -0.574098
C53   C     C_3   0.948399 0.721029 0.657527 0.123208
H40   H     H_    0.039553 0.731133 0.648686 0.098736
H41   H     H_    0.960439 0.773623 0.698591 0.158443
C54   C     C_3   0.893079 0.765844 0.587655 -0.771405
H42   H     H_    0.812801 0.777077 0.596287 0.227616
H43   H     H_    0.962210 0.848269 0.564039 0.186701
H44   H     H_    0.863973 0.705039 0.549415 0.282758

loop_
_geom_bond_atom_site_label_1
_geom_bond_atom_site_label_2
_ccdc_geom_bond_type
C40   H1    S    
C47   H23   S    
C41   C42   A    
C19   C20   A    
C18   C26   A    
C46   C47   S    
C2    C12   S    
O15   C53   S    
C7    C8    A    
Cu1   Cu2   S    
C51   H35   S    
C1    O2    A    
Cu1   O7    S    
C36   C37   A    
C46   H22   S    
C34   O8    A    
C25   H17   S    
C5    C6    A    
C11   C25   A    
C53   H40   S    
C13   C23   S    
C39   N5    A    
C28   O13   S    
C54   H42   S    
Cu2   O6    S    
Cu2   N6    S    
C17   C19   A    
C52   H37   S    
C38   H9    S    
C28   N6    A    
C2    C44   A    
C8    C9    A    
C53   H41   S    
C22   O11   S    
C31   C33   A    
C15   H5    S    
C9    C10   A    
C37   H12   S    
C8    H15   S    
C21   H2    S    
C39   H6    S    
C12   O3    A    
C44   O15   S    
C21   C22   A    
Cu1   O3    S    
C13   C25   A    
C3    N2    A    
C14   O10   S    
C48   H27   S    
O13   C51   S    
C49   H30   S    
C49   H29   S    
C54   H43   S    
C51   H36   S    
C11   C20   A    
C5    H13   S    
C9    H16   S    
C6    H14   S    
C46   H21   S    
C27   C39   A    
O11   C48   S    
C45   H19   S    
O9    C45   S    
C16   C17   A    
C27   C35   A    
C30   H10   S    
C48   H28   S    
C13   C24   A    
Cu1   O5    S    
C35   C36   A    
C43   C44   A    
C29   C30   A    
C11   H3    S    
Cu2   O8    S    
C36   O12   S    
O10   C46   S    
C53   C54   S    
O12   C49   S    
Cu1   N5    S    
C50   H32   S    
C17   C18   A    
C32   C37   A    
C14   C26   A    
C52   H39   S    
Cu2   O2    S    
C32   N6    A    
C24   O9    S    
C40   C41   A    
C29   H11   S    
C47   H24   S    
C1    C26   S    
C7    C34   S    
C3    N3    A    
C42   C43   A    
C23   O5    A    
C49   C50   S    
C28   C29   A    
Cu1   O1    S    
C18   C22   A    
C31   C32   A    
C1    O1    A    
C23   O6    A    
C4    N4    A    
C45   H20   S    
C27   H7    S    
C6    C7    A    
C51   H34   S    
C4    N1    A    
C33   C38   A    
N1    N2    A    
C19   C24   A    
C5    C10   A    
C3    C10   S    
O14   C52   S    
C30   C31   A    
C4    C42   S    
C48   H26   S    
C33   C35   A    
N3    N4    A    
C50   H33   S    
C16   H4    S    
C52   H38   S    
C41   H8    S    
C45   H18   S    
C2    C40   A    
C20   C21   A    
C47   H25   S    
C38   N5    A    
C14   C15   A    
C50   H31   S    
C43   O14   S    
C12   O4    A    
C54   H44   S    
Cu2   O4    S    
C15   C16   A    
C34   O7    A    
