data_mof_unit_13802.cif
_audit_creation_date              2013-03-05T16:48:17-0500
_audit_creation_method            fapswitch 2.2
_symmetry_space_group_name_H-M    P1
_symmetry_Int_Tables_number       1
_space_group_crystal_system       triclinic
_cell_length_a                    23.541753
_cell_length_b                    8.941123
_cell_length_c                    8.089543
_cell_angle_alpha                 90.226778
_cell_angle_beta                  90.005647
_cell_angle_gamma                 89.965495
_cell_volume                      1702.75189935

loop_
_atom_site_label
_atom_site_type_symbol
_atom_site_description
_atom_site_fract_x
_atom_site_fract_y
_atom_site_fract_z
_atom_type_partial_charge
O1    O     O_R   0.500000 0.285350 0.636850 -0.604511
O2    O     O_R   0.500000 0.714650 0.363150 -0.622461
O3    O     O_R   0.500000 0.714650 0.636850 -0.603855
O4    O     O_R   0.500000 0.285350 0.363150 -0.622229
H1    H     H_    0.949393 0.124237 0.450228 0.185197
H2    H     H_    0.050950 0.876841 0.546205 0.186246
H3    H     H_    0.947700 0.876209 0.531555 0.186780
H4    H     H_    0.052651 0.126397 0.436662 0.187167
C1    C     C_R   0.499968 0.217914 0.499788 0.987349
C2    C     C_R   0.500042 0.782086 0.500204 0.987816
O5    O     O_R   0.416160 0.500000 0.636910 -0.602493
O6    O     O_R   0.583840 0.500000 0.363090 -0.614486
O7    O     O_R   0.583840 0.500000 0.636910 -0.602323
O8    O     O_R   0.416160 0.500000 0.363090 -0.613854
C3    C     C_R   0.207968 0.503098 0.496100 0.311813
C4    C     C_R   0.792332 0.498039 0.495080 0.303006
C5    C     C_R   0.389033 0.500513 0.499975 0.949819
C6    C     C_R   0.610994 0.499503 0.499978 0.949860
Zn1   Zn    Zn3+2 0.500000 0.500000 0.682780 1.073126
Zn2   Zn    Zn3+2 0.500000 0.500000 0.317220 1.040118
C7    C     C_R   0.297167 0.580111 0.373028 -0.092605
C8    C     C_R   0.702893 0.423614 0.369771 -0.094834
C9    C     C_R   0.296188 0.426211 0.625214 -0.086117
C10   C     C_R   0.703945 0.570804 0.627870 -0.087371
C11   C     C_R   0.326651 0.502408 0.499595 -0.225229
C12   C     C_R   0.673429 0.497782 0.499481 -0.226501
C13   C     C_R   0.881295 0.632968 0.492297 0.545290
C14   C     C_R   0.119430 0.370413 0.467708 0.545324
C15   C     C_R   0.881919 0.365492 0.491422 0.546655
C16   C     C_R   0.118815 0.634334 0.518276 0.546848
N1    N     N_R   0.853194 0.498821 0.492567 -0.333330
N2    N     N_R   0.147311 0.502651 0.493841 -0.333081
C17   C     C_R   0.941101 0.363959 0.481277 -0.023725
C18   C     C_R   0.059575 0.637079 0.512619 -0.023634
C19   C     C_R   0.940492 0.636250 0.500856 -0.022932
C20   C     C_R   0.060187 0.366317 0.470801 -0.022790
C21   C     C_R   0.970535 0.500525 0.490982 -0.019642
C22   C     C_R   0.030165 0.501326 0.491313 -0.018914
C23   C     C_R   0.971351 0.229830 0.462178 -0.154858
C24   C     C_R   0.029199 0.771446 0.528379 -0.155712
C25   C     C_R   0.970142 0.771237 0.519674 -0.154224
C26   C     C_R   0.030413 0.231211 0.454111 -0.154760
C27   C     C_1   0.499990 0.065157 0.499677 -0.128334
C28   C     C_1   0.500018 0.934843 0.500271 -0.128156
C29   C     C_R   0.237560 0.574181 0.368564 0.045006
C30   C     C_R   0.762450 0.432107 0.363692 0.048536
C31   C     C_R   0.236610 0.432505 0.625904 0.049000
C32   C     C_R   0.763520 0.562951 0.629187 0.052225
N3    N     N_1   0.500000 0.500000 0.073640 -0.017015
N4    N     N_1   0.500000 0.500000 0.926360 -0.010586
O9    O     O_2   0.851942 0.762478 0.483885 -0.531966
O10   O     O_2   0.149112 0.243647 0.439337 -0.534369
O11   O     O_2   0.853229 0.235107 0.500738 -0.530887
O12   O     O_2   0.147874 0.761773 0.547914 -0.532105
N5    N     N_3   0.205745 0.643342 0.238038 -0.424172
H5    H     H_    0.216276 0.591500 0.126195 0.229876
H6    H     H_    0.216508 0.756623 0.232202 0.233670
N6    N     N_3   0.793858 0.370778 0.227152 -0.421081
H7    H     H_    0.782066 0.427038 0.119684 0.225352
H8    H     H_    0.783901 0.257384 0.214359 0.237362
N7    N     N_3   0.203869 0.363880 0.754744 -0.426162
H9    H     H_    0.213396 0.416575 0.866825 0.231143
H10   H     H_    0.214836 0.250791 0.762372 0.231297
N8    N     N_3   0.796044 0.624366 0.763412 -0.422784
H11   H     H_    0.785866 0.566626 0.871242 0.226118
H12   H     H_    0.785525 0.737216 0.778512 0.234737
C33   C     C_2   0.327855 0.676014 0.252604 0.957617
O13   O     O_2   0.319840 0.660825 0.104161 -0.595388
O14   O     O_R   0.366004 0.784137 0.310191 -0.795704
H13   H     H_    0.384571 0.841963 0.217181 0.348687
C34   C     C_2   0.672288 0.328067 0.247810 0.959783
O15   O     O_2   0.679951 0.344571 0.099544 -0.596880
O16   O     O_R   0.634634 0.218518 0.303919 -0.795310
H14   H     H_    0.616067 0.161069 0.210110 0.348731
C35   C     C_2   0.325642 0.332785 0.750378 0.953495
O17   O     O_2   0.357514 0.232425 0.705507 -0.618750
O18   O     O_R   0.316821 0.359226 0.918895 -0.778532
H15   H     H_    0.339372 0.288635 0.991522 0.351561
C36   C     C_2   0.674600 0.663391 0.754990 0.956325
O19   O     O_2   0.642585 0.763797 0.712067 -0.618569
O20   O     O_R   0.683790 0.636624 0.922972 -0.781103
H16   H     H_    0.661305 0.706807 0.996852 0.351392

loop_
_geom_bond_atom_site_label_1
_geom_bond_atom_site_label_2
_geom_bond_distance
_ccdc_geom_bond_type
N5    H5    1.044744 S    
O16   H14   1.013861 S    
C20   C26   1.403033 A    
C6    C12   1.469904 S    
C2    C28   1.365812 S    
C3    C31   1.400091 A    
C35   O17   1.223364 D    
C4    C32   1.403045 A    
O20   H16   1.013840 S    
C3    N2    1.428095 S    
O18   H15   1.013829 S    
C4    N1    1.432961 S    
C16   O12   1.350020 S    
O5    Zn1   2.008285 S    
C17   C23   1.402420 A    
O7    C6    1.278982 A    
C18   C24   1.403117 A    
C19   C21   1.406239 A    
C21   C22   1.403812 A    
H4    C26   1.081943 S    
C32   N8    1.436102 S    
N6    H8    1.045487 S    
C15   C17   1.395722 A    
N7    H10   1.045490 S    
O3    Zn1   1.956289 S    
C9    C11   1.420327 A    
C30   N6    1.436074 S    
O8    C5    1.278333 A    
O14   H13   1.013862 S    
C13   O9    1.350060 S    
C23   C26   1.392043 A    
C7    C29   1.404742 A    
C1    C27   1.365809 S    
C9    C31   1.403685 A    
C16   C18   1.395576 A    
C13   N1    1.370122 A    
C33   O13   1.222601 D    
C10   C32   1.404260 A    
O8    Zn2   2.008357 S    
C14   N2    1.368351 A    
O1    C1    1.260013 A    
C4    C30   1.402676 A    
C36   O20   1.397550 S    
O7    Zn1   2.008354 S    
C13   C19   1.395636 A    
N6    H7    1.043616 S    
O1    Zn1   1.953403 S    
O2    Zn2   1.953402 S    
C17   C21   1.406254 A    
C33   O14   1.398425 S    
N8    H12   1.045495 S    
C27   C28   1.165186 T    
Zn2   N3    1.970451 S    
C10   C36   1.487532 S    
O6    Zn2   2.008283 S    
C35   O18   1.398159 S    
C14   C20   1.395430 A    
C24   C25   1.392099 A    
C8    C30   1.405041 A    
H1    C23   1.080629 S    
H2    C24   1.081897 S    
C3    C29   1.399833 A    
O2    C2    1.259956 A    
C8    C34   1.488713 S    
C34   O16   1.398521 S    
C7    C11   1.420448 A    
O5    C5    1.278602 A    
C18   C22   1.407714 A    
C10   C12   1.419903 A    
C9    C35   1.486489 S    
C31   N7    1.436204 S    
C5    C11   1.468682 S    
N8    H11   1.043354 S    
N5    H6    1.045474 S    
C34   O15   1.222446 D    
C15   N1    1.370209 A    
O3    C2    1.261250 A    
C16   N2    1.368424 A    
C14   O10   1.350051 S    
Zn1   N4    1.970451 S    
C15   O11   1.350018 S    
C20   C22   1.407700 A    
H3    C25   1.080716 S    
N7    H9    1.044548 S    
C19   C25   1.402365 A    
C36   O19   1.223167 D    
O4    Zn2   1.956290 S    
C29   N5    1.436227 S    
N3    N4    1.191427 T    
C8    C12   1.419865 A    
O6    C6    1.278592 A    
O4    C1    1.261194 A    
C7    C33   1.487861 S    
