data_mof_unit_40676.cif
_audit_creation_date              2012-12-10T20:52:43-0500
_audit_creation_method            fapswitch 2.2
_symmetry_space_group_name_H-M    P1
_symmetry_Int_Tables_number       1
_space_group_crystal_system       triclinic
_cell_length_a                    8.576804
_cell_length_b                    15.847742
_cell_length_c                    15.089291
_cell_angle_alpha                 89.629146
_cell_angle_beta                  98.844001
_cell_angle_gamma                 90.121265
_cell_volume                      2026.55266415

loop_
_atom_site_label
_atom_site_type_symbol
_atom_type_description
_atom_site_fract_x
_atom_site_fract_y
_atom_site_fract_z
_atom_type_partial_charge
C1    C     C_R   0.499404 0.338929 0.500092 0.904162
C2    C     C_R   0.500315 0.661093 0.499711 0.906490
C3    C     C_R   0.504185 0.497082 0.905418 -0.216228
C4    C     C_R   0.503744 0.499115 0.095376 -0.221490
C5    C     C_R   0.596834 0.555974 0.960444 0.440524
C6    C     C_R   0.417007 0.437570 0.041024 0.429094
C7    C     C_1   0.501733 0.498772 0.807201 0.148213
C8    C     C_1   0.501104 0.499884 0.193093 0.139950
C9    C     C_R   0.200436 0.499958 0.476635 0.972033
C10   C     C_R   0.799567 0.499979 0.523373 0.971746
C11   C     C_2   0.035551 0.499940 0.463867 -0.384628
C12   C     C_2   0.964460 0.499902 0.536172 -0.381565
C13   C     C_R   0.355361 0.954417 0.492103 -0.322079
C14   C     C_R   0.634494 0.045851 0.490209 -0.321991
C15   C     C_R   0.498722 0.913118 0.491298 0.098572
C16   C     C_R   0.491435 0.087144 0.491888 0.098632
C17   C     C_R   0.639250 0.958146 0.489087 0.239350
C18   C     C_R   0.350078 0.042178 0.491528 0.238676
C19   C     C_1   0.500082 0.824235 0.495515 -0.013943
C20   C     C_1   0.493228 0.175913 0.496571 -0.016266
C21   C     C_1   0.496096 0.250635 0.499445 -0.184573
C22   C     C_1   0.500427 0.749447 0.498377 -0.178480
C23   C     C_R   0.413995 0.437491 0.946559 0.067954
C24   C     C_R   0.593044 0.558877 0.054266 0.064915
H1    H     H_    0.973174 0.500000 0.395374 0.179565
H2    H     H_    0.026826 0.499827 0.604676 0.179714
H3    H     H_    0.247990 0.918449 0.493526 0.154499
H4    H     H_    0.742302 0.081775 0.490125 0.153574
N1    N     N_1   0.499960 0.500020 0.270540 -0.101494
N2    N     N_1   0.500040 0.499980 0.729460 -0.099453
O1    O     O_R   0.500000 0.378020 0.573650 -0.614529
O2    O     O_R   0.500000 0.621980 0.426350 -0.615237
O3    O     O_R   0.500070 0.378020 0.426320 -0.615815
O4    O     O_R   0.499930 0.621980 0.573680 -0.602873
O5    O     O_R   0.271720 0.500000 0.556430 -0.612736
O6    O     O_R   0.728280 0.500000 0.443570 -0.615816
O7    O     O_R   0.271790 0.500000 0.409110 -0.620217
O8    O     O_R   0.728210 0.500000 0.590890 -0.623344
Zn1   Zn    Zn3+2 0.499950 0.500000 0.598370 0.972171
Zn2   Zn    Zn3+2 0.500050 0.500000 0.401630 0.963695
N3    N     N_2   0.204507 0.084535 0.494090 -0.300380
H5    H     H_    0.127093 0.050895 0.526822 0.216924
C25   C     C_3   0.128859 0.116228 0.408052 -0.800096
H6    H     H_    0.097181 0.063102 0.360908 0.236927
H7    H     H_    0.207639 0.160888 0.379111 0.253178
H8    H     H_    0.019374 0.150442 0.416682 0.236806
N4    N     N_2   0.785500 0.915769 0.488964 -0.301963
H9    H     H_    0.881625 0.948329 0.521577 0.216922
C26   C     C_3   0.811262 0.887319 0.401489 -0.789622
H10   H     H_    0.818264 0.942271 0.356083 0.235952
H11   H     H_    0.714548 0.844668 0.371706 0.253622
H12   H     H_    0.924084 0.851902 0.408028 0.236917
O9    O     O_3   0.326977 0.379411 0.079711 -0.625825
C27   C     C_3   0.422436 0.309295 0.110107 0.096999
H13   H     H_    0.536705 0.329055 0.150356 0.124876
H14   H     H_    0.447041 0.271649 0.051750 0.149136
C28   C     C_3   0.334632 0.253974 0.169651 -0.314066
H15   H     H_    0.303857 0.292278 0.225976 0.233649
H16   H     H_    0.223469 0.230426 0.129739 0.224008
C29   C     C_3   0.434734 0.178929 0.208140 -0.967377
H17   H     H_    0.467233 0.139570 0.153146 0.263985
H18   H     H_    0.366642 0.139426 0.249731 0.268521
H19   H     H_    0.543794 0.201175 0.251101 0.269359
O10   O     O_3   0.687557 0.614055 0.922141 -0.623007
C30   C     C_3   0.844167 0.583704 0.929984 0.095924
H20   H     H_    0.852289 0.537101 0.876012 0.137251
H21   H     H_    0.884904 0.552990 0.996328 0.136222
C31   C     C_3   0.954433 0.657903 0.919865 -0.311672
H22   H     H_    0.918597 0.688802 0.853529 0.229727
H23   H     H_    0.944266 0.704904 0.973062 0.233064
C32   C     C_3   0.126208 0.629675 0.927726 -0.950696
H24   H     H_    0.163650 0.595969 0.992267 0.271189
H25   H     H_    0.203381 0.685686 0.925053 0.270248
H26   H     H_    0.141463 0.587614 0.871255 0.267809
N5    N     N_2   0.323856 0.374527 0.894552 -0.278484
H27   H     H_    0.372855 0.352985 0.840676 0.222783
C33   C     C_3   0.157800 0.393649 0.871176 -0.729380
H28   H     H_    0.140747 0.445765 0.821096 0.216836
H29   H     H_    0.106195 0.411551 0.931585 0.261572
H30   H     H_    0.094407 0.337052 0.841199 0.229430
N6    N     N_2   0.682690 0.621960 0.106405 -0.283394
H31   H     H_    0.728562 0.603657 0.170827 0.222955
C34   C     C_3   0.607140 0.703641 0.102974 -0.716241
H32   H     H_    0.496721 0.699737 0.132914 0.227498
H33   H     H_    0.579273 0.726594 0.032609 0.268367
H34   H     H_    0.687852 0.749821 0.141543 0.222778

loop_
_geom_bond_atom_site_label_1
_geom_bond_atom_site_label_2
_ccdc_geom_bond_type
C1    C21   S    
N3    H5    S    
C3    C23   A    
N5    H27   S    
N6    H31   S    
C1    O3    A    
N4    C26   S    
C33   H28   S    
C15   C19   S    
C13   C18   A    
C29   H19   S    
C8    N1    T    
C29   H18   S    
O7    Zn2   S    
C3    C7    S    
O8    Zn1   S    
C4    C24   A    
C28   H16   S    
C11   H1    S    
C1    O1    A    
C2    O2    A    
N4    H9    S    
C31   H22   S    
C26   H11   S    
C2    C22   S    
C4    C8    S    
C9    C11   S    
C26   H12   S    
C7    N2    T    
N3    C25   S    
C14   C17   A    
N6    C34   S    
C33   H29   S    
C27   H14   S    
O3    Zn2   S    
O4    Zn1   S    
O6    Zn2   S    
C19   C22   T    
C4    C6    A    
C18   N3    S    
C32   H25   S    
C28   C29   S    
C30   H21   S    
O9    C27   S    
C5    O10   S    
C12   H2    S    
C29   H17   S    
O5    Zn1   S    
C24   N6    S    
C25   H7    S    
C34   H32   S    
C16   C20   S    
C30   C31   S    
C9    O7    A    
N5    C33   S    
C10   C12   S    
C16   C18   A    
C34   H33   S    
C30   H20   S    
C13   C15   A    
C25   H6    S    
C14   C16   A    
C6    O9    S    
C33   H30   S    
C15   C17   A    
C27   H13   S    
C17   N4    S    
C23   N5    S    
C3    C5    A    
C32   H26   S    
C11   C12   D    
C10   O8    A    
O10   C30   S    
C32   H24   S    
C2    O4    A    
C28   H15   S    
C5    C24   A    
C31   C32   S    
C6    C23   A    
N1    Zn2   S    
O1    Zn1   S    
N2    Zn1   S    
O2    Zn2   S    
C25   H8    S    
C34   H34   S    
C20   C21   T    
C31   H23   S    
C26   H10   S    
C9    O5    A    
C13   H3    S    
C10   O6    A    
C14   H4    S    
C27   C28   S    
