data_mof_unit_40785.cif
_audit_creation_date              2012-10-26T18:48:19-0400
_audit_creation_method            fapswitch 2.2
_symmetry_space_group_name_H-M    P1
_symmetry_Int_Tables_number       1
_space_group_crystal_system       triclinic
_cell_length_a                    10.593559
_cell_length_b                    8.633195
_cell_length_c                    7.464391
_cell_angle_alpha                 102.937997
_cell_angle_beta                  94.499933
_cell_angle_gamma                 92.682275
_cell_volume                      661.826509529

loop_
_atom_site_label
_atom_site_type_symbol
_atom_type_description
_atom_site_fract_x
_atom_site_fract_y
_atom_site_fract_z
_atom_type_partial_charge
C1    C     C_R   0.479625 0.199779 0.453938 0.564837
C2    C     C_3   0.122891 0.501055 0.504232 0.047476
C3    C     C_3   0.969047 0.637340 0.610403 -0.126622
C4    C     C_3   0.031211 0.366007 0.390356 -0.129260
C5    C     C_2   0.438991 0.031224 0.427093 -0.008238
C6    C     C_2   0.446685 0.961225 0.571937 -0.021033
C7    C     C_3   0.371070 0.946294 0.240142 -0.266653
C8    C     C_3   0.249332 0.024415 0.196573 -0.467652
C9    C     C_3   0.397995 0.038689 0.755583 -0.270734
C10   C     C_3   0.265476 0.099175 0.729349 -0.450799
C11   C     C_R   0.484449 0.797580 0.546401 0.552898
C12   C     C_R   0.259492 0.499802 0.501747 0.531447
C13   C     C_R   0.740578 0.501355 0.498445 0.561140
C14   C     C_3   0.049359 0.511467 0.674671 -0.117714
C15   C     C_3   0.951036 0.491840 0.326114 -0.112335
C16   C     C_3   0.955433 0.376268 0.560733 -0.125452
C17   C     C_3   0.045053 0.627000 0.440028 -0.125663
C18   C     C_3   0.877428 0.502000 0.496430 0.047285
Cu1   Cu    Cu3+1 0.514140 0.517380 0.684380 0.923640
Cu2   Cu    Cu3+1 0.485860 0.482620 0.315620 0.911801
H1    H     H_    0.915655 0.273403 0.609533 0.109017
H2    H     H_    0.268873 0.148633 0.184701 0.181636
H3    H     H_    0.200197 0.955658 0.063717 0.132570
H4    H     H_    0.437146 0.945586 0.132272 0.152986
H5    H     H_    0.337568 0.821794 0.233691 0.186697
H6    H     H_    0.265929 0.192265 0.648397 0.167640
H7    H     H_    0.197182 0.998878 0.657189 0.139200
H8    H     H_    0.232074 0.152240 0.865216 0.122432
H9    H     H_    0.387782 0.949592 0.840032 0.158007
H10   H     H_    0.466266 0.133912 0.837786 0.177623
H11   H     H_    0.085399 0.729675 0.391349 0.101014
H12   H     H_    0.092414 0.519321 0.817201 0.117401
H13   H     H_    0.908223 0.483858 0.183447 0.120932
H14   H     H_    0.940363 0.748573 0.699906 0.105680
H15   H     H_    0.058655 0.254997 0.299658 0.099424
H16   H     H_    0.393064 0.388058 0.951217 0.235615
H17   H     H_    0.604559 0.616013 0.049885 0.241421
H18   H     H_    0.184588 0.023700 0.306424 0.131005
N1    N     N_2   0.464560 0.456420 0.038510 -0.269454
N2    N     N_2   0.535440 0.543580 0.961490 -0.260851
O1    O     O_R   0.509190 0.286130 0.619780 -0.505340
O2    O     O_R   0.490810 0.713870 0.380220 -0.518174
O3    O     O_R   0.485310 0.256770 0.308360 -0.501293
O4    O     O_R   0.514690 0.743230 0.691640 -0.504695
O5    O     O_R   0.328790 0.514640 0.655680 -0.520515
O6    O     O_R   0.671210 0.485360 0.344320 -0.501618
O7    O     O_R   0.304910 0.485280 0.344260 -0.520289
O8    O     O_R   0.695090 0.514720 0.655740 -0.496443

loop_
_geom_bond_atom_site_label_1
_geom_bond_atom_site_label_2
_ccdc_geom_bond_type
C10   H7    S    
C4    C16   S    
C13   O8    A    
C2    C4    S    
Cu1   O5    S    
C16   H1    S    
C15   C18   S    
C9    C10   S    
Cu2   O2    S    
Cu1   Cu2   S    
C7    H5    S    
C9    H9    S    
C2    C12   S    
C10   H6    S    
C4    C15   S    
C4    H15   S    
C7    C8    S    
C2    C17   S    
C5    C6    D    
C3    C14   S    
C8    H18   S    
C9    H10   S    
C6    C9    S    
C12   O7    A    
C1    C5    S    
C13   C18   S    
C1    O1    A    
C1    O3    A    
C3    C17   S    
H17   N2    S    
C5    C7    S    
C6    C11   S    
C13   O6    A    
C17   H11   S    
C14   C16   S    
Cu2   O3    S    
Cu2   O7    S    
Cu1   N2    S    
C10   H8    S    
C7    H4    S    
C11   O4    A    
C8    H3    S    
Cu1   O4    S    
C3    C18   S    
C16   C18   S    
C2    C14   S    
N1    N2    D    
C15   C17   S    
Cu2   N1    S    
Cu1   O8    S    
C11   O2    A    
C3    H14   S    
C8    H2    S    
C15   H13   S    
H16   N1    S    
Cu2   O6    S    
Cu1   O1    S    
C14   H12   S    
C12   O5    A    
