data_mof_unit_42335.cif
_audit_creation_date              2012-10-26T19:24:15-0400
_audit_creation_method            fapswitch 2.2
_symmetry_space_group_name_H-M    P1
_symmetry_Int_Tables_number       1
_space_group_crystal_system       triclinic
_cell_length_a                    27.821899
_cell_length_b                    10.862214
_cell_length_c                    9.569802
_cell_angle_alpha                 90.34546
_cell_angle_beta                  90.001584
_cell_angle_gamma                 92.549338
_cell_volume                      2889.15023126

loop_
_atom_site_label
_atom_site_type_symbol
_atom_type_description
_atom_site_fract_x
_atom_site_fract_y
_atom_site_fract_z
_atom_type_partial_charge
C1    C     C_R   0.503842 0.263066 0.500372 0.554142
C2    C     C_R   0.972511 0.396397 0.455841 0.017903
C3    C     C_R   0.976525 0.610987 0.544014 0.018103
C4    C     C_R   0.407496 0.499755 0.499982 0.559120
C5    C     C_R   0.949280 0.503924 0.499908 0.034027
C6    C     C_R   0.943600 0.294397 0.407192 -0.140943
C7    C     C_R   0.893740 0.296483 0.406342 -0.111269
C8    C     C_R   0.870569 0.400310 0.453211 0.024547
C9    C     C_R   0.898148 0.504383 0.499872 -0.027062
C10   C     C_R   0.874452 0.608898 0.546516 0.024852
C11   C     C_R   0.823951 0.607427 0.545647 0.397747
C12   C     C_R   0.278732 0.492609 0.373693 -0.055139
C13   C     C_R   0.820152 0.402597 0.454116 0.398493
C14   C     C_R   0.721103 0.503754 0.373339 -0.056644
C15   C     C_R   0.670973 0.502526 0.373217 -0.146496
C16   C     C_R   0.497349 0.737625 0.501530 0.538853
C17   C     C_R   0.671039 0.505093 0.626821 -0.149220
C18   C     C_R   0.721178 0.506432 0.626609 -0.056675
C19   C     C_R   0.746377 0.505447 0.499946 0.241793
C20   C     C_R   0.023558 0.394447 0.460863 0.018353
C21   C     C_R   0.050836 0.502966 0.500019 0.034181
C22   C     C_R   0.027636 0.611963 0.539132 0.018071
C23   C     C_R   0.253687 0.501013 0.500051 0.242602
C24   C     C_R   0.048548 0.287043 0.428848 -0.141197
C25   C     C_R   0.106533 0.717441 0.569703 -0.110900
C26   C     C_R   0.951429 0.713504 0.592537 -0.141469
C27   C     C_R   0.901499 0.712303 0.593346 -0.112606
C28   C     C_R   0.592503 0.500834 0.500032 0.537214
C29   C     C_R   0.056653 0.718829 0.571271 -0.140765
C30   C     C_R   0.531148 0.122383 0.755252 -0.091084
C31   C     C_R   0.525487 0.064415 0.883989 -0.128798
C32   C     C_R   0.501718 0.949605 0.891161 -0.122674
C33   C     C_R   0.488109 0.887540 0.768525 -0.093018
C34   C     C_R   0.101965 0.502475 0.500061 -0.027008
C35   C     C_R   0.498611 0.939521 0.635544 0.026407
C36   C     C_R   0.513061 0.065342 0.631083 0.027878
C37   C     C_R   0.508157 0.129268 0.503160 -0.005601
C38   C     C_R   0.500780 0.063065 0.378564 -0.155949
C39   C     C_R   0.496668 0.935875 0.380030 -0.157857
C40   C     C_R   0.176071 0.396003 0.465579 0.398271
C41   C     C_R   0.495483 0.872313 0.506997 -0.004598
C42   C     C_R   0.563967 0.664178 0.145309 -0.099347
C43   C     C_R   0.595134 0.744413 0.073377 -0.178455
C44   C     C_R   0.595191 0.744157 0.929447 -0.165785
C45   C     C_R   0.125580 0.394567 0.464745 0.024586
C46   C     C_R   0.564007 0.663849 0.856630 -0.094183
C47   C     C_R   0.531434 0.580701 0.925609 0.145888
C48   C     C_R   0.531416 0.580746 0.075377 0.153604
C49   C     C_R   0.470232 0.422917 0.073451 -0.010254
C50   C     C_R   0.470249 0.422945 0.925356 -0.011230
C51   C     C_R   0.180049 0.607484 0.534599 0.398709
C52   C     C_R   0.279051 0.508863 0.626388 -0.055471
C53   C     C_R   0.329159 0.508188 0.626544 -0.142799
C54   C     C_R   0.328849 0.492293 0.373490 -0.141517
C55   C     C_R   0.098458 0.287477 0.430485 -0.112329
C56   C     C_R   0.129626 0.609886 0.535417 0.024338
C57   C     C_R   0.354546 0.500027 0.500003 0.004549
C58   C     C_R   0.645458 0.502733 0.500038 0.001947
Cu1   Cu    Cu3+1 0.500000 0.499990 0.640660 0.912390
Cu2   Cu    Cu3+1 0.500000 0.500010 0.359340 0.926587
H1    H     H_    0.347399 0.485784 0.274403 0.129541
H2    H     H_    0.550666 0.210622 0.754402 0.148996
H3    H     H_    0.538291 0.110229 0.978553 0.114318
H4    H     H_    0.259299 0.486732 0.275659 0.130943
H5    H     H_    0.494708 0.907240 0.991682 0.116480
H6    H     H_    0.467882 0.801350 0.781168 0.154580
H7    H     H_    0.493591 0.887374 0.280946 0.136863
H8    H     H_    0.567213 0.671897 0.255422 0.186358
H9    H     H_    0.619484 0.807204 0.130074 0.133164
H10   H     H_    0.619487 0.806960 0.873441 0.138379
H11   H     H_    0.566950 0.671897 0.746588 0.189239
H12   H     H_    0.259857 0.515104 0.724440 0.130960
H13   H     H_    0.445907 0.359791 0.869403 0.125895
H14   H     H_    0.115735 0.202789 0.404793 0.167212
H15   H     H_    0.652271 0.501229 0.273918 0.134175
H16   H     H_    0.740382 0.503441 0.275045 0.132324
H17   H     H_    0.873366 0.215778 0.368305 0.168819
H18   H     H_    0.958238 0.211440 0.366517 0.110811
H19   H     H_    0.030719 0.199698 0.404058 0.108858
H20   H     H_    0.347954 0.514330 0.725619 0.130086
H21   H     H_    0.445863 0.359788 0.128475 0.117845
H22   H     H_    0.126987 0.801756 0.595469 0.169599
H23   H     H_    0.969166 0.796206 0.633138 0.110152
H24   H     H_    0.652381 0.505681 0.726139 0.132281
H25   H     H_    0.884144 0.793352 0.631319 0.167182
H26   H     H_    0.740504 0.507509 0.724866 0.132716
H27   H     H_    0.042107 0.806459 0.596123 0.109455
H28   H     H_    0.498143 0.109516 0.279159 0.134942
N1    N     N_R   0.202151 0.501516 0.500076 -0.398744
N2    N     N_R   0.797940 0.505208 0.499869 -0.397952
N3    N     N_R   0.500460 0.501210 0.147910 -0.243865
N4    N     N_R   0.500480 0.501290 0.852040 -0.251061
O1    O     O_R   0.500000 0.319640 0.618810 -0.508536
O2    O     O_R   0.569730 0.499970 0.618800 -0.526506
O3    O     O_R   0.569740 0.499990 0.381230 -0.520364
O4    O     O_2   0.198951 0.292624 0.433104 -0.491593
O5    O     O_2   0.793498 0.302710 0.410768 -0.494353
O6    O     O_2   0.206810 0.710382 0.567104 -0.490466
O7    O     O_2   0.801008 0.707657 0.589089 -0.496601
O8    O     O_R   0.500000 0.319660 0.381240 -0.501343
O9    O     O_R   0.430260 0.500010 0.618770 -0.501757
O10   O     O_R   0.430270 0.500030 0.381200 -0.498751
O11   O     O_R   0.500000 0.680340 0.618760 -0.535143
O12   O     O_R   0.500000 0.680360 0.381190 -0.521951

loop_
_geom_bond_atom_site_label_1
_geom_bond_atom_site_label_2
_ccdc_geom_bond_type
C10   C27   A    
C15   H15   S    
C34   C56   A    
C8    C13   A    
C22   C29   A    
C13   N2    A    
C47   N4    A    
C35   C36   A    
C25   C56   A    
C7    C8    A    
C39   C41   A    
C31   C32   A    
C24   C55   A    
C12   C23   A    
C26   C27   A    
C18   H26   S    
C28   O3    A    
C11   O7    S    
C36   C37   A    
C40   O4    S    
C18   C19   A    
C30   C31   A    
C12   H4    S    
C6    H18   S    
C26   H23   S    
C28   O2    A    
C51   C56   A    
C49   H21   S    
C27   H25   S    
C24   H19   S    
C55   H14   S    
C16   O12   A    
C20   C24   A    
C8    C9    A    
C48   N3    A    
C4    O10   A    
C4    C57   S    
C23   N1    S    
C44   H10   S    
Cu1   O2    S    
C40   N1    A    
C9    C10   A    
C1    C37   S    
C17   C58   A    
C7    H17   S    
C51   O6    S    
Cu1   Cu2   S    
C43   H9    S    
C21   C22   A    
C42   H8    S    
C2    C6    A    
C49   N3    A    
Cu2   O10   S    
C1    O8    A    
C44   C46   A    
C33   H6    S    
C25   C29   A    
C40   C45   A    
C2    C20   A    
Cu1   O9    S    
C31   H3    S    
C53   H20   S    
C50   H13   S    
C53   C57   A    
C21   C34   A    
Cu2   O8    S    
C38   H28   S    
C14   H16   S    
C43   C44   A    
C5    C9    A    
C37   C38   A    
C52   H12   S    
C16   O11   A    
C47   C48   A    
C4    O9    A    
C17   C18   A    
C34   C45   A    
C42   C48   A    
C46   H11   S    
C50   N4    A    
C30   H2    S    
C25   H22   S    
C15   C58   A    
C2    C5    A    
C42   C43   A    
C52   C53   A    
Cu2   N3    S    
C46   C47   A    
C39   H7    S    
C14   C19   A    
C3    C26   A    
C3    C5    A    
C6    C7    A    
C54   H1    S    
C28   C58   S    
C30   C36   A    
C17   H24   S    
Cu1   O11   S    
C32   C33   A    
C19   N2    S    
C51   N1    A    
C11   N2    A    
C23   C52   A    
C38   C39   A    
C33   C35   A    
Cu1   N4    S    
C13   O5    S    
C35   C41   A    
C29   H27   S    
C10   C11   A    
Cu2   O3    S    
C20   C21   A    
C45   C55   A    
C1    O1    A    
C49   C50   A    
C14   C15   A    
C3    C22   A    
Cu1   O1    S    
Cu2   O12   S    
C16   C41   S    
C12   C54   A    
C32   H5    S    
C54   C57   A    
