data_mof_unit_16142.cif
_audit_creation_date              2012-12-10T19:10:02-0500
_audit_creation_method            fapswitch 2.2
_symmetry_space_group_name_H-M    P1
_symmetry_Int_Tables_number       1
_space_group_crystal_system       triclinic
_cell_length_a                    10.803868
_cell_length_b                    10.790423
_cell_length_c                    9.533034
_cell_angle_alpha                 90.085235
_cell_angle_beta                  90.052531
_cell_angle_gamma                 89.908321
_cell_volume                      1111.34183534

loop_
_atom_site_label
_atom_site_type_symbol
_atom_type_description
_atom_site_fract_x
_atom_site_fract_y
_atom_site_fract_z
_atom_type_partial_charge
C1    C     C_R   0.497691 0.262452 0.499680 0.796614
C2    C     C_R   0.245664 0.822534 0.129319 -0.116331
C3    C     C_R   0.933797 0.567001 0.406698 -0.254764
C4    C     C_R   0.871156 0.490261 0.500048 -0.121116
C5    C     C_R   0.935899 0.410455 0.591624 -0.012893
C6    C     C_R   0.066150 0.409797 0.589089 0.131605
C7    C     C_R   0.128228 0.494134 0.499666 -0.090102
C8    C     C_R   0.061707 0.571131 0.406717 -0.042165
C9    C     C_R   0.867282 0.348004 0.832008 -0.133929
C10   C     C_R   0.807821 0.265437 0.922375 -0.126996
C11   C     C_R   0.751289 0.159048 0.868633 -0.127602
C12   C     C_R   0.262403 0.498896 0.499918 0.808970
C13   C     C_R   0.752784 0.135888 0.724254 -0.134864
C14   C     C_R   0.810017 0.219493 0.633246 -0.141061
C15   C     C_R   0.868126 0.325759 0.686822 0.134398
C16   C     C_R   0.424077 0.063414 0.596953 0.108907
C17   C     C_R   0.490080 0.129370 0.495869 -0.089068
C18   C     C_R   0.541987 0.064564 0.382177 -0.242920
C19   C     C_R   0.543708 0.935540 0.382763 -0.231498
C20   C     C_R   0.493917 0.870741 0.497212 -0.094525
C21   C     C_R   0.427225 0.936212 0.598220 0.111756
C22   C     C_3   0.425417 0.930200 0.754536 -0.472415
C23   C     C_R   0.499856 0.737586 0.499924 0.804273
C24   C     C_3   0.419308 0.071277 0.753272 -0.495231
C25   C     C_R   0.548173 0.597911 0.073839 0.282060
C26   C     C_R   0.441247 0.409767 0.074246 -0.081883
C27   C     C_R   0.441462 0.409634 0.925325 -0.082082
C28   C     C_R   0.547490 0.598293 0.926425 0.254430
C29   C     C_3   0.676718 0.646029 0.919956 -0.502757
C30   C     C_3   0.678169 0.644001 0.079183 -0.521615
C31   C     C_R   0.737468 0.496287 0.500124 0.810315
C32   C     C_R   0.236309 0.850451 0.272153 -0.116498
C33   C     C_R   0.176237 0.768646 0.363013 -0.152276
C34   C     C_R   0.123374 0.659174 0.310640 0.135162
C35   C     C_R   0.131393 0.632425 0.166706 -0.112536
C36   C     C_R   0.193268 0.713584 0.076593 -0.147138
Cu1   Cu    Cu3+1 0.499990 0.499980 0.640670 0.941925
Cu2   Cu    Cu3+1 0.500010 0.500020 0.359330 0.943095
H1    H     H_    0.293274 0.885485 0.059587 0.122269
H2    H     H_    0.706480 0.094431 0.938861 0.114698
H3    H     H_    0.709581 0.053098 0.682859 0.140323
H4    H     H_    0.810874 0.200580 0.521633 0.111281
H5    H     H_    0.587161 0.113152 0.297065 0.159800
H6    H     H_    0.589174 0.887087 0.297602 0.154774
H7    H     H_    0.339558 0.886203 0.794705 0.190040
H8    H     H_    0.513208 0.893550 0.799189 0.195448
H9    H     H_    0.329092 0.108012 0.791029 0.192254
H10   H     H_    0.501682 0.116431 0.799949 0.213435
H11   H     H_    0.395500 0.335551 0.129820 0.140089
H12   H     H_    0.275946 0.935349 0.312510 0.139461
H13   H     H_    0.396054 0.335289 0.869478 0.137310
H14   H     H_    0.742260 0.579036 0.872162 0.222128
H15   H     H_    0.681004 0.741166 0.875764 0.184513
H16   H     H_    0.743789 0.574464 0.122616 0.214475
H17   H     H_    0.684699 0.737885 0.126546 0.184652
H18   H     H_    0.170925 0.790396 0.473817 0.111230
H19   H     H_    0.091406 0.548060 0.124956 0.114949
H20   H     H_    0.200649 0.692019 0.965967 0.126236
H21   H     H_    0.882520 0.627725 0.336953 0.152071
H22   H     H_    0.913443 0.428638 0.874920 0.114091
H23   H     H_    0.806738 0.283236 0.034146 0.126886
N1    N     N_R   0.500790 0.500930 0.147930 -0.183276
N2    N     N_R   0.500790 0.500890 0.852020 -0.180087
O1    O     O_R   0.500000 0.319640 0.618810 -0.574192
O2    O     O_R   0.500010 0.319680 0.381230 -0.595472
O3    O     O_R   0.319640 0.499990 0.618790 -0.581968
O4    O     O_R   0.319650 0.500030 0.381210 -0.572125
O5    O     O_R   0.499990 0.680320 0.618770 -0.584804
O6    O     O_R   0.500000 0.680360 0.381190 -0.574515
O7    O     O_R   0.680350 0.499970 0.618790 -0.572077
O8    O     O_R   0.680360 0.500010 0.381210 -0.588462
C37   C     C_3   0.138982 0.316370 0.675670 -0.862580
H24   H     H_    0.082448 0.237154 0.712085 0.231736
H25   H     H_    0.214431 0.274949 0.611860 0.219715
H26   H     H_    0.178725 0.362820 0.769297 0.236450

loop_
_geom_bond_atom_site_label_1
_geom_bond_atom_site_label_2
_ccdc_geom_bond_type
C16   C21   A    
C23   O6    A    
C19   C20   A    
C13   H3    S    
C7    C8    A    
C25   C28   A    
C6    C37   S    
C30   H16   S    
C26   C27   A    
C29   C30   S    
C28   C29   S    
C18   C19   A    
C36   H20   S    
C5    C6    A    
Cu1   O5    S    
C2    C32   A    
C34   C35   A    
C2    H1    S    
C31   O7    A    
C35   C36   A    
C16   C17   A    
C1    O2    A    
C20   C23   S    
C9    C10   A    
C14   H4    S    
C33   H18   S    
C31   O8    A    
Cu2   O6    S    
C16   C24   S    
C21   C22   S    
C37   H26   S    
Cu1   N2    S    
C27   H13   S    
C33   C34   A    
C7    C12   S    
C12   O4    A    
C24   H10   S    
C37   H25   S    
C3    C8    A    
C26   H11   S    
C37   H24   S    
C12   O3    A    
C23   O5    A    
Cu1   Cu2   S    
Cu2   O2    S    
Cu1   O3    S    
C17   C18   A    
C8    C34   S    
C20   C21   A    
C32   H12   S    
C27   N2    A    
C22   H8    S    
C22   C24   S    
C10   H23   S    
C3    C4    A    
C1    O1    A    
Cu1   O1    S    
C19   H6    S    
C2    C36   A    
C25   C30   S    
Cu2   O8    S    
C24   H9    S    
C4    C5    A    
C6    C7    A    
C30   H17   S    
C1    C17   S    
C35   H19   S    
C9    H22   S    
Cu1   O7    S    
C32   C33   A    
C26   N1    A    
C18   H5    S    
C11   C13   A    
C29   H15   S    
C25   N1    A    
C9    C15   A    
C11   H2    S    
C5    C15   S    
C4    C31   S    
C10   C11   A    
C28   N2    A    
C22   H7    S    
Cu2   O4    S    
C14   C15   A    
C13   C14   A    
Cu2   N1    S    
C29   H14   S    
C3    H21   S    
