data_mof_unit_54334.cif
_audit_creation_date              2012-10-26T19:33:59-0400
_audit_creation_method            fapswitch 2.2
_symmetry_space_group_name_H-M    P1
_symmetry_Int_Tables_number       1
_space_group_crystal_system       triclinic
_cell_length_a                    8.733276
_cell_length_b                    19.379616
_cell_length_c                    18.148986
_cell_angle_alpha                 89.819698
_cell_angle_beta                  97.988823
_cell_angle_gamma                 90.189924
_cell_volume                      3041.83328965

loop_
_atom_site_label
_atom_site_type_symbol
_atom_type_description
_atom_site_fract_x
_atom_site_fract_y
_atom_site_fract_z
_atom_type_partial_charge
C1    C     C_R   0.498894 0.367702 0.500070 0.545649
C2    C     C_R   0.601486 0.539877 0.284485 0.042930
C3    C     C_R   0.403714 0.458123 0.793273 -0.150449
C4    C     C_R   0.599035 0.540730 0.206991 -0.161122
C5    C     C_R   0.507804 0.500418 0.839161 -0.000665
C6    C     C_R   0.491074 0.500504 0.160761 -0.007205
C7    C     C_R   0.610597 0.542696 0.804611 -0.024787
C8    C     C_R   0.384122 0.460181 0.194886 0.031809
C9    C     C_R   0.602841 0.541372 0.726371 0.026432
C10   C     C_R   0.393713 0.460461 0.273309 0.052401
C11   C     C_R   0.489121 0.562565 0.960369 -0.049705
C12   C     C_R   0.499139 0.632315 0.499807 0.545097
C13   C     C_R   0.511179 0.438389 0.039802 -0.054868
C14   C     C_R   0.486206 0.562531 0.037637 -0.069653
C15   C     C_R   0.514033 0.438418 0.962518 -0.084778
C16   C     C_R   0.203519 0.499972 0.480994 0.552785
C17   C     C_R   0.796482 0.500013 0.519005 0.551080
C18   C     C_R   0.495863 0.500407 0.078313 0.066968
C19   C     C_R   0.504050 0.500540 0.921769 0.054554
C20   C     C_2   0.037791 0.500001 0.470462 -0.150958
C21   C     C_2   0.962213 0.499960 0.529536 -0.152009
C22   C     C_R   0.384424 0.740250 0.444575 -0.119272
C23   C     C_R   0.435049 0.965745 0.564502 0.061601
C24   C     C_R   0.380550 0.259640 0.537996 -0.119047
C25   C     C_R   0.368146 0.811679 0.445549 -0.102667
C26   C     C_R   0.364511 0.188148 0.534805 -0.100617
C27   C     C_R   0.459482 0.851303 0.499623 0.057415
C28   C     C_R   0.459555 0.148658 0.494947 0.057956
C29   C     C_R   0.568536 0.818256 0.552226 -0.058701
C30   C     C_R   0.572114 0.181890 0.459070 -0.061280
C31   C     C_R   0.580643 0.746537 0.552920 -0.110740
C32   C     C_R   0.584112 0.253634 0.459969 -0.106900
C33   C     C_R   0.489153 0.707410 0.498829 0.017941
C34   C     C_R   0.440411 0.034158 0.426827 0.060231
C35   C     C_R   0.488831 0.292618 0.499741 0.020866
C36   C     C_2   0.732885 0.585221 0.848348 0.562724
C37   C     C_2   0.257080 0.420464 0.151038 0.549131
C38   C     C_2   0.412215 0.933175 0.636481 0.567599
C39   C     C_2   0.423279 0.066656 0.351810 0.569981
C40   C     C_R   0.441083 0.037809 0.561048 -0.135393
C41   C     C_R   0.446353 0.962122 0.431190 -0.134453
C42   C     C_R   0.445078 0.072602 0.493369 -0.026786
C43   C     C_R   0.445035 0.927327 0.499068 -0.025878
C44   C     C_R   0.401431 0.458725 0.715771 0.049065
Cu1   Cu    Cu3+1 0.499960 0.500000 0.573360 0.952161
Cu2   Cu    Cu3+1 0.500040 0.500000 0.426640 0.954586
H1    H     H_    0.977740 0.500085 0.413807 0.132322
H2    H     H_    0.305708 0.289391 0.568629 0.114212
H3    H     H_    0.283524 0.835990 0.404375 0.120523
H4    H     H_    0.277197 0.163690 0.563027 0.117344
H5    H     H_    0.643388 0.847950 0.593044 0.133535
H6    H     H_    0.649776 0.152314 0.429910 0.130341
H7    H     H_    0.662884 0.721661 0.594789 0.119621
H8    H     H_    0.669175 0.278652 0.430744 0.126956
H9    H     H_    0.441067 0.067397 0.611630 0.158869
H10   H     H_    0.450416 0.932548 0.380910 0.159689
H11   H     H_    0.320669 0.425938 0.681253 0.122168
H12   H     H_    0.022267 0.499873 0.586190 0.132754
H13   H     H_    0.684915 0.571277 0.319209 0.130704
H14   H     H_    0.322974 0.425275 0.817287 0.115679
H15   H     H_    0.682535 0.572210 0.183207 0.120896
H16   H     H_    0.698350 0.668100 0.779745 0.292850
H17   H     H_    0.107013 0.411549 0.056342 0.352191
H18   H     H_    0.443564 0.939472 0.748550 0.353821
H19   H     H_    0.463217 0.060443 0.245143 0.354999
H20   H     H_    0.682255 0.572280 0.699322 0.129355
H21   H     H_    0.312968 0.430186 0.300222 0.164012
H22   H     H_    0.479003 0.611182 0.930542 0.129912
H23   H     H_    0.520728 0.389788 0.069674 0.127803
H24   H     H_    0.474220 0.611087 0.065620 0.120165
H25   H     H_    0.525914 0.389838 0.934570 0.115501
H26   H     H_    0.312362 0.710433 0.402737 0.125870
N1    N     N_R   0.499980 0.500020 0.683620 -0.228624
N2    N     N_R   0.500020 0.499980 0.316380 -0.243245
O1    O     O_R   0.499930 0.400180 0.561970 -0.503414
O2    O     O_R   0.770548 0.651099 0.824598 -0.650817
O3    O     O_2   0.204672 0.369071 0.177973 -0.509237
O4    O     O_R   0.193333 0.442771 0.080041 -0.677573
O5    O     O_2   0.341242 0.878752 0.637551 -0.499386
O6    O     O_R   0.467416 0.966204 0.703376 -0.697440
O7    O     O_2   0.352687 0.120865 0.340003 -0.488217
O8    O     O_R   0.483468 0.033789 0.293664 -0.697126
O9    O     O_R   0.500070 0.599820 0.438030 -0.503058
O10   O     O_R   0.500010 0.400190 0.438070 -0.493108
O11   O     O_R   0.499990 0.599810 0.561930 -0.497939
O12   O     O_R   0.274810 0.500000 0.547650 -0.502542
O13   O     O_R   0.725190 0.500000 0.452350 -0.503591
O14   O     O_R   0.274880 0.500000 0.423750 -0.503922
O15   O     O_R   0.725120 0.500000 0.576250 -0.500634
O16   O     O_2   0.804416 0.562175 0.905685 -0.445249

loop_
_geom_bond_atom_site_label_1
_geom_bond_atom_site_label_2
_ccdc_geom_bond_type
C27   C29   A    
H18   O6    S    
C7    C36   S    
C14   C18   A    
Cu1   O11   S    
C34   C42   A    
C10   H21   S    
C1    O10   A    
C15   C19   A    
C11   C19   A    
C13   H23   S    
C13   C18   A    
C24   C26   A    
C26   H4    S    
C11   C14   A    
C38   O5    D    
C23   C40   A    
C23   C43   A    
Cu1   N1    S    
C22   H26   S    
C9    H20   S    
C36   O2    S    
C22   C25   A    
C31   C33   A    
Cu1   O15   S    
C41   C43   A    
C2    N2    A    
C3    H14   S    
C40   C42   A    
C16   O12   A    
C14   H24   S    
H16   O2    S    
C34   C41   A    
C9    N1    A    
C32   H8    S    
Cu2   O14   S    
C6    C18   S    
C3    C44   A    
C24   C35   A    
C34   C39   S    
C1    O1    A    
C32   C35   A    
C17   O15   A    
C39   O7    D    
C4    C6    A    
C5    C7    A    
C2    H13   S    
C6    C8    A    
Cu1   Cu2   S    
C37   O3    D    
C4    H15   S    
C17   C21   S    
C12   O9    A    
C24   H2    S    
C2    C4    A    
C41   H10   S    
C44   H11   S    
C16   C20   S    
C40   H9    S    
C31   H7    S    
Cu2   O10   S    
C12   O11   A    
C13   C15   A    
C8    C37   S    
Cu2   N2    S    
C11   H22   S    
C1    C35   S    
Cu2   O13   S    
C29   H5    S    
C36   O16   D    
C7    C9    A    
C22   C33   A    
C30   H6    S    
C17   O13   A    
C39   O8    S    
C3    C5    A    
C5    C19   S    
C25   C27   A    
C23   C38   S    
C15   H25   S    
C37   O4    S    
C26   C28   A    
Cu1   O1    S    
C28   C30   A    
Cu1   O12   S    
C21   H12   S    
C29   C31   A    
C30   C32   A    
C10   N2    A    
H19   O8    S    
C38   O6    S    
C28   C42   S    
C44   N1    A    
C25   H3    S    
C20   H1    S    
Cu2   O9    S    
C27   C43   S    
C20   C21   D    
C8    C10   A    
C16   O14   A    
C12   C33   S    
H17   O4    S    
