data_mof_unit_66609.cif
_audit_creation_date              2012-12-11T18:17:43-0500
_audit_creation_method            fapswitch 2.2
_symmetry_space_group_name_H-M    P1
_symmetry_Int_Tables_number       1
_space_group_crystal_system       triclinic
_cell_length_a                    8.255759
_cell_length_b                    14.278793
_cell_length_c                    14.954246
_cell_angle_alpha                 95.606098
_cell_angle_beta                  97.863668
_cell_angle_gamma                 92.024643
_cell_volume                      1735.78986445

loop_
_atom_site_label
_atom_site_type_symbol
_atom_type_description
_atom_site_fract_x
_atom_site_fract_y
_atom_site_fract_z
_atom_type_partial_charge
Ba1   Ba    Ba6+2 0.833410 0.543320 0.453520 1.639647
Ba2   Ba    Ba6+2 0.356410 0.456750 0.546480 1.630868
C1    C     C_3   0.561632 0.884550 0.204701 -0.369386
C2    C     C_3   0.557058 0.788678 0.240915 0.352942
C3    C     C_3   0.511047 0.290217 0.262979 0.435356
C4    C     C_3   0.601415 0.263666 0.181667 -0.020398
C5    C     C_3   0.167689 0.268838 0.810657 0.398474
C6    C     C_3   0.180413 0.239429 0.906940 -0.028379
C7    C     C_3   0.645812 0.208814 0.761855 0.350766
C8    C     C_3   0.620525 0.112416 0.794415 -0.364960
C9    C     C_R   0.355816 0.553952 0.166970 -0.007802
C10   C     C_R   0.117718 0.471640 0.207291 0.070430
C11   C     C_R   0.925342 0.478253 0.766379 -0.284330
C12   C     C_3   0.033242 0.761452 0.193561 0.346442
C13   C     C_R   0.839369 0.439165 0.828660 0.013558
C14   C     C_R   0.906936 0.443366 0.919635 -0.110961
C15   C     C_R   0.059647 0.490648 0.952262 0.033685
C16   C     C_R   0.144002 0.534049 0.888071 -0.021152
C17   C     C_R   0.128533 0.498342 0.046924 0.023794
C18   C     C_R   0.284580 0.546067 0.074496 -0.032823
C19   C     C_R   0.364165 0.586908 0.009752 -0.103046
C20   C     C_R   0.293191 0.583685 0.919753 -0.034617
C21   C     C_R   0.048290 0.460471 0.115357 -0.130525
C22   C     C_R   0.269949 0.518589 0.231805 -0.261557
C23   C     C_3   0.036787 0.819341 0.113095 -0.045235
C24   C     C_R   0.075918 0.526792 0.793947 0.032581
C25   C     C_R   0.704039 0.937855 0.555349 -0.033610
C26   C     C_R   0.515193 0.798830 0.495573 0.054945
C27   C     C_R   0.364069 0.764573 0.447639 -0.289166
C28   C     C_R   0.258887 0.824806 0.403695 0.012967
C29   C     C_R   0.313229 0.916582 0.396416 -0.127468
C30   C     C_R   0.459414 0.954463 0.448313 -0.006656
C31   C     C_R   0.561501 0.896311 0.500304 -0.031354
C32   C     C_R   0.640208 0.092359 0.506994 -0.024010
C33   C     C_R   0.745148 0.034601 0.558020 0.005748
C34   C     C_3   0.215080 0.743603 0.642022 0.306245
C35   C     C_R   0.682536 0.189645 0.510398 0.025361
C36   C     C_R   0.831031 0.226553 0.559412 -0.290300
C37   C     C_R   0.941813 0.168030 0.602292 0.018674
C38   C     C_R   0.894943 0.073417 0.606699 -0.112458
C39   C     C_R   0.499020 0.050826 0.451916 -0.037226
C40   C     C_3   0.238768 0.850281 0.660731 -0.400003
C41   C     C_3   0.980977 0.252931 0.358025 0.238412
C42   C     C_3   0.916986 0.148343 0.335950 -0.243642
C43   C     C_3   0.706174 0.685651 0.733398 0.283820
C44   C     C_3   0.665033 0.725430 0.825937 -0.278975
H1    H     H_    0.645537 0.791751 0.304345 0.096197
H2    H     H_    0.351171 0.869344 0.710004 0.118573
H3    H     H_    0.250717 0.881970 0.597000 0.084264
H4    H     H_    0.131558 0.879618 0.689155 0.114860
H5    H     H_    0.895636 0.291564 0.397567 -0.001245
H6    H     H_    0.102875 0.257822 0.399826 0.076689
H7    H     H_    0.786010 0.142713 0.342445 0.065648
H8    H     H_    0.838331 0.671605 0.738444 -0.012346
H9    H     H_    0.631665 0.619525 0.709647 0.067521
H10   H     H_    0.685503 0.901692 0.187971 0.155903
H11   H     H_    0.721525 0.797809 0.843552 0.092144
H12   H     H_    0.530531 0.730595 0.822105 0.093339
H13   H     H_    0.431739 0.773701 0.256232 -0.064037
H14   H     H_    0.531886 0.939811 0.256609 0.072310
H15   H     H_    0.560048 0.361324 0.293649 0.058720
H16   H     H_    0.568786 0.189289 0.153653 0.077268
H17   H     H_    0.732896 0.266352 0.204438 0.129115
H18   H     H_    0.470677 0.884219 0.142632 0.102036
H19   H     H_    0.100353 0.889045 0.137522 0.091728
H20   H     H_    0.244887 0.334426 0.812427 0.056932
H21   H     H_    0.038590 0.284349 0.787986 -0.079576
H22   H     H_    0.298683 0.206740 0.925362 0.100157
H23   H     H_    0.179125 0.303951 0.954807 0.013165
H24   H     H_    0.778760 0.222258 0.761453 -0.034779
H25   H     H_    0.579233 0.207514 0.691931 0.079170
H26   H     H_    0.674700 0.058021 0.750912 0.065042
H27   H     H_    0.487847 0.094263 0.791119 0.147129
H28   H     H_    0.958760 0.694827 0.171098 0.091742
H29   H     H_    0.680343 0.112604 0.865598 0.118378
H30   H     H_    0.324587 0.524822 0.302250 0.073166
H31   H     H_    0.480827 0.624985 0.028319 0.123966
H32   H     H_    0.931692 0.422318 0.100065 0.091271
H33   H     H_    0.871098 0.474237 0.695957 0.073985
H34   H     H_    0.834748 0.412493 0.963881 0.060084
H35   H     H_    0.358113 0.621038 0.875478 0.095065
H36   H     H_    0.323282 0.692042 0.449674 0.067633
H37   H     H_    0.237967 0.959348 0.353354 0.083079
H38   H     H_    0.980549 0.028693 0.641405 0.061006
H39   H     H_    0.160541 0.743357 0.217496 -0.100245
H40   H     H_    0.866249 0.300050 0.557938 0.067185
H41   H     H_    0.785436 0.896109 0.596098 0.105812
H42   H     H_    0.416147 0.092752 0.412175 0.105905
H43   H     H_    0.908650 0.830699 0.083605 0.116972
H44   H     H_    0.326062 0.715003 0.618330 0.001432
H45   H     H_    0.108176 0.726792 0.588542 0.079148
O1    O     O_2   0.841250 0.444240 0.280450 -0.450437
O2    O     O_3   0.672965 0.756799 0.676515 -0.649974
O3    O     O_3   0.960800 0.814348 0.260618 -0.611777
O4    O     O_2   0.348460 0.555790 0.719610 -0.471814
O5    O     O_3   0.076820 0.552690 0.606290 -0.494563
O6    O     O_3   0.591740 0.384320 0.672310 -0.476963
O7    O     O_3   0.189029 0.706480 0.722356 -0.648237
O8    O     O_3   0.629090 0.386360 0.459240 -0.478197
O9    O     O_3   0.172500 0.335240 0.628910 -0.480363
O10   O     O_2   0.276975 0.166442 0.584133 -0.470252
O11   O     O_3   0.225515 0.197764 0.752951 -0.610246
O12   O     O_3   0.112870 0.447390 0.393710 -0.494636
O13   O     O_3   0.560600 0.613720 0.540760 -0.488434
O14   O     O_2   0.387470 0.270310 0.467210 -0.465396
O15   O     O_3   0.535745 0.221054 0.323539 -0.681042
O16   O     O_2   0.503974 0.452754 0.827453 -0.489057
O17   O     O_3   0.584495 0.277158 0.820602 -0.609531
O18   O     O_3   0.597960 0.615760 0.327700 -0.490770
O19   O     O_2   0.695970 0.548060 0.172988 -0.453666
O20   O     O_3   0.993121 0.293904 0.277739 -0.664979
O21   O     O_3   0.599869 0.720111 0.175494 -0.604576
O22   O     O_2   0.802240 0.729720 0.532850 -0.463454
O23   O     O_3   0.017190 0.664840 0.371090 -0.480477
O24   O     O_2   0.935105 0.833916 0.433264 -0.471474
P1    P     P_3+3 0.018620 0.416870 0.295980 0.973952
P2    P     P_3+3 0.635650 0.716500 0.560900 0.971562
P3    P     P_3+3 0.043828 0.785702 0.367847 0.965176
P4    P     P_3+3 0.171070 0.583210 0.704020 0.966289
P5    P     P_3+3 0.153924 0.215100 0.640554 0.964603
P6    P     P_3+3 0.562451 0.608230 0.209464 0.964717
P7    P     P_3+3 0.563122 0.267401 0.438469 0.915116
P8    P     P_3+3 0.631067 0.388941 0.789461 0.940218
C45   C     C_1   0.999402 0.088810 0.400002 0.196012
N1    N     N_1   0.063164 0.041301 0.450861 -0.270883
C46   C     C_1   0.931053 0.106704 0.243607 0.296637
N2    N     N_1   0.939695 0.072973 0.170920 -0.342047
C47   C     C_1   0.723711 0.669647 0.899651 0.209153
N3    N     N_1   0.769247 0.627808 0.959802 -0.269548
N4    N     N_2   0.337370 0.294472 0.233992 -0.462415
H46   H     H_    0.281404 0.312603 0.289679 0.195000
C48   C     C_3   0.253879 0.214920 0.175546 -0.212386
H47   H     H_    0.124880 0.230580 0.154560 0.140043
H48   H     H_    0.260610 0.150232 0.211260 0.133955
H49   H     H_    0.304780 0.202713 0.110892 0.086599
N5    N     N_2   0.569256 0.327312 0.112264 -0.432066
H50   H     H_    0.452631 0.351585 0.102915 0.203276
C49   C     C_3   0.623372 0.295005 0.027619 -0.213425
H51   H     H_    0.591827 0.347526 0.979226 0.154527
H52   H     H_    0.560919 0.226295 0.999389 0.106717
H53   H     H_    0.757469 0.286173 0.037718 0.101011
N6    N     N_2   0.043983 0.175952 0.916699 -0.431594
H54   H     H_    0.008986 0.184593 0.980514 0.197514
C50   C     C_3   0.058283 0.077825 0.885254 -0.209200
H55   H     H_    0.170304 0.050246 0.921518 0.096463
H56   H     H_    0.061922 0.069084 0.811102 0.134497
H57   H     H_    0.950273 0.035705 0.898762 0.094779
N7    N     N_2   0.121797 0.771343 0.044796 -0.434364
H58   H     H_    0.238201 0.754093 0.070119 0.197494
C51   C     C_3   0.119749 0.817475 0.962793 -0.228094
H59   H     H_    0.174900 0.772108 0.911658 0.128990
H60   H     H_    0.191744 0.885784 0.977508 0.093451
H61   H     H_    0.992258 0.829879 0.933717 0.112401

loop_
_geom_bond_atom_site_label_1
_geom_bond_atom_site_label_2
_ccdc_geom_bond_type
C11   H33   S    
C46   N2    T    
C32   C35   A    
C38   H38   S    
O5    P4    S    
C34   C40   S    
C17   C18   A    
C16   C24   A    
O16   P8    D    
C43   O2    S    
C47   N3    T    
Ba1   O8    S    
O7    P4    S    
C1    H18   S    
C25   C31   A    
C7    O17   S    
C10   C21   A    
C42   C46   S    
C6    H23   S    
C35   C36   A    
O2    P2    S    
C36   H40   S    
C12   H28   S    
C44   C47   S    
Ba2   O4    S    
N7    C51   S    
C32   C33   A    
C26   P2    S    
C48   H49   S    
O19   P6    D    
C3    C4    S    
C8    H27   S    
C41   H6    S    
C37   P5    S    
C9    C22   A    
C29   H37   S    
Ba1   Ba2   S    
C1    H10   S    
C4    N5    S    
Ba1   O18   S    
C42   H7    S    
Ba2   O6    S    
C48   H47   S    
C5    O11   S    
C30   C39   A    
O20   P1    S    
O9    P5    S    
Ba1   P1    S    
C7    C8    S    
Ba1   O12   S    
C1    H14   S    
C2    O21   S    
Ba2   O9    S    
C12   C23   S    
C19   C20   A    
C44   H12   S    
C9    P6    S    
C32   C39   A    
Ba1   O22   S    
C50   H57   S    
C3    O15   S    
C9    C18   A    
O18   P6    S    
C20   H35   S    
C5    C6    S    
C23   H19   S    
C24   P4    S    
C50   H56   S    
Ba2   O8    S    
C37   C38   A    
C14   C15   A    
C40   H2    S    
C28   P3    S    
O4    P4    D    
C43   C44   S    
C42   C45   S    
C14   H34   S    
C4    H17   S    
C17   C21   A    
C41   C42   S    
C27   C28   A    
C8    H29   S    
N4    H46   S    
C29   C30   A    
Ba2   O13   S    
C28   C29   A    
O24   P3    D    
O15   P7    S    
C15   C16   A    
C3    H15   S    
Ba1   P2    S    
C7    H24   S    
C25   H41   S    
O1    P1    D    
Ba1   O13   S    
O23   P3    S    
C49   H52   S    
C40   H4    S    
O8    P7    S    
O22   P2    D    
C34   H45   S    
N5    C49   S    
C3    N4    S    
C26   C31   A    
C6    H22   S    
Ba1   O1    S    
C11   C13   A    
C44   H11   S    
C51   H60   S    
C11   C24   A    
Ba1   O23   S    
O17   P8    S    
C1    C2    S    
O11   P5    S    
O13   P2    S    
C34   H44   S    
C39   H42   S    
C26   C27   A    
C16   C20   A    
O10   P5    D    
C22   H30   S    
C7    H25   S    
C12   H39   S    
N5    H50   S    
C49   H53   S    
C43   H8    S    
C6    N6    S    
Ba2   P4    S    
C10   C22   A    
Ba2   O14   S    
C23   H43   S    
C50   H55   S    
N4    C48   S    
C25   C33   A    
C30   C31   A    
C4    H16   S    
Ba2   O5    S    
C33   C38   A    
C27   H36   S    
O6    P8    S    
C5    H20   S    
O3    P3    S    
C41   H5    S    
C36   C37   A    
Ba2   O12   S    
Ba1   O5    S    
C2    H13   S    
C15   C17   A    
O14   P7    D    
O12   P1    S    
C23   N7    S    
N6    C50   S    
N7    H58   S    
C51   H61   S    
C21   H32   S    
C49   H51   S    
C40   H3    S    
C5    H21   S    
C35   P7    S    
C41   O20   S    
O21   P6    S    
C18   C19   A    
C43   H9    S    
C48   H48   S    
C19   H31   S    
N6    H54   S    
C51   H59   S    
C34   O7    S    
C13   P8    S    
C12   O3    S    
C13   C14   A    
C45   N1    T    
C10   P1    S    
C2    H1    S    
C8    H26   S    
