data_mof_unit_33332.cif
_audit_creation_date              2012-12-11T15:11:47-0500
_audit_creation_method            fapswitch 2.2
_symmetry_space_group_name_H-M    P1
_symmetry_Int_Tables_number       1
_space_group_crystal_system       triclinic
_cell_length_a                    20.38622
_cell_length_b                    7.155508
_cell_length_c                    13.664424
_cell_angle_alpha                 90.039882
_cell_angle_beta                  103.544105
_cell_angle_gamma                 89.747974
_cell_volume                      1937.82877069

loop_
_atom_site_label
_atom_site_type_symbol
_atom_type_description
_atom_site_fract_x
_atom_site_fract_y
_atom_site_fract_z
_atom_type_partial_charge
O1    O     O_R   0.449830 0.506740 0.599960 -0.545088
O2    O     O_R   0.550170 0.006740 0.400040 -0.547355
O3    O     O_R   0.588980 0.179860 0.596720 -0.520206
O4    O     O_R   0.411020 0.679860 0.403280 -0.533389
C1    C     C_R   0.615917 0.343744 0.618992 0.851806
C2    C     C_R   0.383991 0.844251 0.380882 0.839872
O5    O     O_R   0.452740 0.177340 0.612040 -0.527783
O6    O     O_R   0.547260 0.677340 0.387960 -0.524612
O7    O     O_R   0.412960 0.002070 0.415460 -0.563271
O8    O     O_R   0.587040 0.502070 0.584540 -0.557712
C3    C     C_R   0.436750 0.345737 0.638094 0.787149
C4    C     C_R   0.564598 0.844878 0.363614 0.780534
O9    O     O_3   0.487110 0.337570 0.435490 -0.391595
O10   O     O_3   0.512890 0.837570 0.564510 -0.378672
V1    V     V_3+5 0.502390 0.064650 0.511970 1.559373
V2    V     V_3+5 0.497610 0.564650 0.488030 1.550476
C5    C     C_R   0.605612 0.809446 0.109937 0.339919
C6    C     C_R   0.396598 0.365916 0.893462 0.350850
C7    C     C_R   0.603508 0.848381 0.285767 -0.216807
C8    C     C_R   0.398151 0.354705 0.716408 -0.204447
C9    C     C_R   0.924400 0.893879 0.314006 0.338991
C10   C     C_R   0.074525 0.429792 0.689554 0.334158
C11   C     C_R   0.891044 0.843683 0.388213 -0.286488
C12   C     C_R   0.111140 0.464945 0.617564 -0.275919
C13   C     C_R   0.822835 0.795364 0.362233 0.500690
C14   C     C_R   0.181373 0.458021 0.641760 0.486920
C15   C     C_R   0.784571 0.830674 0.262853 0.038963
C16   C     C_R   0.217090 0.395277 0.738508 0.043678
C17   C     C_R   0.820440 0.856685 0.185806 -0.174652
C18   C     C_R   0.180091 0.378830 0.814943 -0.173821
C19   C     C_R   0.712231 0.840374 0.237899 -0.052715
C20   C     C_R   0.289262 0.372026 0.764228 -0.058159
C21   C     C_R   0.676899 0.831706 0.135178 -0.124402
C22   C     C_R   0.324584 0.373262 0.867214 -0.126437
C23   C     C_R   0.712664 0.861469 0.059720 0.449359
C24   C     C_R   0.287654 0.389081 0.942326 0.447695
C25   C     C_R   0.783265 0.885850 0.086197 0.218745
C26   C     C_R   0.216451 0.393743 0.916260 0.214579
C27   C     C_R   0.674184 0.875854 0.311024 0.369374
C28   C     C_R   0.327202 0.346975 0.690141 0.368267
C29   C     C_R   0.570077 0.804020 0.187165 0.220558
C30   C     C_R   0.432841 0.355361 0.817114 0.209614
C31   C     C_R   0.892485 0.868790 0.212516 -0.081324
C32   C     C_R   0.107548 0.376955 0.787612 -0.085153
H1    H     H_    0.918582 0.839783 0.466327 0.151462
H2    H     H_    0.084870 0.515926 0.544082 0.160849
C33   C     C_3   0.211626 0.647085 0.219949 0.076880
C34   C     C_3   0.787578 0.147074 0.783438 0.045007
H3    H     H_    0.217971 0.583013 0.149602 0.175119
H4    H     H_    0.780432 0.090907 0.855018 0.165069
C35   C     C_3   0.281514 0.645818 0.295910 0.129154
C36   C     C_3   0.717798 0.144529 0.706914 0.118016
H5    H     H_    0.274713 0.593101 0.369745 0.173268
H6    H     H_    0.724215 0.085105 0.634327 0.193161
C37   C     C_3   0.189012 0.955844 0.295947 0.159715
C38   C     C_3   0.810917 0.446337 0.698949 0.148385
C39   C     C_3   0.238769 0.940633 0.140467 0.024157
C40   C     C_3   0.762100 0.450421 0.855843 0.017565
C41   C     C_3   0.185917 0.851497 0.193976 -0.243102
C42   C     C_3   0.814266 0.351886 0.804236 -0.210351
H7    H     H_    0.237187 0.859433 0.070479 0.164547
H8    H     H_    0.763909 0.376559 0.928079 0.164331
C43   C     C_3   0.312272 0.848886 0.313058 -0.212230
C44   C     C_3   0.687707 0.347663 0.685752 -0.180405
C45   C     C_3   0.263499 0.971027 0.361759 0.404705
C46   C     C_3   0.736082 0.459879 0.632700 0.374941
C47   C     C_3   0.312443 0.936285 0.208678 0.187568
C48   C     C_3   0.688273 0.443477 0.788527 0.190644
H9    H     H_    0.331308 0.081940 0.221448 0.190463
H10   H     H_    0.668945 0.588229 0.772797 0.180881
H11   H     H_    0.168851 0.097814 0.276870 0.198259
H12   H     H_    0.831450 0.588707 0.713482 0.185801
O11   O     O_R   0.912980 0.203550 0.915410 -0.521071
O12   O     O_R   0.087020 0.703550 0.084590 -0.521072
O13   O     O_R   0.047270 0.535570 0.887960 -0.524003
O14   O     O_R   0.952730 0.035570 0.112040 -0.519925
C49   C     C_R   0.064886 0.370044 0.862661 0.806383
C50   C     C_R   0.935121 0.869817 0.137418 0.803906
O15   O     O_R   0.911030 0.532970 0.903270 -0.528052
O16   O     O_R   0.088970 0.032970 0.096730 -0.532510
O17   O     O_R   0.949820 0.708150 0.099970 -0.551799
O18   O     O_R   0.050180 0.208150 0.900030 -0.550947
C51   C     C_R   0.885120 0.363415 0.877656 0.826624
C52   C     C_R   0.115154 0.863127 0.121188 0.826850
O19   O     O_3   0.012900 0.375230 0.064480 -0.370321
O20   O     O_3   0.987100 0.875230 0.935520 -0.369723
V3    V     V_3+5 0.997610 0.648190 0.988040 1.612664
V4    V     V_3+5 0.002390 0.148190 0.011960 1.617583
O21   O     O_3   0.502063 0.763033 0.168341 -0.598008
H13   H     H_    0.489508 0.685464 0.107000 0.328898
O22   O     O_3   0.502214 0.337350 0.838697 -0.597537
H14   H     H_    0.516625 0.258442 0.899571 0.328755
O23   O     O_3   0.324750 0.524759 0.258844 -0.628161
H15   H     H_    0.341216 0.426760 0.309853 0.326709
O24   O     O_3   0.673229 0.029980 0.743936 -0.626769
H16   H     H_    0.682803 0.899512 0.727887 0.319779
Br1   Br    Br    0.125282 0.864055 0.370057 -0.437129
Br2   Br    Br    0.873031 0.336691 0.626044 -0.414216
Br3   Br    Br    0.274294 0.896149 0.504232 -0.451428
Br4   Br    Br    0.724472 0.364389 0.492703 -0.462149
O25   O     O_3   0.220658 0.122873 0.108574 -0.655179
H17   H     H_    0.226434 0.204153 0.168573 0.329279
O26   O     O_3   0.780798 0.634354 0.882818 -0.654429
H18   H     H_    0.772684 0.710123 0.820786 0.321004
O27   O     O_3   0.358602 0.845874 0.162008 -0.586783
H19   H     H_    0.336896 0.734566 0.125506 0.360236
O28   O     O_3   0.642952 0.358042 0.838175 -0.583270
H20   H     H_    0.664919 0.247535 0.875878 0.349446
O29   O     O_3   0.676786 0.883323 0.961205 -0.583900
H21   H     H_    0.708032 0.895755 0.916572 0.340174
O30   O     O_3   0.322455 0.404202 0.041721 -0.585580
H22   H     H_    0.291188 0.394649 0.086443 0.349527
O31   O     O_3   0.280451 0.161216 0.360998 -0.663443
H23   H     H_    0.319420 0.185103 0.417458 0.308807
O32   O     O_3   0.718406 0.650978 0.626750 -0.672549
H24   H     H_    0.686381 0.676136 0.561507 0.327586
O33   O     O_3   0.571664 0.791835 0.010228 -0.584567
H25   H     H_    0.526596 0.851085 0.000963 0.310500
O34   O     O_3   0.430701 0.371848 0.993594 -0.588433
H26   H     H_    0.475785 0.427516 0.999316 0.306952
O35   O     O_3   0.706395 0.953611 0.402317 -0.579296
H27   H     H_    0.675609 0.964382 0.448073 0.297589
O36   O     O_3   0.295171 0.290941 0.594723 -0.577964
H28   H     H_    0.316385 0.357857 0.546848 0.294079
O37   O     O_3   0.987416 0.972312 0.338841 -0.598976
H29   H     H_    0.999603 0.997902 0.412273 0.340021
O38   O     O_3   0.006990 0.473179 0.669672 -0.607956
H30   H     H_    0.992419 0.527100 0.601051 0.326087
O39   O     O_3   0.794028 0.707596 0.431577 -0.574769
H31   H     H_    0.827504 0.698233 0.497032 0.351721
O40   O     O_3   0.215024 0.545620 0.578294 -0.591680
H32   H     H_    0.184395 0.560537 0.510758 0.364107
O41   O     O_3   0.813463 0.968885 0.017944 -0.668588
H33   H     H_    0.836898 0.868269 0.990040 0.319019
O42   O     O_3   0.184435 0.457162 0.987570 -0.670467
H34   H     H_    0.160225 0.349893 0.007133 0.320499
Br5   Br    Br    0.149694 0.475782 0.263879 -0.482899
Br6   Br    Br    0.849041 0.966474 0.743848 -0.484655

loop_
_geom_bond_atom_site_label_1
_geom_bond_atom_site_label_2
_ccdc_geom_bond_type
C40   H8    S    
C29   O21   S    
C43   C45   S    
O25   H17   S    
C11   H1    S    
C37   C41   S    
C15   C17   A    
O30   H22   S    
O1    C3    A    
C38   Br2   S    
O16   C52   A    
C13   O39   S    
C2    O7    A    
O15   V3    S    
O36   H28   S    
C33   H3    S    
C31   C50   S    
O5    C3    A    
O23   H15   S    
C44   C48   S    
C32   C49   S    
C23   C25   A    
C12   C14   A    
O31   H23   S    
C6    C30   A    
C8    C28   A    
C42   C51   S    
O20   V4    S    
C39   C41   S    
C40   C42   S    
O32   H24   S    
C37   Br1   S    
C18   C26   A    
C36   O24   S    
C30   O22   S    
C46   Br4   S    
C9    C31   A    
C10   C32   A    
O24   H16   S    
C38   H12   S    
O28   H20   S    
C19   C21   A    
C48   O28   S    
O12   V3    S    
O42   H34   S    
O14   V4    S    
C23   O29   S    
C5    O33   S    
C34   H4    S    
O2    C4    A    
O6    V2    S    
C17   C31   A    
C18   C32   A    
C38   C46   S    
C5    C21   A    
C39   C47   S    
C37   C45   S    
C36   H6    S    
C34   C42   S    
O19   V3    S    
C43   C47   S    
C3    C8    S    
C46   O32   S    
C15   C19   A    
O14   C50   A    
C16   C20   A    
C35   C43   S    
C41   C52   S    
C45   Br3   S    
O4    C2    A    
C36   C44   S    
O22   H14   S    
O20   V3    S    
C47   O27   S    
C33   C35   S    
C38   C42   S    
C1    C44   S    
C35   H5    S    
C44   C46   S    
C2    C43   S    
O4    V2    S    
O11   V4    S    
O13   C49   A    
O6    C4    A    
C33   Br5   S    
C24   O30   S    
O1    V2    S    
C26   O42   S    
O2    V1    S    
C6    C22   A    
O35   H27   S    
O17   V3    S    
C7    C27   A    
C35   O23   S    
C40   C48   S    
C9    C11   A    
O41   H33   S    
C10   C12   A    
C9    O37   S    
O40   H32   S    
O3    V1    S    
O39   H31   S    
O19   V4    S    
O13   V3    S    
C28   O36   S    
C45   O31   S    
O12   C52   A    
O3    C1    A    
C8    C30   A    
O34   H26   S    
C39   H7    S    
C13   C15   A    
C39   O25   S    
O27   H19   S    
C14   C16   A    
C27   O35   S    
C34   Br6   S    
C12   H2    S    
C16   C18   A    
O7    V1    S    
C1    O8    A    
O16   V4    S    
O8    V2    S    
O33   H25   S    
C24   C26   A    
O15   C51   A    
C50   O17   A    
C10   O38   S    
O37   H29   S    
C49   O18   A    
O18   V4    S    
C4    C7    S    
O5    V1    S    
C21   C23   A    
C19   C27   A    
C22   C24   A    
C20   C28   A    
C25   O41   S    
C5    C29   A    
C33   C41   S    
C7    C29   A    
C34   C36   S    
C11   C13   A    
C48   H10   S    
O9    V2    S    
C17   C25   A    
O26   H18   S    
O10   V1    S    
C40   O26   S    
C47   H9    S    
O21   H13   S    
O29   H21   S    
C6    O34   S    
O11   C51   A    
C37   H11   S    
C14   O40   S    
O38   H30   S    
C20   C22   A    
