data_mof_unit_61490.cif
_audit_creation_date              2012-12-10T19:51:56-0500
_audit_creation_method            fapswitch 2.2
_symmetry_space_group_name_H-M    P1
_symmetry_Int_Tables_number       1
_space_group_crystal_system       triclinic
_cell_length_a                    25.95947
_cell_length_b                    25.989677
_cell_length_c                    22.187395
_cell_angle_alpha                 90.030328
_cell_angle_beta                  125.815458
_cell_angle_gamma                 89.905199
_cell_volume                      12138.7190404

loop_
_atom_site_label
_atom_site_type_symbol
_atom_type_description
_atom_site_fract_x
_atom_site_fract_y
_atom_site_fract_z
_atom_type_partial_charge
C1    C     C_R   0.650272 0.750009 0.300574 0.817222
C2    C     C_R   0.650253 0.250020 0.300543 0.821264
C3    C     C_R   0.150272 0.250009 0.300574 0.817229
C4    C     C_R   0.150253 0.750020 0.300543 0.821262
C5    C     C_3   0.631342 0.470345 0.429837 0.262470
C6    C     C_3   0.632702 0.529092 0.435426 0.274831
C7    C     C_3   0.131342 0.970346 0.429824 0.262498
C8    C     C_3   0.132699 0.029094 0.435404 0.274819
C9    C     C_3   0.468936 0.226913 0.024848 -0.272323
C10   C     C_3   0.478506 0.786014 0.024761 -0.272281
C11   C     C_3   0.968967 0.726860 0.024850 -0.272279
C12   C     C_3   0.978537 0.286038 0.024761 -0.272267
C13   C     C_3   0.945901 0.775736 0.975300 -0.216186
C14   C     C_3   0.939812 0.239142 0.975405 -0.217344
C15   C     C_3   0.445935 0.275787 0.975297 -0.216170
C16   C     C_3   0.439820 0.739107 0.975404 -0.217334
C17   C     C_1   0.889442 0.749928 0.778928 -0.135121
C18   C     C_1   0.889366 0.250036 0.778904 -0.134711
C19   C     C_1   0.389443 0.249927 0.778929 -0.135123
C20   C     C_1   0.389366 0.750037 0.778903 -0.134713
C21   C     C_1   0.610477 0.249996 0.221104 -0.148445
C22   C     C_1   0.610487 0.750124 0.221122 -0.151615
C23   C     C_1   0.110478 0.749996 0.221105 -0.148445
C24   C     C_1   0.110489 0.250123 0.221122 -0.151618
C25   C     C_3   0.986660 0.702321 0.976044 0.547909
C26   C     C_3   0.001752 0.295659 0.975838 0.549894
C27   C     C_3   0.486599 0.202318 0.976044 0.547904
C28   C     C_3   0.501716 0.795674 0.975838 0.549891
C29   C     C_3   0.963439 0.750228 0.926925 0.135373
C30   C     C_3   0.963209 0.249801 0.926918 0.134954
C31   C     C_3   0.463442 0.250222 0.926926 0.135385
C32   C     C_3   0.463209 0.749804 0.926918 0.134960
C33   C     C_3   0.554398 0.224328 0.024952 -0.264307
C34   C     C_3   0.560250 0.760907 0.024822 -0.268194
C35   C     C_3   0.054431 0.724387 0.024949 -0.264354
C36   C     C_3   0.060259 0.260866 0.024821 -0.268208
C37   C     C_3   0.536474 0.249854 0.073167 0.137902
C38   C     C_3   0.536474 0.750345 0.073161 0.138427
C39   C     C_3   0.036476 0.749857 0.073167 0.137899
C40   C     C_3   0.036476 0.250342 0.073161 0.138427
C41   C     C_3   0.030682 0.773283 0.975404 -0.219136
C42   C     C_3   0.020884 0.214173 0.975473 -0.218794
C43   C     C_3   0.530715 0.273222 0.975406 -0.219148
C44   C     C_3   0.520913 0.714203 0.975473 -0.218802
C45   C     C_R   0.849697 0.749950 0.699472 0.819962
C46   C     C_R   0.849673 0.250029 0.699438 0.816388
C47   C     C_R   0.349698 0.249951 0.699472 0.819966
C48   C     C_R   0.349673 0.750029 0.699438 0.816390
C49   C     C_3   0.513842 0.298779 0.025042 -0.119452
C50   C     C_3   0.498157 0.703505 0.025222 -0.115983
C51   C     C_3   0.013778 0.798786 0.025043 -0.119441
C52   C     C_3   0.998121 0.203514 0.025223 -0.115979
C53   C     C_1   0.922857 0.749992 0.845748 -0.024005
C54   C     C_1   0.922713 0.249978 0.845729 -0.024336
C55   C     C_1   0.422860 0.249990 0.845747 -0.024007
C56   C     C_1   0.422714 0.749980 0.845728 -0.024337
C57   C     C_1   0.577041 0.249947 0.154295 -0.060605
C58   C     C_1   0.577051 0.750241 0.154304 -0.062778
C59   C     C_1   0.077043 0.749949 0.154295 -0.060606
C60   C     C_1   0.077053 0.250240 0.154304 -0.062780
C61   C     C_R   0.501537 0.719987 0.449811 0.121499
C62   C     C_R   0.496731 0.272251 0.440924 0.146408
C63   C     C_R   0.001538 0.219985 0.449813 0.121477
C64   C     C_R   0.996730 0.772250 0.440923 0.146414
C65   C     C_R   0.556057 0.746901 0.504030 -0.072018
C66   C     C_R   0.551814 0.246050 0.495653 -0.076329
C67   C     C_R   0.056058 0.246901 0.504031 -0.072014
C68   C     C_R   0.051814 0.746050 0.495653 -0.076332
C69   C     C_R   0.558565 0.769319 0.563392 -0.224474
C70   C     C_R   0.549116 0.213401 0.544352 -0.226992
C71   C     C_R   0.058565 0.269320 0.563391 -0.224469
C72   C     C_R   0.049115 0.713401 0.544352 -0.226990
C73   C     C_R   0.504664 0.769390 0.563278 -0.225398
C74   C     C_R   0.495288 0.213223 0.544329 -0.224104
C75   C     C_R   0.004663 0.269392 0.563277 -0.225396
C76   C     C_R   0.995288 0.713222 0.544328 -0.224103
C77   C     C_R   0.447809 0.747130 0.503735 -0.072430
C78   C     C_R   0.443619 0.245692 0.495591 -0.078747
C79   C     C_R   0.947809 0.247130 0.503735 -0.072431
C80   C     C_R   0.943619 0.745692 0.495590 -0.078747
C81   C     C_R   0.448195 0.720263 0.449510 0.129877
C82   C     C_R   0.443662 0.272048 0.440943 0.128580
C83   C     C_R   0.948196 0.220262 0.449512 0.129882
C84   C     C_R   0.943662 0.772048 0.440942 0.128579
C85   C     C_3   0.404534 0.725606 0.366868 -0.476376
C86   C     C_3   0.428220 0.326761 0.416644 -0.462710
C87   C     C_3   0.904535 0.225601 0.366870 -0.476368
C88   C     C_3   0.928219 0.826760 0.416643 -0.462718
C89   C     C_R   0.890007 0.749627 0.499760 0.805032
C90   C     C_R   0.890196 0.249903 0.500120 0.794907
C91   C     C_R   0.390007 0.249628 0.499760 0.805030
C92   C     C_R   0.390196 0.749903 0.500120 0.794907
C93   C     C_3   0.463141 0.724891 0.367226 -0.484913
C94   C     C_3   0.486645 0.327055 0.416516 -0.530543
C95   C     C_3   0.963142 0.224886 0.367228 -0.484917
C96   C     C_3   0.986644 0.827055 0.416516 -0.530537
C97   C     C_R   0.779566 0.973450 0.472616 0.042127
C98   C     C_R   0.780087 0.026548 0.473323 -0.136414
C99   C     C_R   0.279565 0.473450 0.472614 0.042125
C100  C     C_R   0.280085 0.526548 0.473320 -0.136412
C101  C     C_R   0.756056 0.945926 0.505843 -0.102199
C102  C     C_R   0.756261 0.054108 0.506132 -0.086128
C103  C     C_R   0.256057 0.445926 0.505844 -0.102199
C104  C     C_R   0.256262 0.554108 0.506132 -0.086128
C105  C     C_R   0.741253 0.973166 0.548732 -0.209818
C106  C     C_R   0.741255 0.026910 0.548781 -0.193444
C107  C     C_R   0.241258 0.473167 0.548736 -0.209817
C108  C     C_R   0.241259 0.526910 0.548785 -0.193445
C109  C     C_3   0.765107 0.029434 0.396698 0.275727
C110  C     C_3   0.764279 0.970439 0.396357 0.281749
C111  C     C_3   0.265102 0.529434 0.396694 0.275726
C112  C     C_3   0.264274 0.470438 0.396353 0.281747
C113  C     C_R   0.609960 0.749812 0.500260 0.792358
C114  C     C_R   0.609653 0.249775 0.499740 0.798365
C115  C     C_R   0.109960 0.249812 0.500260 0.792364
C116  C     C_R   0.109653 0.749775 0.499739 0.798362
C117  C     C_R   0.750445 0.890171 0.500415 0.806448
C118  C     C_R   0.750523 0.109842 0.500485 0.793852
C119  C     C_R   0.250445 0.390171 0.500415 0.806447
C120  C     C_R   0.250523 0.609842 0.500485 0.793852
C121  C     C_R   0.750084 0.609825 0.500093 0.817996
C122  C     C_R   0.750029 0.390215 0.499462 0.817212
C123  C     C_R   0.250084 0.109825 0.500093 0.818000
C124  C     C_R   0.250029 0.890215 0.499462 0.817213
C125  C     C_R   0.695478 0.526816 0.447122 0.068944
C126  C     C_R   0.695455 0.473789 0.445236 0.055134
C127  C     C_R   0.195481 0.026816 0.447114 0.068923
C128  C     C_R   0.195458 0.973789 0.445232 0.055150
C129  C     C_R   0.751262 0.554095 0.496276 -0.134336
C130  C     C_R   0.751120 0.445986 0.494618 -0.133723
C131  C     C_R   0.251263 0.054095 0.496274 -0.134334
C132  C     C_R   0.251121 0.945986 0.494620 -0.133726
C133  C     C_R   0.808968 0.526806 0.538492 -0.207185
C134  C     C_R   0.808877 0.473030 0.537883 -0.204147
C135  C     C_R   0.308968 0.026806 0.538498 -0.207182
C136  C     C_R   0.308878 0.973030 0.537890 -0.204147
H1    H     H_    0.853773 0.546731 0.574419 0.179324
H2    H     H_    0.853607 0.452874 0.573736 0.179738
H3    H     H_    0.353773 0.046731 0.574430 0.179324
H4    H     H_    0.353607 0.952874 0.573748 0.179739
H5    H     H_    0.506903 0.788360 0.608232 0.176132
H6    H     H_    0.495633 0.189769 0.584897 0.178453
H7    H     H_    0.006902 0.288363 0.608229 0.176134
H8    H     H_    0.995633 0.689768 0.584896 0.178455
H9    H     H_    0.373684 0.691408 0.339434 0.208557
H10   H     H_    0.432574 0.352262 0.459683 0.221406
H11   H     H_    0.873686 0.191403 0.339438 0.208558
H12   H     H_    0.932572 0.852261 0.459682 0.221409
H13   H     H_    0.379062 0.763132 0.348936 0.200856
H14   H     H_    0.383022 0.330468 0.360161 0.207692
H15   H     H_    0.879062 0.263127 0.348936 0.200856
H16   H     H_    0.883020 0.830467 0.360160 0.207693
H17   H     H_    0.466555 0.689970 0.340892 0.209366
H18   H     H_    0.524930 0.352891 0.459287 0.195369
H19   H     H_    0.966558 0.189964 0.340896 0.209355
H20   H     H_    0.024928 0.852890 0.459288 0.195369
H21   H     H_    0.471500 0.761853 0.349011 0.200668
H22   H     H_    0.474777 0.330596 0.359844 0.206453
H23   H     H_    0.971500 0.261848 0.349010 0.200674
H24   H     H_    0.974776 0.830597 0.359844 0.206461
H25   H     H_    0.726358 0.953222 0.578971 0.173688
H26   H     H_    0.726271 0.046891 0.578958 0.170755
H27   H     H_    0.226365 0.453222 0.578978 0.173688
H28   H     H_    0.226278 0.546890 0.578964 0.170756
H29   H     H_    0.717366 0.046192 0.355247 0.064769
H30   H     H_    0.716819 0.952585 0.355816 0.004631
H31   H     H_    0.217360 0.546191 0.355244 0.064768
H32   H     H_    0.216814 0.452584 0.355814 0.004633
H33   H     H_    0.632745 0.449912 0.475091 -0.018732
H34   H     H_    0.637522 0.544223 0.485653 -0.022262
H35   H     H_    0.132741 0.949918 0.475078 -0.018741
H36   H     H_    0.137510 0.044228 0.485623 -0.022264
H37   H     H_    0.901182 0.797035 0.953868 0.151953
H38   H     H_    0.890118 0.229895 0.954070 0.151776
H39   H     H_    0.401244 0.297132 0.953861 0.151954
H40   H     H_    0.390133 0.729828 0.954066 0.151778
H41   H     H_    0.444190 0.207846 0.045988 0.136443
H42   H     H_    0.461760 0.815530 0.045824 0.135697
H43   H     H_    0.944250 0.707743 0.045991 0.136450
H44   H     H_    0.961815 0.315577 0.045825 0.135699
H45   H     H_    0.525764 0.338766 0.046632 0.141874
H46   H     H_    0.497312 0.665297 0.046967 0.143095
H47   H     H_    0.025648 0.838774 0.046634 0.141878
H48   H     H_    0.997246 0.165315 0.046968 0.143093
H49   H     H_    0.055148 0.792574 0.954063 0.150827
H50   H     H_    0.037334 0.184557 0.954193 0.150448
H51   H     H_    0.555209 0.292469 0.954069 0.150827
H52   H     H_    0.537386 0.684607 0.954195 0.150446
H53   H     H_    0.599097 0.203070 0.046153 0.140098
H54   H     H_    0.609917 0.770041 0.045932 0.136873
H55   H     H_    0.099156 0.703174 0.046147 0.140083
H56   H     H_    0.109932 0.269969 0.045928 0.136870
O1    O     O_3   0.749980 0.749980 0.500000 -0.482285
O2    O     O_3   0.749980 0.250020 0.500000 -0.480025
O3    O     O_3   0.249980 0.249980 0.500000 -0.482279
O4    O     O_3   0.249980 0.750020 0.500000 -0.480029
O5    O     O_R   0.887330 0.719620 0.543100 -0.648325
O6    O     O_R   0.887330 0.280380 0.543100 -0.645729
O7    O     O_R   0.387330 0.219620 0.543100 -0.648326
O8    O     O_R   0.387330 0.780380 0.543100 -0.645729
O9    O     O_R   0.612630 0.719620 0.456900 -0.646982
O10   O     O_R   0.612630 0.280380 0.456900 -0.653343
O11   O     O_R   0.112630 0.219620 0.456900 -0.647004
O12   O     O_R   0.112630 0.780380 0.456900 -0.653324
O13   O     O_R   0.698160 0.780350 0.335610 -0.651171
O14   O     O_R   0.698160 0.219650 0.335610 -0.636296
O15   O     O_R   0.198160 0.280350 0.335610 -0.651171
O16   O     O_R   0.198160 0.719650 0.335610 -0.636298
O17   O     O_R   0.801810 0.780340 0.664390 -0.640408
O18   O     O_R   0.801810 0.219660 0.664390 -0.640847
O19   O     O_R   0.301810 0.280340 0.664390 -0.640405
O20   O     O_R   0.301810 0.719660 0.664390 -0.640846
O21   O     O_R   0.637440 0.719620 0.335610 -0.627106
O22   O     O_R   0.637440 0.280380 0.335610 -0.633183
O23   O     O_R   0.137440 0.219620 0.335610 -0.627110
O24   O     O_R   0.137440 0.780380 0.335610 -0.633175
O25   O     O_R   0.862520 0.719620 0.664390 -0.632361
O26   O     O_R   0.862520 0.280380 0.664390 -0.631219
O27   O     O_R   0.362520 0.219620 0.664390 -0.632368
O28   O     O_R   0.362520 0.780380 0.664390 -0.631223
O29   O     O_R   0.844240 0.780350 0.456900 -0.637785
O30   O     O_R   0.844240 0.219650 0.456900 -0.640040
O31   O     O_R   0.344240 0.280350 0.456900 -0.637785
O32   O     O_R   0.344240 0.719650 0.456900 -0.640041
O33   O     O_R   0.655730 0.780340 0.543100 -0.646593
O34   O     O_R   0.655730 0.219660 0.543100 -0.646728
O35   O     O_R   0.155730 0.280340 0.543100 -0.646589
O36   O     O_R   0.155730 0.719660 0.543100 -0.646729
O37   O     O_R   0.758800 0.865790 0.456890 -0.631444
O38   O     O_R   0.758800 0.134210 0.456890 -0.643285
O39   O     O_R   0.258800 0.365790 0.456890 -0.631444
O40   O     O_R   0.258800 0.634210 0.456890 -0.643284
O41   O     O_R   0.698070 0.634180 0.456910 -0.618426
O42   O     O_R   0.698070 0.365820 0.456910 -0.636085
O43   O     O_R   0.198070 0.134180 0.456910 -0.618456
O44   O     O_R   0.198070 0.865820 0.456910 -0.636057
O45   O     O_R   0.741170 0.865780 0.543090 -0.647810
O46   O     O_R   0.741170 0.134220 0.543090 -0.646050
O47   O     O_R   0.241170 0.365780 0.543090 -0.647811
O48   O     O_R   0.241170 0.634220 0.543090 -0.646051
O49   O     O_R   0.801880 0.634180 0.543110 -0.649121
O50   O     O_R   0.801880 0.365820 0.543110 -0.644845
O51   O     O_R   0.301880 0.134180 0.543110 -0.649116
O52   O     O_R   0.301880 0.865820 0.543110 -0.644848
Zn1   Zn    Zn3+2 0.824140 0.706600 0.561580 0.971074
Zn2   Zn    Zn3+2 0.824140 0.293400 0.561580 0.970217
Zn3   Zn    Zn3+2 0.324140 0.206600 0.561580 0.971072
Zn4   Zn    Zn3+2 0.324140 0.793400 0.561580 0.970214
Zn5   Zn    Zn3+2 0.762580 0.793360 0.438420 0.966616
Zn6   Zn    Zn3+2 0.762580 0.206640 0.438420 0.970395
Zn7   Zn    Zn3+2 0.262580 0.293360 0.438420 0.966617
Zn8   Zn    Zn3+2 0.262580 0.706640 0.438420 0.970394
Zn9   Zn    Zn3+2 0.737390 0.793360 0.561570 0.962271
Zn10  Zn    Zn3+2 0.737390 0.206640 0.561570 0.959968
Zn11  Zn    Zn3+2 0.237390 0.293360 0.561570 0.962275
Zn12  Zn    Zn3+2 0.237390 0.706640 0.561570 0.959968
Zn13  Zn    Zn3+2 0.675820 0.706600 0.438430 0.980665
Zn14  Zn    Zn3+2 0.675820 0.293400 0.438430 0.966104
Zn15  Zn    Zn3+2 0.175820 0.206600 0.438430 0.980637
Zn16  Zn    Zn3+2 0.175820 0.793400 0.438430 0.966135
H57   H     H_    0.601214 0.788298 0.608359 0.174875
H58   H     H_    0.589515 0.190016 0.584905 0.178000
H59   H     H_    0.101213 0.288301 0.608357 0.174876
H60   H     H_    0.089515 0.690016 0.584904 0.178001
O53   O     O_3   0.811811 0.050156 0.388631 -0.569891
C137  C     C_3   0.870928 0.061334 0.456559 0.230031
H61   H     H_    0.890951 0.026783 0.493042 0.158499
H62   H     H_    0.865505 0.093260 0.485824 0.144992
C138  C     C_3   0.918060 0.078243 0.440808 -0.886476
H63   H     H_    0.897959 0.110499 0.400502 0.264760
H64   H     H_    0.962873 0.091156 0.493096 0.202203
H65   H     H_    0.928965 0.045769 0.417457 0.245144
O54   O     O_3   0.815449 0.948633 0.398884 -0.570587
C139  C     C_3   0.795903 0.935636 0.326410 0.188833
H66   H     H_    0.753750 0.957861 0.281406 0.111945
H67   H     H_    0.784016 0.894003 0.317050 0.139932
C140  C     C_3   0.850013 0.945996 0.319566 -0.849487
H68   H     H_    0.839097 0.928436 0.267655 0.198130
H69   H     H_    0.855960 0.988072 0.317467 0.270614
H70   H     H_    0.895204 0.929646 0.367718 0.259862
O55   O     O_3   0.311803 0.550156 0.388622 -0.569891
C141  C     C_3   0.370922 0.561333 0.456549 0.230036
H71   H     H_    0.390946 0.526781 0.493030 0.158501
H72   H     H_    0.365502 0.593258 0.485817 0.144992
C142  C     C_3   0.418050 0.578244 0.440793 -0.886487
H73   H     H_    0.397948 0.610502 0.400490 0.264761
H74   H     H_    0.462866 0.591156 0.493079 0.202200
H75   H     H_    0.428952 0.545771 0.417436 0.245142
O56   O     O_3   0.315444 0.448633 0.398877 -0.570589
C143  C     C_3   0.295894 0.435635 0.326403 0.188825
H76   H     H_    0.253740 0.457860 0.281399 0.111943
H77   H     H_    0.284008 0.394002 0.317045 0.139934
C144  C     C_3   0.350003 0.445995 0.319554 -0.849485
H78   H     H_    0.339084 0.428434 0.267643 0.198130
H79   H     H_    0.355950 0.488071 0.317455 0.270611
H80   H     H_    0.395194 0.429644 0.367705 0.259867
O57   O     O_3   0.586633 0.452854 0.356265 -0.533508
C145  C     C_3   0.538465 0.424390 0.351948 0.145210
H81   H     H_    0.519377 0.444790 0.379217 0.104533
H82   H     H_    0.557646 0.386251 0.378647 0.164870
C146  C     C_3   0.484009 0.416306 0.270632 -0.809512
H83   H     H_    0.500676 0.393767 0.242530 0.260237
H84   H     H_    0.444779 0.395158 0.266122 0.192970
H85   H     H_    0.465620 0.454080 0.242401 0.258255
O58   O     O_3   0.586760 0.553598 0.367358 -0.526438
C147  C     C_3   0.535096 0.569498 0.368079 0.164503
H86   H     H_    0.549429 0.602423 0.406979 0.140580
H87   H     H_    0.517372 0.537574 0.384875 0.107258
C148  C     C_3   0.480873 0.586863 0.290513 -0.812838
H88   H     H_    0.466212 0.554851 0.250397 0.259555
H89   H     H_    0.439581 0.598545 0.290275 0.194956
H90   H     H_    0.496134 0.620100 0.273073 0.258395
O59   O     O_3   0.086639 0.952848 0.356255 -0.533495
C149  C     C_3   0.038454 0.924408 0.351932 0.145249
H91   H     H_    0.019344 0.944842 0.379152 0.104573
H92   H     H_    0.057626 0.886279 0.378677 0.164788
C150  C     C_3   0.984024 0.916288 0.270613 -0.809486
H93   H     H_    0.000715 0.893714 0.242564 0.260233
H94   H     H_    0.944781 0.895159 0.266098 0.192961
H95   H     H_    0.965646 0.954048 0.242335 0.258254
O60   O     O_3   0.086763 0.053594 0.367327 -0.526454
C151  C     C_3   0.035107 0.069523 0.368047 0.164477
H96   H     H_    0.049449 0.102467 0.406917 0.140646
H97   H     H_    0.017384 0.037622 0.384879 0.107203
C152  C     C_3   0.980879 0.086861 0.290468 -0.812827
H98   H     H_    0.966206 0.054825 0.250383 0.259546
H99   H     H_    0.939595 0.098571 0.290230 0.194948
H100  H     H_    0.996140 0.120073 0.272987 0.258410
O61   O     O_3   0.970020 0.652445 0.945164 -0.608895
C153  C     C_3   0.996851 0.615708 0.002810 0.097473
H101  H     H_    0.977963 0.620412 0.036417 0.133259
H102  H     H_    0.049591 0.618778 0.039690 0.135152
C154  C     C_3   0.979597 0.562051 0.969152 -0.821655
H103  H     H_    0.998957 0.555593 0.936447 0.261405
H104  H     H_    0.999944 0.532825 0.014089 0.199289
H105  H     H_    0.927153 0.557532 0.932146 0.260088
O62   O     O_3   0.000793 0.343239 0.944606 -0.607448
C155  C     C_3   0.040110 0.378624 0.001961 0.092809
H106  H     H_    0.090110 0.364671 0.037786 0.132323
H107  H     H_    0.022691 0.385576 0.036709 0.131282
C156  C     C_3   0.039173 0.429620 0.967756 -0.817682
H108  H     H_    0.989975 0.445066 0.932422 0.262038
H109  H     H_    0.070134 0.457801 0.012410 0.198394
H110  H     H_    0.056895 0.424167 0.933167 0.261239
O63   O     O_3   0.469897 0.152444 0.945164 -0.608896
C157  C     C_3   0.496646 0.115709 0.002805 0.097480
H111  H     H_    0.477712 0.120452 0.036357 0.133270
H112  H     H_    0.549388 0.118741 0.039737 0.135128
C158  C     C_3   0.479356 0.062053 0.969146 -0.821654
H113  H     H_    0.498771 0.055550 0.936505 0.261382
H114  H     H_    0.499627 0.032829 0.014078 0.199286
H115  H     H_    0.426910 0.057572 0.932079 0.260100
O64   O     O_3   0.500720 0.843265 0.944607 -0.607450
C159  C     C_3   0.539997 0.878663 0.001960 0.092826
H116  H     H_    0.590008 0.864737 0.037803 0.132316
H117  H     H_    0.522556 0.885590 0.036691 0.131284
C160  C     C_3   0.539029 0.929669 0.967754 -0.817693
H118  H     H_    0.489818 0.945087 0.932401 0.262035
H119  H     H_    0.569954 0.957860 0.012409 0.198402
H120  H     H_    0.556775 0.924241 0.933186 0.261233

loop_
_geom_bond_atom_site_label_1
_geom_bond_atom_site_label_2
_ccdc_geom_bond_type
C151  H97   S    
C133  H1    S    
C160  H118  S    
C143  C144  S    
C36   C42   S    
C136  H4    S    
O8    Zn4   S    
O62   C155  S    
C154  H103  S    
C135  H3    S    
C108  H28   S    
C141  H71   S    
O46   Zn10  S    
O49   Zn1   S    
O25   Zn1   S    
C51   H47   S    
C5    C6    S    
C154  H105  S    
C151  C152  S    
C118  O46   A    
C3    O23   A    
C100  C104  A    
C33   H53   S    
C139  H66   S    
C64   C84   A    
C79   C90   S    
O17   Zn9   S    
O36   Zn12  S    
C14   C52   S    
C48   O20   A    
C115  O11   A    
C5    C126  S    
C70   C74   A    
O40   Zn8   S    
C113  O9    A    
C7    C128  S    
C124  O52   A    
C119  O39   A    
O21   Zn13  S    
C156  H109  S    
O28   Zn4   S    
C117  O45   A    
C98   C109  S    
O4    Zn4   S    
C130  C134  A    
C10   H42   S    
C116  O12   A    
O11   Zn15  S    
C4    O16   A    
C25   C29   S    
O44   Zn16  S    
C153  H101  S    
C27   C31   S    
C52   H48   S    
C28   C32   S    
O19   Zn11  S    
C4    C23   S    
C69   H57   S    
C149  H91   S    
C146  H83   S    
O3    Zn3   S    
O1    Zn9   S    
C12   C40   S    
C150  H95   S    
C13   H37   S    
C115  O35   A    
C78   C82   A    
C113  O33   A    
C43   H51   S    
C68   C72   A    
C147  H86   S    
C88   H12   S    
C75   H7    S    
C68   C116  S    
C129  C133  A    
C76   H8    S    
C122  O42   A    
C116  O36   A    
C2    O22   A    
C160  H120  S    
C138  H64   S    
O47   Zn11  S    
C11   H43   S    
C145  H81   S    
C9    H41   S    
C146  H85   S    
C13   C29   S    
O42   Zn14  S    
C65   C113  S    
O3    Zn15  S    
C84   C88   S    
C6    C125  S    
C86   H10   S    
C22   C58   T    
O35   Zn11  S    
C26   O62   S    
C10   C38   S    
C3    O15   A    
C93   H17   S    
C9    C15   S    
C142  H74   S    
C10   C16   S    
C11   C13   S    
C96   H20   S    
O5    Zn1   S    
C15   C49   S    
O14   Zn6   S    
C127  C131  A    
C124  O44   A    
C61   C65   A    
C100  C111  S    
O33   Zn9   S    
O60   C151  S    
O2    Zn2   S    
C73   C77   A    
C103  C107  A    
C75   C79   A    
C41   C51   S    
O37   Zn5   S    
C42   C52   S    
C39   C51   S    
C158  H113  S    
C4    O24   A    
C47   O19   A    
C111  C112  S    
C20   C56   T    
O39   Zn7   S    
C120  O40   A    
C123  O51   A    
C97   C98   A    
C82   C86   S    
C7    C8    S    
C66   C70   A    
C27   C33   S    
C23   C59   T    
C30   C54   S    
C31   C43   S    
C95   H23   S    
C64   C68   A    
C17   C45   S    
C86   H14   S    
C89   O29   A    
C19   C47   S    
C11   C25   S    
C124  C132  S    
O16   Zn8   S    
O23   Zn15  S    
C152  H99   S    
C44   C50   S    
C85   C93   S    
C87   C95   S    
C107  C108  A    
O2    Zn6   S    
C2    O14   A    
C24   C60   T    
C35   H55   S    
C1    C22   S    
C13   C51   S    
C140  H68   S    
C112  O56   S    
C3    C24   S    
C50   H46   S    
C148  H89   S    
O48   Zn12  S    
C62   C66   A    
C34   H54   S    
C64   C96   S    
C109  O53   S    
C99   C103  A    
C45   O17   A    
C12   C26   S    
C11   C39   S    
C144  H78   S    
C125  C129  A    
C157  H112  S    
C132  C136  A    
O4    Zn8   S    
O56   C143  S    
C137  H62   S    
C49   H45   S    
O30   Zn6   S    
C12   H44   S    
C107  H27   S    
C26   C30   S    
C158  H115  S    
C155  H107  S    
C105  H25   S    
C157  C158  S    
C6    H34   S    
C70   H58   S    
O1    Zn1   S    
C29   C41   S    
C36   H56   S    
C76   C80   A    
C137  C138  S    
C15   C31   S    
C16   C32   S    
C155  C156  S    
C89   O5    A    
C141  H72   S    
C61   C81   A    
C119  O47   A    
C117  O37   A    
C139  H67   S    
C35   C41   S    
O9    Zn13  S    
O32   Zn8   S    
C141  C142  S    
C160  H119  S    
C159  H116  S    
C140  H70   S    
C7    H35   S    
C92   O8    A    
O15   Zn7   S    
C81   C85   S    
C83   C87   S    
C88   C96   S    
C46   O26   A    
C10   C28   S    
C139  C140  S    
C80   C84   A    
O64   C159  S    
C135  C136  A    
C73   H5    S    
O50   Zn2   S    
C153  H102  S    
C40   C60   S    
O45   Zn9   S    
C16   C50   S    
C144  H80   S    
C61   C93   S    
C148  H90   S    
C126  C130  A    
C149  H92   S    
C63   C95   S    
C143  H76   S    
O57   C145  S    
C80   C89   S    
C150  H94   S    
C5    O57   S    
C38   C58   S    
C153  C154  S    
C147  H87   S    
C114  O10   A    
C69   C73   A    
C16   H40   S    
C149  C150  S    
C154  H104  S    
C151  H96   S    
C62   C82   A    
C28   C34   S    
C94   H22   S    
C138  H63   S    
C111  O55   S    
C145  H82   S    
C18   C46   S    
O1    Zn13  S    
C146  H84   S    
C6    O58   S    
C71   H59   S    
C72   H60   S    
C147  C148  S    
C148  H88   S    
C33   C37   S    
O52   Zn4   S    
C63   C83   A    
C145  C146  S    
C28   O64   S    
C121  O49   A    
C142  H73   S    
C98   C102  A    
C114  O34   A    
C110  O54   S    
C37   C49   S    
C92   O32   A    
C39   C59   S    
C2    C21   S    
C20   C48   S    
C109  H29   S    
C120  O48   A    
C123  O43   A    
C26   C36   S    
O29   Zn5   S    
C121  O41   A    
C62   C94   S    
C1    O21   A    
C133  C134  A    
O27   Zn3   S    
C91   O31   A    
C127  C128  A    
C17   C53   T    
C104  C108  A    
C9    C27   S    
C48   O28   A    
O31   Zn7   S    
C66   C114  S    
C123  C131  S    
C121  C129  S    
C105  C106  A    
O4    Zn12  S    
C159  H117  S    
C101  C117  S    
C8    O60   S    
C14   H38   S    
C46   O18   A    
C109  C110  S    
C79   C83   A    
O12   Zn16  S    
O59   C149  S    
O6    Zn2   S    
C65   C69   A    
C85   H9    S    
C67   C71   A    
C106  H26   S    
C152  H98   S    
O13   Zn5   S    
O2    Zn10  S    
O43   Zn15  S    
O58   C147  S    
C74   C78   A    
C138  H65   S    
C5    H33   S    
C30   C42   S    
C31   C55   S    
C32   C56   S    
C8    H36   S    
C104  C120  S    
C77   C92   S    
C45   O25   A    
O61   C153  S    
C35   C39   S    
C72   C76   A    
C122  O50   A    
C156  H108  S    
O26   Zn2   S    
C90   O30   A    
C142  H75   S    
C131  C135  A    
O10   Zn14  S    
C112  H32   S    
O4    Zn16  S    
C67   C115  S    
O18   Zn10  S    
C86   C94   S    
O3    Zn7   S    
C77   C81   A    
C1    O13   A    
O53   C137  S    
C143  H77   S    
C102  C118  S    
O7    Zn3   S    
C91   O7    A    
C42   H50   S    
C74   H6    S    
C158  H114  S    
C87   H15   S    
C88   H16   S    
C14   C30   S    
C128  C132  A    
C27   O63   S    
C25   O61   S    
C101  C105  A    
C63   C67   A    
C33   C43   S    
C36   C40   S    
C34   C44   S    
C25   C35   S    
C43   C49   S    
O41   Zn13  S    
O55   C141  S    
C40   C52   S    
C47   O27   A    
C7    O59   S    
O2    Zn14  S    
O20   Zn12  S    
C152  H100  S    
C21   C57   T    
C8    C127  S    
C99   C100  A    
C94   H18   S    
C9    C37   S    
O54   C139  S    
C32   C44   S    
C41   H49   S    
C93   H21   S    
O3    Zn11  S    
C44   H52   S    
C96   H24   S    
C12   C14   S    
O1    Zn5   S    
C140  H69   S    
O24   Zn16  S    
C156  H110  S    
C34   C38   S    
C103  C119  S    
C134  H2    S    
C37   C57   S    
C38   C50   S    
C19   C55   T    
C78   C91   S    
C159  C160  S    
C90   O6    A    
O51   Zn3   S    
C15   H39   S    
C144  H79   S    
C71   C75   A    
C97   C110  S    
C110  H30   S    
C157  H111  S    
C125  C126  A    
C29   C53   S    
C118  O38   A    
C99   C112  S    
C102  C106  A    
C95   H19   S    
C150  H93   S    
C85   H13   S    
C137  H61   S    
C18   C54   T    
O34   Zn10  S    
C111  H31   S    
C155  H106  S    
C87   H11   S    
O22   Zn14  S    
O63   C157  S    
O38   Zn6   S    
C122  C130  S    
C97   C101  A    
