data_mof_unit_14119.cif
_audit_creation_date              2012-12-10T20:04:53-0500
_audit_creation_method            fapswitch 2.2
_symmetry_space_group_name_H-M    P1
_symmetry_Int_Tables_number       1
_space_group_crystal_system       triclinic
_cell_length_a                    10.851725
_cell_length_b                    19.272201
_cell_length_c                    18.557726
_cell_angle_alpha                 90.073991
_cell_angle_beta                  105.03192
_cell_angle_gamma                 90.438577
_cell_volume                      3748.16332432

loop_
_atom_site_label
_atom_site_type_symbol
_atom_type_description
_atom_site_fract_x
_atom_site_fract_y
_atom_site_fract_z
_atom_type_partial_charge
C1    C     C_R   0.503678 0.365671 0.500549 0.895348
C2    C     C_R   0.502298 0.928293 0.505927 0.143820
C3    C     C_R   0.533878 0.558113 0.732711 0.652686
C4    C     C_R   0.394228 0.477809 0.257912 0.630044
C5    C     C_R   0.525411 0.558841 0.806801 -0.381185
C6    C     C_R   0.391046 0.480949 0.181563 -0.404326
C7    C     C_R   0.494322 0.498102 0.840263 0.093385
C8    C     C_R   0.500547 0.500194 0.158759 0.119397
C9    C     C_R   0.466716 0.438060 0.795387 -0.226441
C10   C     C_R   0.610498 0.518130 0.215380 -0.243567
C11   C     C_R   0.466167 0.440754 0.719748 -0.130588
C12   C     C_R   0.502314 0.634279 0.500425 0.870913
C13   C     C_R   0.606447 0.520247 0.290249 -0.097745
C14   C     C_R   0.408216 0.456621 0.949244 0.479120
C15   C     C_R   0.576220 0.546592 0.047612 0.478699
C16   C     C_R   0.259059 0.501923 0.468581 0.943321
C17   C     C_R   0.740536 0.498773 0.531657 0.921796
C18   C     C_R   0.416327 0.455471 0.026162 -0.357142
C19   C     C_R   0.578004 0.542153 0.972309 -0.358235
C20   C     C_R   0.499040 0.500556 0.076946 -0.033334
C21   C     C_R   0.493841 0.498101 0.921494 -0.035755
C22   C     C_2   0.122282 0.496560 0.450780 -0.414433
C23   C     C_R   0.504572 0.709618 0.501764 -0.180121
C24   C     C_2   0.876171 0.506444 0.551079 -0.438456
C25   C     C_2   0.062136 0.515601 0.502439 -0.010470
C26   C     C_2   0.941963 0.480707 0.505297 0.003057
C27   C     C_R   0.545721 0.748111 0.447769 0.479549
C28   C     C_R   0.549932 0.253899 0.569689 0.474650
C29   C     C_R   0.537592 0.819909 0.448339 -0.278807
C30   C     C_R   0.554061 0.181899 0.568122 -0.306621
C31   C     C_R   0.495826 0.853513 0.504242 -0.020644
C32   C     C_R   0.534141 0.146435 0.500246 -0.011695
C33   C     C_R   0.460148 0.815733 0.560522 0.010406
C34   C     C_R   0.516285 0.290448 0.501818 -0.152456
C35   C     C_R   0.513525 0.183282 0.432524 0.019007
C36   C     C_R   0.465301 0.743744 0.558636 -0.296535
C37   C     C_R   0.501628 0.255035 0.434081 -0.312168
C38   C     C_R   0.894843 0.416039 0.461354 0.179761
C39   C     C_R   0.852638 0.416938 0.383050 -0.139239
C40   C     C_R   0.799474 0.357336 0.343683 -0.147269
C41   C     C_R   0.787435 0.296392 0.382063 -0.100332
C42   C     C_R   0.828915 0.294910 0.459870 -0.142897
C43   C     C_R   0.882197 0.354420 0.499387 -0.179847
C44   C     C_R   0.117669 0.571643 0.557819 0.179792
C45   C     C_R   0.608795 0.961216 0.552316 -0.164215
C46   C     C_R   0.125216 0.640127 0.533547 -0.182151
C47   C     C_R   0.174038 0.692839 0.585093 -0.160283
C48   C     C_R   0.217913 0.677370 0.660974 -0.101366
C49   C     C_R   0.212287 0.609174 0.685518 -0.147185
C50   C     C_R   0.162452 0.556382 0.634271 -0.114839
C51   C     C_3   0.206988 0.456965 0.873785 0.104788
C52   C     C_3   0.112547 0.416641 0.812966 -0.845126
C53   C     C_3   0.580415 0.658103 0.086739 0.093510
C54   C     C_3   0.662006 0.713694 0.135175 -0.810676
C55   C     C_3   0.728046 0.707784 0.424710 0.106478
C56   C     C_R   0.416608 0.037771 0.456273 -0.149806
C57   C     C_3   0.791542 0.698486 0.361365 -0.825514
C58   C     C_3   0.707660 0.288863 0.669795 0.103145
C59   C     C_3   0.739631 0.341140 0.733523 -0.815888
C60   C     C_R   0.416964 0.849562 0.621371 0.125873
C61   C     C_R   0.311438 0.894064 0.605111 -0.148435
C62   C     C_R   0.269316 0.924326 0.662861 -0.138925
C63   C     C_R   0.331442 0.909995 0.737141 -0.113933
C64   C     C_R   0.435612 0.865215 0.753797 -0.150498
C65   C     C_R   0.478142 0.834924 0.696217 -0.163958
C66   C     C_R   0.507363 0.148662 0.360109 0.120945
C67   C     C_R   0.620304 0.032761 0.549851 -0.215095
C68   C     C_R   0.406202 0.162317 0.297206 -0.186502
C69   C     C_R   0.401199 0.130074 0.228976 -0.136879
C70   C     C_R   0.497153 0.084243 0.222856 -0.107331
C71   C     C_R   0.598527 0.070734 0.284911 -0.140383
C72   C     C_R   0.604037 0.102918 0.353229 -0.149096
C73   C     C_3   0.706317 0.615452 0.712070 0.148406
C74   C     C_3   0.776050 0.659379 0.778736 -0.948074
C75   C     C_3   0.268441 0.383870 0.264318 0.088539
C76   C     C_3   0.179567 0.354829 0.308423 -0.805661
C77   C     C_R   0.406609 0.966179 0.457582 -0.206943
C78   C     C_R   0.524560 0.071102 0.501439 0.141635
H1    H     H_    0.544137 0.607131 0.837623 0.159971
H2    H     H_    0.078741 0.463905 0.403630 0.155884
H3    H     H_    0.568624 0.849702 0.406609 0.165934
H4    H     H_    0.570594 0.153625 0.620168 0.159130
H5    H     H_    0.436604 0.714295 0.601291 0.224629
H6    H     H_    0.483492 0.283394 0.382101 0.179389
H7    H     H_    0.683433 0.931369 0.589095 0.131869
H8    H     H_    0.340639 0.067169 0.420042 0.138718
H9    H     H_    0.703812 0.058199 0.585056 0.129241
H10   H     H_    0.324613 0.940264 0.421430 0.136204
H11   H     H_    0.860278 0.463826 0.352542 0.113878
H12   H     H_    0.302480 0.468582 0.140970 0.150006
H13   H     H_    0.766811 0.358579 0.283419 0.132494
H14   H     H_    0.745484 0.250417 0.351559 0.134499
H15   H     H_    0.818686 0.247823 0.489615 0.127044
H16   H     H_    0.912660 0.352822 0.559733 0.118205
H17   H     H_    0.092397 0.652650 0.474888 0.125909
H18   H     H_    0.178670 0.745650 0.566144 0.142434
H19   H     H_    0.256628 0.718209 0.700678 0.140299
H20   H     H_    0.246427 0.597220 0.744253 0.124717
H21   H     H_    0.158480 0.503709 0.653894 0.129453
H22   H     H_    0.230866 0.506184 0.848679 0.128830
H23   H     H_    0.446923 0.388890 0.818163 0.205909
H24   H     H_    0.160341 0.469473 0.919005 0.142102
H25   H     H_    0.084633 0.367547 0.835986 0.257943
H26   H     H_    0.025829 0.448192 0.790677 0.204409
H27   H     H_    0.156416 0.404371 0.766666 0.253172
H28   H     H_    0.493477 0.649642 0.107126 0.151201
H29   H     H_    0.551874 0.677437 0.028211 0.131668
H30   H     H_    0.748491 0.724362 0.115412 0.253115
H31   H     H_    0.606600 0.762276 0.132312 0.204512
H32   H     H_    0.691419 0.695984 0.193948 0.263088
H33   H     H_    0.745471 0.660699 0.460443 0.141313
H34   H     H_    0.700147 0.530009 0.202904 0.201652
H35   H     H_    0.774695 0.753387 0.458445 0.116990
H36   H     H_    0.780247 0.746311 0.327026 0.248233
H37   H     H_    0.894784 0.688348 0.384310 0.201522
H38   H     H_    0.747568 0.654199 0.325477 0.255153
H39   H     H_    0.761825 0.304350 0.628750 0.120137
H40   H     H_    0.739665 0.236723 0.692494 0.134732
H41   H     H_    0.843179 0.339316 0.761583 0.201236
H42   H     H_    0.715806 0.394314 0.711598 0.261685
H43   H     H_    0.684937 0.328878 0.774931 0.255711
H44   H     H_    0.260533 0.904436 0.547876 0.123759
H45   H     H_    0.440867 0.394733 0.685678 0.210278
H46   H     H_    0.187963 0.958551 0.650011 0.125849
H47   H     H_    0.298513 0.933343 0.781777 0.122320
H48   H     H_    0.483297 0.853873 0.811334 0.128488
H49   H     H_    0.558853 0.800222 0.709902 0.142117
H50   H     H_    0.330696 0.197379 0.301159 0.124594
H51   H     H_    0.322815 0.140577 0.180841 0.127174
H52   H     H_    0.493095 0.059314 0.169989 0.121411
H53   H     H_    0.673102 0.035468 0.280025 0.126493
H54   H     H_    0.684004 0.092546 0.400589 0.124962
H55   H     H_    0.726178 0.638208 0.661234 0.164298
H56   H     H_    0.689551 0.537208 0.332429 0.155965
H57   H     H_    0.746997 0.562033 0.717529 0.123428
H58   H     H_    0.765732 0.635783 0.831394 0.250459
H59   H     H_    0.879145 0.662373 0.780791 0.224331
H60   H     H_    0.736675 0.712687 0.773680 0.263283
H61   H     H_    0.359259 0.354147 0.280403 0.121793
H62   H     H_    0.222924 0.375653 0.203904 0.131265
H63   H     H_    0.087173 0.382632 0.293391 0.250956
H64   H     H_    0.161479 0.298814 0.295547 0.195310
H65   H     H_    0.223766 0.360870 0.369192 0.252684
H66   H     H_    0.355244 0.419237 0.045323 0.174666
H67   H     H_    0.645163 0.574936 0.953843 0.177270
H68   H     H_    0.913518 0.546029 0.592654 0.137910
N1    N     N_R   0.500020 0.499980 0.689440 -0.143022
N2    N     N_R   0.499980 0.500020 0.310560 -0.115457
O1    O     O_R   0.500000 0.398180 0.560840 -0.583321
O2    O     O_3   0.651711 0.596525 0.091723 -0.623429
O3    O     O_3   0.595344 0.716694 0.394564 -0.590146
O4    O     O_3   0.574500 0.288226 0.637505 -0.608528
O5    O     O_3   0.572857 0.617606 0.703572 -0.621174
O6    O     O_3   0.288424 0.455494 0.279941 -0.590706
O7    O     O_R   0.500000 0.601820 0.439160 -0.573493
O8    O     O_R   0.499950 0.398180 0.439200 -0.620478
O9    O     O_R   0.500050 0.601820 0.560800 -0.585867
O10   O     O_R   0.317830 0.500010 0.538110 -0.607509
O11   O     O_R   0.682170 0.499990 0.461890 -0.612309
O12   O     O_R   0.317770 0.500000 0.416470 -0.554911
O13   O     O_R   0.682230 0.500000 0.583530 -0.646425
O14   O     O_3   0.316253 0.416029 0.902029 -0.621474
Zn1   Zn    Zn3+2 0.500040 0.500000 0.581220 0.963366
Zn2   Zn    Zn3+2 0.499960 0.500000 0.418780 1.000609

loop_
_geom_bond_atom_site_label_1
_geom_bond_atom_site_label_2
_ccdc_geom_bond_type
C59   H43   S    
C66   C68   A    
C52   H25   S    
C30   H4    S    
C59   H42   S    
C16   O12   A    
C34   C37   A    
C13   H56   S    
C14   C18   A    
C4    O6    S    
C3    O5    S    
C43   H16   S    
C62   H46   S    
C57   H37   S    
C53   C54   S    
C51   H24   S    
C15   C19   A    
C48   H19   S    
C74   H60   S    
C12   C23   S    
C50   H21   S    
C19   H67   S    
C60   C61   A    
O12   Zn2   S    
C14   C21   A    
C35   C37   A    
C24   C26   D    
C75   H62   S    
C24   H68   S    
C38   C39   A    
C27   C29   A    
C36   H5    S    
C4    N2    A    
C70   H52   S    
C33   C36   A    
C56   C78   A    
C54   H32   S    
C51   O14   S    
C41   C42   A    
C58   H40   S    
C49   H20   S    
C53   H28   S    
C66   C72   A    
C46   H17   S    
C73   H57   S    
C77   H10   S    
C58   O4    S    
C68   C69   A    
C22   C25   D    
C74   H58   S    
C45   C67   A    
C59   H41   S    
C47   H18   S    
C31   C33   A    
C37   H6    S    
C1    O1    A    
C70   C71   A    
O1    Zn1   S    
C23   C27   A    
C12   O9    A    
C5    H1    S    
C68   H50   S    
C76   H63   S    
C28   C34   A    
C61   C62   A    
C67   C78   A    
C25   C44   S    
O13   Zn1   S    
C44   C46   A    
C1    C34   S    
C72   H54   S    
C57   H38   S    
C2    C45   A    
C15   C20   A    
C74   H59   S    
C17   C24   S    
C16   O10   A    
C51   C52   S    
N2    Zn2   S    
C32   C35   A    
C4    C6    A    
C39   C40   A    
C5    C7    A    
C26   C38   S    
C6    C8    A    
C55   H35   S    
C35   C66   S    
C25   C26   S    
C6    H12   S    
C32   C78   S    
C58   H39   S    
C56   C77   A    
C54   H31   S    
C2    C31   S    
C14   O14   S    
C1    O8    A    
C45   H7    S    
C75   C76   S    
C29   H3    S    
C62   C63   A    
C53   H29   S    
C56   H8    S    
C47   C48   A    
C8    C20   S    
C10   H34   S    
C9    C11   A    
C63   H47   S    
C17   O13   A    
O10   Zn1   S    
N1    Zn1   S    
C42   H15   S    
C8    C10   A    
C48   C49   A    
C73   H55   S    
C52   H27   S    
C28   O4    S    
C33   C60   S    
C64   H48   S    
C55   C57   S    
C53   O2    S    
C42   C43   A    
C12   O7    A    
C73   C74   S    
C65   H49   S    
C44   C50   A    
C51   H22   S    
C7    C9    A    
O9    Zn1   S    
C46   C47   A    
C52   H26   S    
C16   C22   S    
C55   H33   S    
C11   H45   S    
C27   O3    S    
C3    C5    A    
C10   C13   A    
C60   C65   A    
C55   O3    S    
C57   H36   S    
C23   C36   A    
O7    Zn2   S    
C67   H9    S    
C54   H30   S    
C64   C65   A    
C18   H66   S    
C58   C59   S    
C22   H2    S    
C38   C43   A    
C29   C31   A    
C2    C77   A    
C75   H61   S    
C3    N1    A    
C30   C32   A    
C75   O6    S    
C11   N1    A    
C69   H51   S    
C7    C21   S    
C28   C30   A    
C18   C20   A    
C40   H13   S    
C69   C70   A    
C17   O11   A    
C71   H53   S    
C63   C64   A    
C76   H65   S    
C71   C72   A    
C41   H14   S    
O8    Zn2   S    
C9    H23   S    
C49   C50   A    
C73   O5    S    
O11   Zn2   S    
C61   H44   S    
C40   C41   A    
C13   N2    A    
C39   H11   S    
C15   O2    S    
C19   C21   A    
C76   H64   S    
