data_mof_unit_62093.cif
_audit_creation_date              2012-12-10T16:57:04-0500
_audit_creation_method            fapswitch 2.2
_symmetry_space_group_name_H-M    P1
_symmetry_Int_Tables_number       1
_space_group_crystal_system       triclinic
_cell_length_a                    20.78988
_cell_length_b                    15.987947
_cell_length_c                    13.099881
_cell_angle_alpha                 90.068512
_cell_angle_beta                  91.100621
_cell_angle_gamma                 89.661814
_cell_volume                      4353.35496545

loop_
_atom_site_label
_atom_site_type_symbol
_atom_type_description
_atom_site_fract_x
_atom_site_fract_y
_atom_site_fract_z
_atom_type_partial_charge
C1    C     C_R   0.620701 0.838656 0.472428 0.825074
C2    C     C_2   0.993191 0.537204 0.945084 0.557781
C3    C     C_R   0.378277 0.159111 0.528997 0.909958
C4    C     C_R   0.378496 0.841036 0.529270 0.851207
C5    C     C_R   0.878278 0.659112 0.529000 0.909980
C6    C     C_R   0.878495 0.341038 0.529270 0.851231
C7    C     C_R   0.530041 0.002424 0.772653 0.891849
C8    C     C_R   0.030041 0.502424 0.772653 0.891849
C9    C     C_R   0.470188 0.999850 0.227838 0.728098
C10   C     C_R   0.970188 0.499850 0.227838 0.728098
C11   C     C_2   0.325106 0.782539 0.534214 -0.408733
C12   C     C_R   0.621858 0.158875 0.467805 0.803493
C13   C     C_2   0.325045 0.219031 0.533298 -0.322836
C14   C     C_2   0.825106 0.282541 0.534219 -0.408752
C15   C     C_2   0.825049 0.719034 0.533309 -0.322814
C16   C     C_2   0.287382 0.763315 0.452377 0.447348
C17   C     C_2   0.263869 0.193914 0.542388 0.433124
C18   C     C_2   0.787393 0.263291 0.452379 0.447327
C19   C     C_2   0.763872 0.693915 0.542361 0.433126
C20   C     C_2   0.673439 0.220071 0.450121 -0.212707
C21   C     C_2   0.668865 0.770098 0.469968 -0.214277
C22   C     C_2   0.173431 0.720087 0.450145 -0.212676
C23   C     C_R   0.120701 0.338655 0.472430 0.825077
C24   C     C_2   0.168865 0.270095 0.469979 -0.214277
C25   C     C_2   0.736748 0.200457 0.465240 -0.067971
C26   C     C_2   0.712645 0.758281 0.547580 -0.181383
C27   C     C_2   0.236742 0.700470 0.465218 -0.067966
C28   C     C_2   0.212642 0.258282 0.547594 -0.181391
C29   C     C_2   0.459595 0.998979 0.116979 0.327147
C30   C     C_2   0.959595 0.498979 0.116979 0.327148
C31   C     C_1   0.758599 0.116975 0.493057 0.214940
C32   C     C_1   0.712069 0.806930 0.641128 0.246776
C33   C     C_1   0.258599 0.616972 0.492937 0.214923
C34   C     C_R   0.121856 0.658878 0.467809 0.803489
C35   C     C_1   0.212063 0.306933 0.641139 0.246793
C36   C     C_1   0.654007 0.303193 0.417203 0.271565
C37   C     C_1   0.668684 0.716090 0.381072 0.220711
C38   C     C_1   0.153988 0.803226 0.417318 0.271540
C39   C     C_1   0.168685 0.216080 0.381090 0.220711
C40   C     C_2   0.502925 0.035374 0.057000 -0.341054
C41   C     C_2   0.002925 0.535374 0.057000 -0.341052
C42   C     C_2   0.540523 0.010291 0.883814 -0.368469
C43   C     C_2   0.040523 0.510290 0.883814 -0.368467
C44   C     C_2   0.493191 0.037204 0.945084 0.557781
H1    H     H_    0.314306 0.756508 0.608542 0.135477
H2    H     H_    0.202447 0.104389 0.555603 0.341624
H3    H     H_    0.817032 0.352984 0.363176 0.338085
H4    H     H_    0.702446 0.604385 0.555504 0.341622
H5    H     H_    0.409263 0.089935 0.958636 0.359756
H6    H     H_    0.909263 0.589936 0.958637 0.359755
H7    H     H_    0.381899 0.933852 0.129887 0.341501
H8    H     H_    0.881899 0.433852 0.129887 0.341498
H9    H     H_    0.335530 0.284914 0.522267 0.113634
H10   H     H_    0.814293 0.256539 0.608559 0.135488
H11   H     H_    0.835539 0.784920 0.522318 0.113614
H12   H     H_    0.546832 0.061530 0.089899 0.115102
H13   H     H_    0.046832 0.561530 0.089899 0.115102
H14   H     H_    0.587140 0.992606 0.916280 0.121285
H15   H     H_    0.087140 0.492606 0.916280 0.121284
H16   H     H_    0.317019 0.853031 0.363204 0.338078
N1    N     N_1   0.776194 0.050481 0.515166 -0.174312
N2    N     N_1   0.711746 0.845576 0.715893 -0.171412
N3    N     N_1   0.276199 0.550463 0.514968 -0.174340
N4    N     N_1   0.211737 0.345580 0.715902 -0.171420
N5    N     N_1   0.638494 0.369529 0.390976 -0.161247
N6    N     N_1   0.668547 0.672936 0.310080 -0.158231
N7    N     N_1   0.138465 0.869577 0.391165 -0.161248
N8    N     N_1   0.168548 0.172920 0.310103 -0.158231
O1    O     O_3   0.500000 0.000000 0.500000 -0.506814
O2    O     O_R   0.880760 0.402800 0.590320 -0.614415
O3    O     O_R   0.577210 0.000000 0.711160 -0.648852
O4    O     O_R   0.077210 0.500000 0.711160 -0.648855
O5    O     O_R   0.475030 0.069050 0.275760 -0.638292
O6    O     O_R   0.475030 0.930950 0.275760 -0.627859
O7    O     O_R   0.975030 0.569050 0.275760 -0.638288
O8    O     O_R   0.975030 0.430950 0.275760 -0.627859
O9    O     O_R   0.632300 0.097230 0.527310 -0.631775
O10   O     O_R   0.632300 0.902770 0.527310 -0.628500
O11   O     O_R   0.132300 0.597230 0.527310 -0.631775
O12   O     O_3   0.000000 0.500000 0.500000 -0.506814
O13   O     O_R   0.132300 0.402770 0.527310 -0.628500
O14   O     O_R   0.419940 0.833680 0.459580 -0.626434
O15   O     O_R   0.419940 0.166320 0.459580 -0.650606
O16   O     O_R   0.919940 0.333680 0.459580 -0.626427
O17   O     O_R   0.919940 0.666320 0.459580 -0.650598
O18   O     O_R   0.472710 1.000000 0.737340 -0.568266
O19   O     O_R   0.972710 0.500000 0.737340 -0.568269
O20   O     O_3   0.292641 0.800244 0.357203 -0.726984
O21   O     O_3   0.249473 0.109663 0.546238 -0.730350
O22   O     O_3   0.792668 0.300185 0.357187 -0.726973
O23   O     O_R   0.566980 0.833700 0.422750 -0.629675
O24   O     O_3   0.749473 0.609662 0.546155 -0.730383
O25   O     O_3   0.435180 0.065045 0.903446 -0.691544
O26   O     O_3   0.935180 0.565045 0.903446 -0.691549
O27   O     O_3   0.408291 0.956009 0.073843 -0.721157
O28   O     O_3   0.908291 0.456009 0.073843 -0.721157
O29   O     O_R   0.566980 0.166300 0.422750 -0.631476
O30   O     O_R   0.066980 0.333700 0.422750 -0.629670
O31   O     O_R   0.066980 0.666300 0.422750 -0.631474
O32   O     O_R   0.380760 0.097200 0.590320 -0.577943
O33   O     O_R   0.380760 0.902800 0.590320 -0.614403
O34   O     O_R   0.880760 0.597200 0.590320 -0.577970
Zn1   Zn    Zn3+2 0.434690 0.000000 0.602700 1.056164
Zn2   Zn    Zn3+2 0.934690 0.500000 0.602700 1.056153
Zn3   Zn    Zn3+2 0.584000 0.000000 0.565300 0.991774
Zn4   Zn    Zn3+2 0.084000 0.500000 0.565300 0.991772
Zn5   Zn    Zn3+2 0.490640 0.098690 0.416020 0.990090
Zn6   Zn    Zn3+2 0.490640 0.901310 0.416020 1.000028
Zn7   Zn    Zn3+2 0.990640 0.598690 0.416020 0.990100
Zn8   Zn    Zn3+2 0.990640 0.401310 0.416020 1.000039

loop_
_geom_bond_atom_site_label_1
_geom_bond_atom_site_label_2
_ccdc_geom_bond_type
C25   C31   S    
C21   C26   D    
C1    C21   S    
O30   Zn8   S    
C39   N8    T    
C14   C18   D    
C8    C43   S    
C42   H14   S    
O1    Zn5   S    
H2    O21   S    
C27   C33   S    
C15   C19   D    
C9    O5    A    
O12   Zn2   S    
O10   Zn3   S    
O17   Zn7   S    
C7    O3    A    
O2    Zn2   S    
O5    Zn5   S    
C7    O18   A    
C20   C25   D    
C2    C41   S    
C22   C38   S    
O12   Zn4   S    
C24   C39   S    
C11   C16   D    
C7    C42   S    
C19   C26   S    
C31   N1    T    
C30   O28   S    
C44   O25   S    
C5    O34   A    
C10   O8    A    
C3    O32   A    
C28   C35   S    
C40   H12   S    
O12   Zn7   S    
C23   C24   S    
C30   C41   D    
C35   N4    T    
C19   O24   S    
O14   Zn6   S    
C3    C13   S    
C43   H15   S    
C5    O17   A    
C16   C27   S    
C1    O23   A    
C12   O9    A    
C1    O10   A    
C17   C28   S    
C18   C25   S    
C42   C44   D    
O18   Zn1   S    
O1    Zn6   S    
C13   H9    S    
O1    Zn1   S    
H16   O20   S    
C22   C34   S    
O7    Zn7   S    
C6    O16   A    
C18   O22   S    
C2    O26   S    
C17   O21   S    
C29   O27   S    
O1    Zn3   S    
C26   C32   S    
H6    O26   S    
C20   C36   S    
O32   Zn1   S    
O16   Zn8   S    
O11   Zn4   S    
C15   H11   S    
C34   O11   A    
C6    C14   S    
C10   O7    A    
C10   C30   S    
C2    C43   D    
C33   N3    T    
C37   N6    T    
C12   C20   S    
C34   O31   A    
C4    O14   A    
C4    C11   S    
O34   Zn2   S    
C12   O29   A    
C4    O33   A    
C14   H10   S    
O4    Zn4   S    
C22   C27   D    
O3    Zn3   S    
C3    O15   A    
H3    O22   S    
C11   H1    S    
C9    O6    A    
O33   Zn1   S    
C6    O2    A    
O13   Zn4   S    
C23   O13   A    
C36   N5    T    
C8    O4    A    
O23   Zn6   S    
C24   C28   D    
C9    C29   S    
C13   C17   D    
C8    O19   A    
O9    Zn3   S    
C41   H13   S    
C29   C40   D    
O15   Zn5   S    
H8    O28   S    
C5    C15   S    
O6    Zn6   S    
O19   Zn2   S    
O29   Zn5   S    
C40   C44   S    
C23   O30   A    
C21   C37   S    
C38   N7    T    
O8    Zn8   S    
H4    O24   S    
O12   Zn8   S    
C16   O20   S    
C32   N2    T    
H5    O25   S    
H7    O27   S    
O31   Zn7   S    
