data_mof_unit_40456.cif
_audit_creation_date              2012-12-11T16:48:34-0500
_audit_creation_method            fapswitch 2.2
_symmetry_space_group_name_H-M    P1
_symmetry_Int_Tables_number       1
_space_group_crystal_system       triclinic
_cell_length_a                    17.338471
_cell_length_b                    24.644168
_cell_length_c                    14.939259
_cell_angle_alpha                 89.759214
_cell_angle_beta                  125.453716
_cell_angle_gamma                 90.130729
_cell_volume                      5199.79512372

loop_
_atom_site_label
_atom_site_type_symbol
_atom_type_description
_atom_site_fract_x
_atom_site_fract_y
_atom_site_fract_z
_atom_type_partial_charge
C1    C     C_R   0.357474 0.346666 0.911456 0.037056
C2    C     C_R   0.685368 0.371430 0.090996 0.042941
C3    C     C_R   0.855875 0.847114 0.911508 0.030197
C4    C     C_R   0.185016 0.871044 0.090950 0.042004
C5    C     C_R   0.391292 0.683363 0.999449 -0.143994
C6    C     C_R   0.690526 0.636510 0.006146 -0.128816
C7    C     C_R   0.890969 0.183310 0.999410 -0.143578
C8    C     C_R   0.191383 0.135283 0.006361 -0.130490
C9    C     C_R   0.450845 0.496837 0.277051 -0.060263
C10   C     C_R   0.425546 0.498171 0.628402 -0.055296
C11   C     C_R   0.950976 0.996856 0.277178 -0.060437
C12   C     C_R   0.925906 0.998212 0.628571 -0.055074
C13   C     C_R   0.173104 0.498053 0.702339 -0.011153
C14   C     C_R   0.793478 0.498429 0.371856 -0.001062
C15   C     C_R   0.673099 0.998014 0.701153 -0.011986
C16   C     C_R   0.293496 0.998397 0.371807 -0.001240
C17   C     C_2   0.917845 0.452833 0.539816 -0.137412
C18   C     C_2   0.019058 0.456299 0.628899 -0.134096
C19   C     C_2   0.417928 0.952809 0.539638 -0.137838
C20   C     C_2   0.519219 0.956324 0.628266 -0.135068
C21   C     C_2   0.866997 0.497836 0.489963 -0.107957
C22   C     C_2   0.070442 0.497903 0.631788 -0.108787
C23   C     C_2   0.367083 0.997810 0.489866 -0.108351
C24   C     C_2   0.570478 0.997783 0.630361 -0.108637
C25   C     C_R   0.330875 0.732888 0.083041 0.240314
C26   C     C_R   0.777635 0.679188 0.940754 0.272906
C27   C     C_R   0.831838 0.233516 0.083646 0.241187
C28   C     C_R   0.291649 0.175769 0.955452 0.189700
C29   C     C_R   0.352014 0.732427 0.006354 0.078616
C30   C     C_R   0.751897 0.677836 0.013531 0.056527
C31   C     C_R   0.852227 0.232630 0.006334 0.078266
C32   C     C_R   0.254219 0.176134 0.015967 0.087832
C33   C     C_R   0.325325 0.775868 0.933120 -0.150323
C34   C     C_R   0.766732 0.723225 0.077755 -0.151434
C35   C     C_R   0.825251 0.275898 0.932629 -0.150144
C36   C     C_R   0.269682 0.222027 0.079991 -0.151891
C37   C     C_R   0.771150 0.317916 0.932472 -0.185039
C38   C     C_R   0.316990 0.266635 0.077036 -0.197766
C39   C     C_R   0.270836 0.817666 0.932786 -0.185702
C40   C     C_R   0.813022 0.767738 0.074911 -0.195600
C41   C     C_R   0.743820 0.315016 0.004416 0.039951
C42   C     C_R   0.349690 0.266248 0.010057 0.050066
C43   C     C_R   0.242910 0.814385 0.004119 0.040426
C44   C     C_R   0.845547 0.767335 0.008380 0.041681
C45   C     C_R   0.452168 0.652698 0.089432 0.516840
C46   C     C_R   0.601334 0.625199 0.912378 0.471324
C47   C     C_R   0.952027 0.152681 0.089417 0.516904
C48   C     C_R   0.101623 0.125015 0.912494 0.473486
C49   C     C_R   0.777464 0.273708 0.081716 0.107313
C50   C     C_R   0.336610 0.219452 0.951151 0.142878
C51   C     C_R   0.276197 0.772918 0.081015 0.109448
C52   C     C_R   0.824405 0.723977 0.938008 0.151010
C53   C     C_3   0.722959 0.235432 0.103558 -0.492187
C54   C     C_3   0.348585 0.193470 0.869804 -0.492560
C55   C     C_3   0.221195 0.734367 0.101608 -0.495734
C56   C     C_3   0.891564 0.689577 0.931025 -0.520498
C57   C     C_3   0.282503 0.689853 0.104884 -0.490930
C58   C     C_3   0.840163 0.640548 0.933947 -0.478800
C59   C     C_3   0.783931 0.190738 0.106715 -0.492921
C60   C     C_3   0.297420 0.143847 0.875313 -0.431964
C61   C     C_R   0.409352 0.444661 0.478567 0.154357
C62   C     C_R   0.416568 0.444111 0.391488 0.143370
C63   C     C_R   0.909748 0.944670 0.478851 0.154823
C64   C     C_R   0.916961 0.944123 0.391791 0.143290
C65   C     C_R   0.391901 0.493223 0.512723 0.055227
C66   C     C_R   0.406634 0.492080 0.335581 0.070103
C67   C     C_R   0.892200 0.993231 0.512901 0.055195
C68   C     C_R   0.906865 0.992081 0.335777 0.070016
C69   C     C_R   0.357636 0.537467 0.438747 -0.123128
C70   C     C_R   0.363518 0.536433 0.349013 -0.165372
C71   C     C_R   0.857660 0.037409 0.438755 -0.124975
C72   C     C_R   0.863587 0.036389 0.349062 -0.166415
C73   C     C_3   0.495013 0.403356 0.445488 -0.477133
C74   C     C_3   0.487677 0.403981 0.541189 -0.493542
C75   C     C_3   0.995520 0.903435 0.445879 -0.477482
C76   C     C_3   0.988121 0.904023 0.541536 -0.494325
C77   C     C_R   0.477465 0.452891 0.244342 -0.226693
C78   C     C_R   0.445930 0.454167 0.695083 -0.240796
C79   C     C_R   0.977562 0.952914 0.244472 -0.227009
C80   C     C_R   0.946084 0.954175 0.695159 -0.239327
C81   C     C_R   0.229234 0.543788 0.732366 0.501728
C82   C     C_R   0.750141 0.543754 0.307443 0.436778
C83   C     C_R   0.729242 0.043774 0.731685 0.500938
C84   C     C_R   0.250111 0.043732 0.307463 0.436506
C85   C     C_R   0.484159 0.543256 0.255748 0.469538
C86   C     C_R   0.438589 0.543662 0.690651 0.543404
C87   C     C_R   0.984237 0.043268 0.255824 0.469652
C88   C     C_R   0.939163 0.043740 0.690882 0.533527
C89   C     C_R   0.231579 0.453124 0.741515 -0.206388
C90   C     C_R   0.747737 0.454165 0.306516 -0.175789
C91   C     C_R   0.731568 0.953097 0.740554 -0.205290
C92   C     C_R   0.247838 0.954126 0.306418 -0.175676
C93   C     C_R   0.356036 0.652118 0.908601 -0.098797
C94   C     C_R   0.691823 0.621260 0.095163 -0.141669
C95   C     C_R   0.855851 0.152083 0.908558 -0.097869
C96   C     C_R   0.192275 0.120286 0.095121 -0.145898
C97   C     C_R   0.448388 0.347436 0.093044 -0.003113
C98   C     C_R   0.593231 0.368484 0.908484 0.033818
C99   C     C_R   0.946986 0.847766 0.093214 -0.000086
C100  C     C_R   0.092709 0.868087 0.908358 0.033651
C101  C     C_R   0.390140 0.315399 0.003546 0.027244
C102  C     C_R   0.680414 0.353402 0.000557 0.002729
C103  C     C_R   0.887248 0.816200 0.003603 0.027388
C104  C     C_R   0.179705 0.852790 0.000419 0.002441
H1    H     H_    0.891803 0.536810 0.530836 0.184481
H2    H     H_    0.037110 0.532244 0.576470 0.183473
H3    H     H_    0.392077 0.036792 0.530677 0.184540
H4    H     H_    0.537069 0.031968 0.574599 0.183392
H5    H     H_    0.342348 0.775993 0.873899 0.153961
H6    H     H_    0.740397 0.724965 0.128099 0.174504
H7    H     H_    0.841705 0.275717 0.872907 0.154934
H8    H     H_    0.240707 0.224793 0.127486 0.173904
H9    H     H_    0.746988 0.350772 0.873592 0.139880
H10   H     H_    0.323723 0.302400 0.123058 0.138367
H11   H     H_    0.246939 0.850692 0.874305 0.139462
H12   H     H_    0.822103 0.802852 0.123624 0.138092
H13   H     H_    0.735826 0.241846 0.184695 0.205944
H14   H     H_    0.306294 0.213441 0.787904 0.224670
H15   H     H_    0.233409 0.740458 0.182487 0.205395
H16   H     H_    0.882040 0.694449 0.851178 0.215841
H17   H     H_    0.647131 0.232235 0.033055 0.205320
H18   H     H_    0.424160 0.185847 0.904181 0.196163
H19   H     H_    0.145534 0.731257 0.030600 0.206045
H20   H     H_    0.965944 0.693161 0.004861 0.205142
H21   H     H_    0.330435 0.671379 0.187710 0.243881
H22   H     H_    0.800713 0.617384 0.855734 0.224085
H23   H     H_    0.832290 0.172507 0.189699 0.245184
H24   H     H_    0.227020 0.136283 0.797316 0.249151
H25   H     H_    0.242538 0.660349 0.036369 0.198449
H26   H     H_    0.884504 0.615447 0.009497 0.196218
H27   H     H_    0.743607 0.161038 0.038652 0.197217
H28   H     H_    0.343548 0.107559 0.913670 0.186153
H29   H     H_    0.334733 0.574716 0.453410 0.209803
H30   H     H_    0.343653 0.572317 0.298195 0.170649
H31   H     H_    0.834427 0.074590 0.453185 0.210014
H32   H     H_    0.843606 0.072244 0.298142 0.170871
H33   H     H_    0.473314 0.363928 0.401371 0.193201
H34   H     H_    0.552002 0.421009 0.616855 0.204396
H35   H     H_    0.973951 0.863994 0.401814 0.193124
H36   H     H_    0.052400 0.921041 0.617272 0.203849
H37   H     H_    0.563376 0.419903 0.466463 0.212133
H38   H     H_    0.462214 0.364764 0.552104 0.201067
H39   H     H_    0.063849 0.920054 0.466876 0.211944
H40   H     H_    0.962658 0.864786 0.552371 0.201261
H41   H     H_    0.461011 0.411088 0.246676 0.137313
H42   H     H_    0.420660 0.413746 0.665199 0.137764
H43   H     H_    0.961170 0.911136 0.246993 0.137256
H44   H     H_    0.920894 0.913729 0.665320 0.137705
H45   H     H_    0.209735 0.411257 0.729508 0.144716
H46   H     H_    0.750065 0.413990 0.337110 0.128353
H47   H     H_    0.709723 0.911232 0.727738 0.146737
H48   H     H_    0.250288 0.913912 0.336932 0.128842
H49   H     H_    0.321849 0.668082 0.826728 0.218985
H50   H     H_    0.749111 0.627010 0.180304 0.186314
H51   H     H_    0.821566 0.168037 0.826668 0.219208
H52   H     H_    0.249815 0.125636 0.180296 0.185559
H53   H     H_    0.891984 0.413155 0.503040 0.142303
H54   H     H_    0.053314 0.421041 0.681345 0.146972
H55   H     H_    0.391968 0.913111 0.503020 0.142450
H56   H     H_    0.553567 0.921227 0.681209 0.146880
N1    N     N_R   0.395410 0.396350 0.944340 -0.063244
N2    N     N_R   0.604590 0.396350 0.055660 -0.057635
N3    N     N_R   0.895410 0.896350 0.944340 -0.062054
N4    N     N_R   0.104590 0.896350 0.055660 -0.057444
N5    N     N_R   0.449930 0.602500 0.055880 -0.111111
N6    N     N_R   0.550070 0.602500 0.944120 -0.087499
N7    N     N_R   0.949930 0.102500 0.055880 -0.111147
N8    N     N_R   0.050070 0.102500 0.944120 -0.086111
N9    N     N_R   0.525080 0.471030 0.205650 -0.066237
N10   N     N_R   0.474920 0.471030 0.794350 -0.069169
N11   N     N_R   0.025080 0.971030 0.205650 -0.066227
N12   N     N_R   0.974920 0.971030 0.794350 -0.069370
N13   N     N_R   0.320260 0.527820 0.794570 -0.081282
N14   N     N_R   0.679740 0.527820 0.205430 -0.091014
N15   N     N_R   0.820260 0.027820 0.794570 -0.081321
N16   N     N_R   0.179740 0.027820 0.205430 -0.091133
N17   N     N_R   0.524590 0.527840 0.205200 -0.073405
N18   N     N_R   0.475410 0.527840 0.794800 -0.099177
N19   N     N_R   0.024590 0.027840 0.205200 -0.073384
N20   N     N_R   0.975410 0.027840 0.794800 -0.099858
N21   N     N_R   0.320750 0.471000 0.795020 -0.070707
N22   N     N_R   0.679250 0.471000 0.204980 -0.068343
N23   N     N_R   0.820750 0.971000 0.795020 -0.070371
N24   N     N_R   0.179250 0.971000 0.204980 -0.068440
N25   N     N_R   0.393620 0.602490 0.942710 -0.083416
N26   N     N_R   0.606380 0.602490 0.057290 -0.052687
N27   N     N_R   0.893620 0.102490 0.942710 -0.083470
N28   N     N_R   0.106380 0.102490 0.057290 -0.051384
N29   N     N_R   0.451720 0.396350 0.057510 -0.060209
N30   N     N_R   0.548280 0.396350 0.942490 -0.066457
N31   N     N_R   0.951720 0.896350 0.057510 -0.060155
N32   N     N_R   0.048280 0.896350 0.942490 -0.066359
Ni1   Ni    Ni4+2 0.435420 0.434270 0.870230 0.178306
Ni2   Ni    Ni4+2 0.564580 0.434270 0.129770 0.186166
Ni3   Ni    Ni4+2 0.935420 0.934270 0.870230 0.178875
Ni4   Ni    Ni4+2 0.064580 0.934270 0.129770 0.186111
Ni5   Ni    Ni4+2 0.563430 0.564580 0.128740 0.326430
Ni6   Ni    Ni4+2 0.436570 0.564580 0.871260 0.303990
Ni7   Ni    Ni4+2 0.063430 0.064580 0.128740 0.326736
Ni8   Ni    Ni4+2 0.936570 0.064580 0.871260 0.304580
N33   N     N_3   0.323237 0.324910 0.805837 -0.206408
H57   H     H_    0.374725 0.297876 0.817697 0.103311
H58   H     H_    0.323007 0.355715 0.757523 0.105812
N34   N     N_3   0.761302 0.363589 0.204002 -0.213875
H59   H     H_    0.824503 0.355836 0.212660 0.125930
H60   H     H_    0.744626 0.330574 0.233778 0.101904
N35   N     N_3   0.816956 0.825539 0.804332 -0.202948
H61   H     H_    0.859728 0.793125 0.813477 0.111077
H62   H     H_    0.825253 0.854380 0.759096 0.104321
N36   N     N_3   0.260669 0.862814 0.203927 -0.214197
H63   H     H_    0.324034 0.855637 0.212600 0.126028
H64   H     H_    0.244213 0.829250 0.232691 0.102524
Cl1   Cl    Cl    0.555415 0.682725 0.201979 -0.526643
Cl2   Cl    Cl    0.557371 0.652969 0.782875 -0.606423
Cl3   Cl    Cl    0.055247 0.182767 0.201914 -0.526747
Cl4   Cl    Cl    0.056779 0.155784 0.785257 -0.614019
Cl5   Cl    Cl    0.186037 0.608790 0.677936 -0.640498
Cl6   Cl    Cl    0.755957 0.608140 0.361050 -0.572782
Cl7   Cl    Cl    0.686244 0.108767 0.677064 -0.640266
Cl8   Cl    Cl    0.255928 0.108124 0.361071 -0.572721
Cl9   Cl    Cl    0.501970 0.605886 0.320021 -0.595390
Cl10  Cl    Cl    0.362306 0.600093 0.634686 -0.580936
Cl11  Cl    Cl    0.002203 0.105864 0.320259 -0.598839
Cl12  Cl    Cl    0.863880 0.100551 0.635046 -0.578699
N37   N     N_3   0.522432 0.325980 0.198253 -0.205660
H65   H     H_    0.577261 0.354370 0.238936 0.113584
H66   H     H_    0.495427 0.320852 0.244620 0.101303
N38   N     N_3   0.547517 0.341385 0.805398 -0.203141
H67   H     H_    0.474870 0.339734 0.768851 0.097790
H68   H     H_    0.560480 0.363816 0.756140 0.107490
N39   N     N_3   0.020630 0.825811 0.198089 -0.206055
H69   H     H_    0.075909 0.853905 0.239247 0.113224
H70   H     H_    0.993503 0.820670 0.244327 0.101037
N40   N     N_3   0.046337 0.840702 0.805496 -0.202688
H71   H     H_    0.973759 0.839199 0.769587 0.098923
H72   H     H_    0.058926 0.862835 0.755601 0.106983

loop_
_geom_bond_atom_site_label_1
_geom_bond_atom_site_label_2
_ccdc_geom_bond_type
C97   N37   S    
C48   Cl4   S    
N8    N28   A    
C71   H31   S    
C83   N15   A    
C60   H28   S    
N33   H58   S    
C73   C74   S    
C96   N28   A    
C100  N40   S    
C19   C20   S    
C8    C96   A    
C16   C84   A    
C90   H46   S    
C1    N33   S    
C2    N2    A    
C75   H39   S    
C8    C48   A    
C53   C59   S    
C95   N27   A    
C54   C60   S    
C74   H34   S    
C59   H27   S    
C50   C54   S    
C25   C57   S    
C42   C101  S    
N10   N18   A    
C37   C41   A    
C34   C40   A    
C56   H20   S    
C14   C21   S    
C57   H25   S    
C35   C37   A    
N37   H65   S    
C38   C42   A    
C91   N23   A    
C69   C70   A    
C64   C68   A    
C57   H21   S    
C38   H10   S    
C13   C81   A    
C53   H13   S    
C72   H32   S    
C37   H9    S    
C63   C76   S    
C2    C102  A    
C59   H23   S    
C29   C33   A    
C100  C104  A    
C4    N36   S    
C41   C102  S    
N33   H57   S    
C79   N11   A    
C20   C24   D    
C43   C104  S    
C14   C90   A    
C84   Cl8   S    
N30   Ni1   S    
C9    C85   A    
N31   Ni4   S    
C52   C56   S    
C28   C50   A    
N29   Ni2   S    
C90   N22   A    
C11   C87   A    
C97   N29   A    
C6    C94   A    
C98   C102  A    
C47   Cl3   S    
C47   N7    A    
C36   H8    S    
C45   Cl1   S    
C88   Cl12  S    
N26   Ni5   S    
N22   Ni2   S    
N25   Ni6   S    
C17   C21   D    
C18   C22   D    
C17   H53   S    
C51   C55   S    
C27   C59   S    
C3    N3    A    
N12   N20   A    
C95   H51   S    
C89   H45   S    
C54   H18   S    
N13   N21   A    
N17   Ni5   S    
C25   C29   A    
C56   H16   S    
N14   N22   A    
C100  N32   A    
N40   H72   S    
C86   N18   A    
C46   N6    A    
C41   C49   A    
N38   H67   S    
C44   C103  S    
C88   N20   A    
C98   N38   S    
C76   H36   S    
C10   C78   A    
C12   C67   S    
C63   C67   A    
C91   H47   S    
C7    C31   S    
C30   C34   A    
C27   C31   A    
N35   H61   S    
C8    C32   S    
N32   Ni3   S    
C82   N14   A    
C28   C32   A    
C2    N34   S    
N1    N29   A    
C99   C103  A    
C92   N24   A    
C7    C47   A    
N4    N32   A    
C85   Cl9   S    
C62   C66   A    
N7    N27   A    
C15   C83   A    
N28   Ni7   S    
C46   Cl2   S    
N24   Ni4   S    
C5    C45   A    
C80   N12   A    
N5    N25   A    
N4    Ni4   S    
C81   N13   A    
C80   H44   S    
C19   C23   D    
C75   C76   S    
C25   C51   A    
C78   N10   A    
C92   H48   S    
C26   C52   A    
N20   Ni8   S    
N5    Ni5   S    
C83   Cl7   S    
N23   Ni3   S    
C82   Cl6   S    
C85   N17   A    
N3    Ni3   S    
C54   H14   S    
C68   C72   A    
C12   C88   A    
C23   H3    S    
N2    Ni2   S    
C4    N4    A    
C17   C18   S    
C79   H43   S    
N1    Ni1   S    
N6    Ni6   S    
C62   C73   S    
C55   C57   S    
C33   C39   A    
C70   H30   S    
C26   C58   S    
N9    Ni2   S    
C28   C60   S    
C11   C79   A    
C98   N30   A    
C42   C50   A    
C24   H4    S    
C76   H40   S    
C22   H2    S    
C15   C24   S    
C6    C30   S    
C87   N19   A    
N34   H60   S    
C87   Cl11  S    
C58   H22   S    
C16   C23   S    
N36   H64   S    
N39   H70   S    
N38   H68   S    
C34   H6    S    
C31   C35   A    
C73   H37   S    
C33   H5    S    
N40   H71   S    
C14   C82   A    
N16   Ni7   S    
C5    C29   S    
C1    C101  A    
N2    N30   A    
C35   H7    S    
C11   C68   S    
N15   N23   A    
C10   C65   S    
C3    C103  A    
N16   N24   A    
C10   C86   A    
N14   Ni5   S    
C55   H19   S    
C99   N39   S    
C6    C46   A    
C13   C89   A    
N13   Ni6   S    
N6    N26   A    
C1    N1    A    
N8    Ni8   S    
C94   N26   A    
C60   H24   S    
N11   Ni4   S    
C75   H35   S    
C44   C52   A    
C40   H12   S    
N10   Ni1   S    
C5    C93   A    
C32   C36   A    
C16   C92   A    
C81   Cl5   S    
C69   H29   S    
C61   C74   S    
C7    C95   A    
C66   C70   A    
C39   H11   S    
N19   Ni7   S    
N27   Ni8   S    
C19   H55   S    
C55   H15   S    
N11   N19   A    
C93   H49   S    
C9    C77   A    
C3    N35   S    
C71   C72   A    
C74   H38   S    
C53   H17   S    
C9    C66   S    
C18   H54   S    
C99   N31   A    
C94   H50   S    
C43   C51   A    
C96   H52   S    
C77   H41   S    
C73   H33   S    
C58   H26   S    
C65   C69   A    
C12   C80   A    
C36   C38   A    
N37   H66   S    
C64   C75   S    
C56   C58   S    
C13   C22   S    
C4    C104  A    
N9    N17   A    
C67   C71   A    
N18   Ni6   S    
C61   C62   A    
C21   H1    S    
N15   Ni8   S    
C49   C53   S    
C78   H42   S    
C15   C91   A    
C63   C64   A    
C61   C65   A    
C40   C44   A    
N34   H59   S    
C39   C43   A    
C77   N9    A    
N36   H63   S    
C20   H56   S    
N39   H69   S    
N35   H62   S    
N7    Ni7   S    
N12   Ni3   S    
N3    N31   A    
N21   Ni1   S    
C86   Cl10  S    
C84   N16   A    
C45   N5    A    
C48   N8    A    
C97   C101  A    
C27   C49   A    
C89   N21   A    
C26   C30   A    
C93   N25   A    
