data_mof_unit_54960.cif
_audit_creation_date              2013-03-05T15:53:35-0500
_audit_creation_method            fapswitch 2.2
_symmetry_space_group_name_H-M    P1
_symmetry_Int_Tables_number       1
_space_group_crystal_system       triclinic
_cell_length_a                    9.974845
_cell_length_b                    10.578303
_cell_length_c                    13.629438
_cell_angle_alpha                 93.839859
_cell_angle_beta                  82.200777
_cell_angle_gamma                 89.024134
_cell_volume                      1421.13836604

loop_
_atom_site_label
_atom_site_type_symbol
_atom_site_description
_atom_site_fract_x
_atom_site_fract_y
_atom_site_fract_z
_atom_type_partial_charge
O1    O     O_R   0.385310 0.683220 0.500000 -0.667571
O2    O     O_R   0.614640 0.683250 0.500010 -0.589159
C1    C     C_R   0.499788 0.739543 0.488946 0.885178
O3    O     O_R   0.368830 0.499960 0.640340 -0.617663
O4    O     O_R   0.598160 0.499980 0.640350 -0.593068
C2    C     C_R   0.474855 0.495619 0.685227 0.846705
Zn1   Zn    Zn3+2 0.346870 0.499980 0.499990 0.974787
Zn2   Zn    Zn3+2 0.653130 0.500020 0.500010 1.003667
O5    O     O_R   0.385360 0.316750 0.499990 -0.592538
O6    O     O_R   0.614690 0.316780 0.500000 -0.572146
O7    O     O_R   0.401840 0.500020 0.359650 -0.576934
O8    O     O_R   0.631170 0.500040 0.359660 -0.598034
C3    C     C_R   0.499264 0.261866 0.513894 0.886460
C4    C     C_R   0.525278 0.499300 0.314440 0.933202
C5    C     C_1   0.546139 0.501358 0.210610 -0.147697
C6    C     C_2   0.563678 0.506910 0.017977 0.214065
C7    C     C_2   0.444562 0.517791 0.981481 -0.047659
C8    C     C_1   0.444723 0.504074 0.877321 -0.119394
C9    C     C_1   0.559234 0.503867 0.122791 0.062777
C10   C     C_1   0.454693 0.497188 0.789284 -0.155493
C11   C     C_R   0.243787 0.896968 0.492985 -0.152556
H1    H     H_    0.232963 0.814092 0.444147 0.183664
C12   C     C_R   0.125358 0.957359 0.540400 -0.160310
H2    H     H_    0.028573 0.915829 0.533074 0.155528
C13   C     C_R   0.131915 0.067607 0.600641 -0.092939
H3    H     H_    0.039228 0.108652 0.641989 0.179395
C14   C     C_R   0.257025 0.123502 0.608044 -0.004756
C15   C     C_R   0.376854 0.067142 0.551759 -0.007213
C16   C     C_R   0.372069 0.945078 0.506631 0.085109
C17   C     C_R   0.495841 0.875623 0.477422 -0.147929
C18   C     C_R   0.620671 0.937169 0.467761 -0.075024
C19   C     C_R   0.624466 0.059908 0.511447 -0.052163
C20   C     C_R   0.500994 0.129177 0.536952 -0.272086
C21   C     C_R   0.842934 0.660181 0.655573 0.148014
C22   C     C_R   0.912029 0.714621 0.733163 0.143660
C23   C     C_R   0.051907 0.705416 0.724832 0.150070
C24   C     C_R   0.122250 0.645234 0.641080 -0.225402
H4    H     H_    0.227536 0.659301 0.631461 0.224875
C25   C     C_R   0.060570 0.572448 0.571907 0.050203
C26   C     C_R   0.915691 0.574877 0.575155 0.027470
N1    N     N_R   0.857120 0.501200 0.500900 -0.128422
C27   C     C_R   0.942709 0.431899 0.429152 -0.032703
C28   C     C_R   0.086040 0.428716 0.430967 0.209074
N2    N     N_R   0.142720 0.501280 0.500940 -0.108684
C29   C     C_2   0.310857 0.544780 0.042825 0.348979
H5    H     H_    0.219432 0.513111 0.014728 0.084921
O9    O     O_2   0.300542 0.607969 0.121904 -0.575836
N3    N     N_2   0.724408 0.728458 0.641770 -0.226467
H6    H     H_    0.748439 0.807135 0.602915 0.187139
C30   C     C_3   0.614401 0.756023 0.722565 -0.653489
H7    H     H_    0.515986 0.743003 0.694690 0.199774
H8    H     H_    0.614254 0.856905 0.750655 0.217496
H9    H     H_    0.620974 0.694356 0.784427 0.235450
N4    N     N_2   0.842742 0.797745 0.811227 -0.292023
H10   H     H_    0.856051 0.773729 0.881382 0.250226
C31   C     C_3   0.857427 0.932202 0.798573 -0.760531
H11   H     H_    0.780980 0.986583 0.852679 0.240734
H12   H     H_    0.841082 0.954759 0.722569 0.219661
H13   H     H_    0.959318 0.963383 0.812141 0.261985
N5    N     N_2   0.123856 0.774104 0.793648 -0.302760
H14   H     H_    0.214430 0.810928 0.763903 0.217724
C32   C     C_3   0.129373 0.718718 0.887294 -0.741114
H15   H     H_    0.236135 0.696424 0.895440 0.237054
H16   H     H_    0.071117 0.630261 0.893104 0.235856
H17   H     H_    0.087252 0.788020 0.948925 0.252669
N6    N     N_2   0.170987 0.341339 0.365516 -0.260061
H18   H     H_    0.150019 0.247719 0.376216 0.249261
C33   C     C_3   0.193354 0.368118 0.261801 -0.728809
H19   H     H_    0.127259 0.309454 0.218830 0.206937
H20   H     H_    0.299774 0.343011 0.230766 0.253923
H21   H     H_    0.173658 0.469973 0.252441 0.269412
N7    N     N_2   0.690105 0.485639 0.953744 -0.303608
H22   H     H_    0.696809 0.523806 0.885669 0.236422
C34   C     C_3   0.814499 0.493309 0.997427 -0.776373
H23   H     H_    0.901886 0.469052 0.939208 0.244363
H24   H     H_    0.815313 0.424434 0.055399 0.253356
H25   H     H_    0.826077 0.590997 0.029967 0.244575
C35   C     C_2   0.743735 0.873300 0.409719 0.516909
H26   H     H_    0.842460 0.882066 0.433378 0.078675
O10   O     O_2   0.734455 0.807538 0.333911 -0.570022
C36   C     C_2   0.263189 0.230422 0.683303 0.452984
H27   H     H_    0.359370 0.255353 0.706864 0.016196
O11   O     O_2   0.161196 0.290492 0.720669 -0.580086
C37   C     C_2   0.752229 0.115053 0.538699 0.423494
H28   H     H_    0.747620 0.178928 0.604914 0.068972
O12   O     O_2   0.861208 0.095402 0.487066 -0.588208
C38   C     C_2   0.887456 0.369040 0.344338 0.517296
H29   H     H_    0.908199 0.406611 0.271845 0.020463
O13   O     O_2   0.820325 0.274437 0.353691 -0.509884

loop_
_geom_bond_atom_site_label_1
_geom_bond_atom_site_label_2
_geom_bond_distance
_ccdc_geom_bond_type
N6    C33   1.448596 S    
C38   H29   1.084850 S    
N1    C27   1.370628 A    
C22   C23   1.385646 A    
C6    N7    1.439351 S    
C36   H27   1.083513 S    
C29   H5    1.085608 S    
C5    C9    1.188416 T    
C15   C16   1.396986 A    
C16   C17   1.420940 A    
C34   H24   1.110782 S    
C21   C26   1.473648 A    
C23   C24   1.367736 A    
C24   H4    1.054914 S    
C37   O12   1.218697 D    
C6    C9    1.425758 S    
C17   C18   1.409337 A    
O7    C4    1.299587 A    
C35   O10   1.221441 D    
C31   H11   1.109886 S    
N5    C32   1.446881 S    
C21   C22   1.433435 A    
O5    C3    1.309417 A    
C32   H16   1.111520 S    
C6    C7    1.354929 D    
C34   H25   1.111078 S    
C30   H8    1.109268 S    
C12   H2    1.081534 S    
N3    C30   1.455975 S    
N6    H18   1.031454 S    
C11   H1    1.080688 S    
C22   N4    1.427337 S    
O3    Zn1   1.954714 S    
C36   O11   1.221555 D    
C30   H7    1.107168 S    
C29   O9    1.220701 D    
C19   C37   1.492365 S    
N4    C31   1.451661 S    
C30   H9    1.108118 S    
C34   H23   1.110255 S    
C14   C36   1.482989 S    
Zn2   N1    2.036696 S    
N7    C34   1.448487 S    
C25   C26   1.439545 A    
C35   H26   1.080574 S    
C33   H19   1.110326 S    
C13   H3    1.083061 S    
C11   C16   1.415997 A    
N5    H14   1.032506 S    
O1    C1    1.292337 A    
C1    C17   1.458895 S    
Zn1   O7    1.916966 S    
C28   N2    1.371670 A    
C3    C20   1.459098 S    
C32   H15   1.108638 S    
C18   C19   1.394982 A    
Zn2   O8    1.954714 S    
C7    C8    1.417121 S    
Zn1   N2    2.034455 S    
C37   H28   1.085877 S    
O3    C2    1.293285 A    
C26   N1    1.429456 A    
O8    C4    1.293026 A    
C15   C20   1.407935 A    
C11   C12   1.390332 A    
C21   N3    1.415737 S    
C27   C28   1.433133 A    
C18   C35   1.491893 S    
Zn1   O5    1.969495 S    
N4    H10   1.030669 S    
N3    H6    1.030512 S    
C32   H17   1.109402 S    
O1    Zn1   1.982320 S    
Zn2   O6    1.982318 S    
O2    Zn2   1.969498 S    
C7    C29   1.487178 S    
N7    H22   1.030813 S    
C23   N5    1.425447 S    
O6    C3    1.295092 A    
O4    Zn2   1.916966 S    
C33   H21   1.110758 S    
C25   N2    1.356515 A    
C13   C14   1.403031 A    
C2    C10   1.404075 S    
C31   H13   1.109148 S    
C19   C20   1.411948 A    
C38   O13   1.217730 D    
O2    C1    1.313574 A    
C24   C25   1.391602 A    
O4    C2    1.300213 A    
C28   N6    1.423306 S    
C31   H12   1.110943 S    
C8    C10   1.187684 T    
C12   C13   1.388321 A    
C33   H20   1.108950 S    
C14   C15   1.427659 A    
C4    C5    1.403834 S    
C27   C38   1.471259 S    
