data_mof_unit_45846.cif
_audit_creation_date              2012-12-11T16:38:04-0500
_audit_creation_method            fapswitch 2.2
_symmetry_space_group_name_H-M    P1
_symmetry_Int_Tables_number       1
_space_group_crystal_system       triclinic
_cell_length_a                    8.262034
_cell_length_b                    17.327773
_cell_length_c                    19.09188
_cell_angle_alpha                 98.806678
_cell_angle_beta                  91.916927
_cell_angle_gamma                 96.139187
_cell_volume                      2682.07540086

loop_
_atom_site_label
_atom_site_type_symbol
_atom_type_description
_atom_site_fract_x
_atom_site_fract_y
_atom_site_fract_z
_atom_type_partial_charge
Ba1   Ba    Ba6+2 0.849990 0.533510 0.465310 1.657601
Ba2   Ba    Ba6+2 0.339840 0.466550 0.534700 1.666947
C1    C     C_3   0.680296 0.825284 0.295776 -0.349111
C2    C     C_R   0.015682 0.528101 0.726232 0.054707
C3    C     C_R   0.858637 0.432333 0.812418 -0.093654
C4    C     C_3   0.106032 0.699476 0.272013 0.350054
C5    C     C_R   0.792326 0.434783 0.744409 -0.026847
C6    C     C_R   0.333068 0.568868 0.188364 -0.166276
C7    C     C_R   0.402219 0.562697 0.254978 0.007704
C8    C     C_R   0.139569 0.457402 0.198942 -0.146882
C9    C     C_R   0.174462 0.471683 0.273239 0.050628
C10   C     C_R   0.980911 0.492310 0.845604 0.015538
C11   C     C_R   0.882393 0.475342 0.699249 -0.248839
C12   C     C_3   0.640300 0.744254 0.316296 0.359617
C13   C     C_R   0.207682 0.511133 0.154609 0.005020
C14   C     C_R   0.313033 0.520920 0.299656 -0.246188
C15   C     C_R   0.760671 0.455694 0.960586 -0.062251
C16   C     C_3   0.077716 0.724292 0.199900 -0.345903
C17   C     C_R   0.658628 0.423773 0.007592 -0.037109
C18   C     C_R   0.708736 0.432909 0.078177 -0.065586
C19   C     C_R   0.863272 0.469827 0.099798 -0.083729
C20   C     C_R   0.983259 0.484468 0.051128 0.024941
C21   C     C_R   0.929035 0.478900 0.977824 0.051382
C22   C     C_R   0.150226 0.507438 0.075255 -0.004113
C23   C     C_3   0.480366 0.346687 0.318481 0.304582
C24   C     C_R   0.260294 0.527640 0.022443 0.037741
C25   C     C_R   0.206098 0.523023 0.949078 0.056287
C26   C     C_R   0.039082 0.498538 0.924934 0.049666
C27   C     C_R   0.428420 0.550823 0.039928 -0.099224
C28   C     C_3   0.223134 0.708051 0.619974 0.325449
C29   C     C_R   0.530735 0.583788 0.993724 -0.058922
C30   C     C_R   0.480803 0.576675 0.923407 -0.042365
C31   C     C_R   0.326399 0.540357 0.900841 -0.035510
C32   C     C_R   0.405342 0.717637 0.469965 -0.295336
C33   C     C_R   0.552303 0.745422 0.507994 0.052033
C34   C     C_3   0.463512 0.324658 0.238171 -0.374830
C35   C     C_R   0.611872 0.825180 0.514755 -0.115476
C36   C     C_R   0.522415 0.877245 0.484385 -0.009766
C37   C     C_R   0.370103 0.849456 0.449217 -0.132774
C38   C     C_R   0.310983 0.769578 0.443044 0.007178
C39   C     C_R   0.592058 0.162145 0.480058 -0.122305
C40   C     C_3   0.249275 0.797252 0.637630 -0.344448
C41   C     C_R   0.642932 0.242766 0.488884 0.026529
C42   C     C_R   0.886845 0.224138 0.555252 -0.013449
C43   C     C_R   0.840273 0.142477 0.543609 -0.131214
C44   C     C_R   0.689292 0.111732 0.508396 0.007319
C45   C     C_3   0.031184 0.250006 0.726252 0.762005
C46   C     C_1   0.634071 0.028661 0.499724 0.000854
C47   C     C_1   0.583735 0.959601 0.492477 0.004254
C48   C     C_R   0.785615 0.273721 0.529101 -0.270806
C49   C     C_3   0.972468 0.291082 0.379403 0.314286
C50   C     C_3   0.950669 0.201895 0.361196 -0.381012
C51   C     C_3   0.716303 0.641547 0.679774 0.312762
C52   C     C_3   0.679728 0.653332 0.758299 0.369971
C53   C     C_3   0.937934 0.168588 0.725157 -0.296633
C54   C     C_3   0.547099 0.255341 0.680551 0.407680
C55   C     C_3   0.504999 0.173229 0.698573 -0.273840
C56   C     C_R   0.046078 0.545502 0.800578 -0.135367
H1    H     H_    0.701163 0.743580 0.368936 0.078285
H2    H     H_    0.848183 0.640248 0.674204 0.008634
H3    H     H_    0.650509 0.583818 0.655662 -0.017515
H4    H     H_    0.813926 0.838767 0.292503 0.154875
H5    H     H_    0.715124 0.602539 0.781844 -0.096728
H6    H     H_    0.546929 0.655828 0.763985 0.028145
H7    H     H_    0.506076 0.733925 0.319948 -0.077213
H8    H     H_    0.636534 0.870454 0.336153 0.070830
H9    H     H_    0.362873 0.364422 0.337888 0.010034
H10   H     H_    0.576872 0.397106 0.331536 0.076190
H11   H     H_    0.363163 0.276362 0.222921 0.135995
H12   H     H_    0.342848 0.815567 0.681879 0.151321
H13   H     H_    0.435852 0.376320 0.213935 0.056913
H14   H     H_    0.579222 0.305327 0.217588 0.131787
H15   H     H_    0.619472 0.827505 0.243474 0.117181
H16   H     H_    0.114107 0.679426 0.157234 0.071396
H17   H     H_    0.946339 0.293426 0.717266 -0.198130
H18   H     H_    0.023836 0.123377 0.724484 0.123669
H19   H     H_    0.863518 0.167620 0.772419 0.130326
H20   H     H_    0.852615 0.152881 0.678479 0.013803
H21   H     H_    0.680841 0.264727 0.675572 -0.127688
H22   H     H_    0.484776 0.258484 0.628800 0.067027
H23   H     H_    0.290920 0.823010 0.590865 0.050467
H24   H     H_    0.563339 0.169003 0.750862 0.135941
H25   H     H_    0.549338 0.129174 0.657316 0.042891
H26   H     H_    0.036819 0.640696 0.271676 0.078009
H27   H     H_    0.371360 0.159377 0.700659 0.166199
H28   H     H_    0.126456 0.597860 0.821772 0.103173
H29   H     H_    0.807547 0.385602 0.839190 0.124331
H30   H     H_    0.382986 0.617184 0.163133 0.074972
H31   H     H_    0.054096 0.407021 0.177407 0.077434
H32   H     H_    0.841580 0.470263 0.644128 0.064182
H33   H     H_    0.356551 0.523294 0.354107 0.067255
H34   H     H_    0.133184 0.820188 0.653532 0.148576
H35   H     H_    0.700187 0.465842 0.912834 0.068659
H36   H     H_    0.533497 0.401436 0.991098 0.119003
H37   H     H_    0.623301 0.417579 0.116948 0.084792
H38   H     H_    0.238358 0.696179 0.280428 -0.061701
H39   H     H_    0.885629 0.488053 0.155160 0.129015
H40   H     H_    0.489017 0.539713 0.087182 0.080085
H41   H     H_    0.655896 0.605733 0.010528 0.096844
H42   H     H_    0.566558 0.593278 0.885394 0.105383
H43   H     H_    0.307049 0.524818 0.844907 0.123790
H44   H     H_    0.479756 0.138645 0.449656 0.077341
H45   H     H_    0.854483 0.311830 0.393954 0.000135
H46   H     H_    0.296684 0.889718 0.428317 0.080100
H47   H     H_    0.920672 0.103388 0.561800 0.074705
H48   H     H_    0.725757 0.846764 0.544640 0.096703
H49   H     H_    0.358631 0.656263 0.465829 0.070225
H50   H     H_    0.946912 0.730601 0.190369 0.159527
H51   H     H_    0.824086 0.336202 0.535548 0.061538
H52   H     H_    0.151094 0.781371 0.197756 0.117613
H53   H     H_    0.340528 0.685965 0.606476 -0.006753
H54   H     H_    0.133829 0.691302 0.573994 0.057300
H55   H     H_    0.041296 0.789316 0.824709 0.372197
H56   H     H_    0.062802 0.308464 0.424895 0.072364
H57   H     H_    0.191421 0.390609 0.775084 0.317399
H58   H     H_    0.854590 0.182783 0.318094 0.131566
H59   H     H_    0.914745 0.175214 0.408165 0.067817
H60   H     H_    0.067058 0.180620 0.343511 0.129674
O1    O     O_2   0.880230 0.446130 0.326290 -0.467394
O2    O     O_2   0.215459 0.232701 0.544962 -0.486743
O3    O     O_3   0.154430 0.246422 0.676895 -0.609582
O4    O     O_3   0.127880 0.453050 0.414940 -0.492461
O5    O     O_3   0.568990 0.594210 0.536150 -0.491585
O6    O     O_2   0.359830 0.311600 0.465710 -0.451971
O7    O     O_3   0.521156 0.281679 0.348282 -0.638134
O8    O     O_2   0.472226 0.463490 0.759550 -0.494536
O9    O     O_3   0.495695 0.311294 0.734038 -0.511716
O10   O     O_3   0.652660 0.587690 0.369690 -0.476257
O11   O     O_2   0.724916 0.536420 0.242269 -0.506679
O12   O     O_3   0.666849 0.703839 0.648435 -0.608156
O13   O     O_3   0.026281 0.321672 0.319592 -0.631656
O14   O     O_3   0.696868 0.687644 0.265021 -0.593600
O15   O     O_2   0.829870 0.688430 0.534340 -0.462288
O16   O     O_3   0.069940 0.629350 0.405460 -0.488562
O17   O     O_2   0.979558 0.769624 0.456825 -0.484859
O18   O     O_2   0.736740 0.811522 0.778621 -0.259379
O19   O     O_2   0.751604 0.746279 0.883575 -0.291071
O20   O     O_3   0.989927 0.738434 0.798332 -0.525522
O21   O     O_2   0.002180 0.284000 0.868142 -0.312150
O22   O     O_2   0.244572 0.223919 0.827636 -0.244996
O23   O     O_3   0.052146 0.755130 0.324734 -0.595269
O24   O     O_3   0.231059 0.370295 0.817457 -0.467318
O25   O     O_2   0.309470 0.553890 0.673760 -0.483143
O26   O     O_3   0.061830 0.547010 0.585070 -0.500586
O27   O     O_3   0.537040 0.412370 0.630320 -0.478898
O28   O     O_3   0.165065 0.678424 0.679588 -0.583559
O29   O     O_3   0.620720 0.405850 0.463860 -0.483610
O30   O     O_3   0.119760 0.370720 0.594550 -0.469700
P1    P     P_3+3 0.050120 0.424430 0.337400 0.978971
P2    P     P_3+3 0.655220 0.678730 0.555760 0.999415
P3    P     P_3+3 0.103705 0.731417 0.407828 0.946640
P4    P     P_3+3 0.139590 0.575630 0.662610 1.003134
P5    P     P_3+3 0.089131 0.268258 0.594284 0.936661
P6    P     P_3+3 0.617554 0.594831 0.281195 0.935152
P7    P     P_3+3 0.537930 0.307884 0.440726 0.945059
P8    P     P_3+3 0.575850 0.404394 0.718627 0.992501
S1    S     S_3+6 0.788682 0.740987 0.806578 -0.057563
S2    S     S_3+6 0.127729 0.280943 0.812923 -0.029443

loop_
_geom_bond_atom_site_label_1
_geom_bond_atom_site_label_2
_ccdc_geom_bond_type
O1    P1    D    
C11   H32   S    
Ba2   O26   S    
C17   C18   A    
C23   H9    S    
Ba1   O10   S    
C37   H46   S    
H55   O20   S    
C36   C47   S    
C12   O14   S    
Ba2   O5    S    
C25   C31   A    
Ba2   O27   S    
C12   H1    S    
C40   H23   S    
C24   C25   A    
C15   C21   A    
C54   H21   S    
O3    P5    S    
C27   H40   S    
C10   C26   S    
C32   C38   A    
C32   H49   S    
C33   C35   A    
C7    C14   A    
C22   C24   A    
C32   C33   A    
C8    C13   A    
O11   P6    D    
C53   H19   S    
Ba1   O15   S    
C45   O3    S    
C52   H5    S    
C49   H45   S    
C40   H12   S    
C54   C55   S    
Ba1   Ba2   S    
Ba1   O1    S    
C54   O9    S    
C2    C11   A    
C23   O7    S    
Ba1   O4    S    
O22   S2    D    
O27   P8    S    
C51   H3    S    
C9    P1    S    
C5    P8    S    
C8    H31   S    
C6    C7    A    
O12   P2    S    
O14   P6    S    
C39   C44   A    
C55   H25   S    
Ba1   P1    S    
C33   P2    S    
C29   H41   S    
O29   P7    S    
C40   H34   S    
C34   H13   S    
O10   P6    S    
C10   C56   A    
C50   H59   S    
Ba2   O4    S    
H57   O24   S    
C16   H16   S    
C19   C20   A    
Ba2   O25   S    
C39   C41   A    
C23   H10   S    
O24   S2    S    
C41   P7    S    
C56   H28   S    
C4    O23   S    
C51   H2    S    
C43   H47   S    
C28   O28   S    
C50   H58   S    
Ba2   P4    S    
C4    C16   S    
C44   C46   S    
C49   H56   S    
C4    H26   S    
C49   C50   S    
O4    P1    S    
O21   S2    D    
C3    C10   A    
C37   C38   A    
C3    C5    A    
C53   H20   S    
C49   O13   S    
Ba2   O29   S    
C43   C44   A    
C48   H51   S    
C30   H42   S    
C38   P3    S    
C28   H54   S    
C6    H30   S    
Ba1   O5    S    
C35   C36   A    
C19   H39   S    
C9    C14   A    
C29   C30   A    
C39   H44   S    
Ba1   P2    S    
C21   C26   A    
C2    P4    S    
C17   H36   S    
C1    C12   S    
C14   H33   S    
O28   P4    S    
O18   S1    D    
C13   C22   S    
C18   H37   S    
C7    P6    S    
C6    C13   A    
C4    H38   S    
C31   H43   S    
O13   P1    S    
C1    H8    S    
C15   H35   S    
O30   P5    S    
C42   P5    S    
Ba1   O16   S    
C42   C43   A    
O23   P3    S    
C45   C53   S    
C1    H4    S    
C42   C48   A    
O17   P3    D    
O25   P4    D    
C20   C21   A    
O15   P2    D    
C16   H52   S    
O9    P8    S    
C41   C48   A    
C51   C52   S    
Ba2   O6    S    
C54   H22   S    
O19   S1    D    
C28   H53   S    
C30   C31   A    
C45   H17   S    
C35   H48   S    
O26   P4    S    
Ba1   O26   S    
C52   S1    S    
O20   S1    S    
C36   C37   A    
C52   H6    S    
C46   C47   T    
O16   P3    S    
C53   H18   S    
O2    P5    D    
C15   C17   A    
C12   H7    S    
C55   H27   S    
C20   C22   A    
C34   H11   S    
C1    H15   S    
C16   H50   S    
O5    P2    S    
Ba1   O29   S    
C8    C9    A    
C23   C34   S    
C3    H29   S    
O7    P7    S    
C5    C11   A    
C18   C19   A    
C24   C27   A    
C27   C29   A    
O6    P7    D    
C2    C56   A    
C25   C26   A    
C55   H24   S    
C28   C40   S    
C51   O12   S    
Ba2   O30   S    
C34   H14   S    
C50   H60   S    
C45   S2    S    
O8    P8    D    
