data_mof_unit_10586.cif
_audit_creation_date              2012-12-11T14:38:10-0500
_audit_creation_method            fapswitch 2.2
_symmetry_space_group_name_H-M    P1
_symmetry_Int_Tables_number       1
_space_group_crystal_system       triclinic
_cell_length_a                    19.401556
_cell_length_b                    11.268554
_cell_length_c                    19.584601
_cell_angle_alpha                 90.000196
_cell_angle_beta                  96.968553
_cell_angle_gamma                 90.000029
_cell_volume                      4250.10236946

loop_
_atom_site_label
_atom_site_type_symbol
_atom_type_description
_atom_site_fract_x
_atom_site_fract_y
_atom_site_fract_z
_atom_type_partial_charge
C1    C     C_R   0.727176 0.949316 0.358223 0.534491
C2    C     C_R   0.272823 0.949314 0.641778 0.534479
C3    C     C_R   0.227176 0.449316 0.358223 0.534489
C4    C     C_R   0.772824 0.449315 0.641777 0.534489
C5    C     C_3   0.664711 0.404208 0.463233 -0.219975
C6    C     C_3   0.335292 0.404202 0.536767 -0.219980
C7    C     C_3   0.164711 0.904211 0.463232 -0.219965
C8    C     C_3   0.835290 0.904204 0.536767 -0.219980
C9    C     C_3   0.814527 0.447851 0.531340 -0.271352
C10   C     C_3   0.185474 0.447846 0.468661 -0.271355
C11   C     C_3   0.314527 0.947845 0.531341 -0.271350
C12   C     C_3   0.685473 0.947850 0.468660 -0.271353
C13   C     C_3   0.751499 0.269907 0.565839 0.013628
C14   C     C_3   0.248504 0.269904 0.434158 0.013628
C15   C     C_3   0.251491 0.769904 0.565839 0.013624
C16   C     C_3   0.748503 0.769906 0.434159 0.013628
C17   C     C_3   0.753100 0.406063 0.571777 0.102960
C18   C     C_3   0.246901 0.406062 0.428223 0.102960
C19   C     C_3   0.253098 0.906061 0.571777 0.102963
C20   C     C_3   0.746900 0.906064 0.428223 0.102960
C21   C     C_3   0.732573 0.351761 0.441128 0.023878
C22   C     C_3   0.267429 0.351755 0.558871 0.023879
C23   C     C_3   0.232573 0.851760 0.441128 0.023880
C24   C     C_3   0.767427 0.851758 0.558871 0.023877
C25   C     C_3   0.790576 0.445457 0.454583 -0.274705
C26   C     C_3   0.209426 0.445452 0.545417 -0.274703
C27   C     C_3   0.290578 0.945453 0.454585 -0.274711
C28   C     C_3   0.709424 0.945454 0.545417 -0.274703
C29   C     C_3   0.752987 0.243274 0.487745 -0.231163
C30   C     C_3   0.247015 0.243270 0.512253 -0.231165
C31   C     C_3   0.252984 0.743273 0.487745 -0.231159
C32   C     C_3   0.747012 0.743273 0.512254 -0.231163
C33   C     C_3   0.555757 0.234711 0.953086 -0.251327
C34   C     C_3   0.572470 0.236338 0.031359 -0.217267
C35   C     C_3   0.927574 0.736648 0.968651 -0.217300
C36   C     C_3   0.944279 0.735023 0.046924 -0.251278
C37   C     C_3   0.427575 0.236598 0.968649 -0.217308
C38   C     C_3   0.508841 0.042241 0.039276 -0.235228
C39   C     C_3   0.990900 0.542237 0.960768 -0.235149
C40   C     C_3   0.072481 0.736295 0.031359 -0.217257
C41   C     C_3   0.490940 0.042250 0.960761 -0.235175
C42   C     C_3   0.444278 0.234974 0.046922 -0.251288
C43   C     C_3   0.055768 0.734671 0.953086 -0.251320
C44   C     C_3   0.008801 0.542229 0.039282 -0.235231
C45   C     C_R   0.536347 0.180377 0.338449 0.524685
C46   C     C_R   0.463653 0.180377 0.661551 0.524701
C47   C     C_R   0.036347 0.680377 0.338449 0.524685
C48   C     C_R   0.963653 0.680377 0.661551 0.524699
C49   C     C_3   0.485547 0.172245 0.933795 0.054671
C50   C     C_3   0.514411 0.172242 0.066221 0.054749
C51   C     C_3   0.985537 0.672244 0.933798 0.054697
C52   C     C_3   0.014402 0.672240 0.066224 0.054772
C53   C     C_1   0.761838 0.427526 0.904293 -0.013959
C54   C     C_1   0.238162 0.427528 0.095706 -0.013944
C55   C     C_1   0.261837 0.927525 0.904293 -0.013954
C56   C     C_1   0.738162 0.927527 0.095706 -0.013948
C57   C     C_1   0.747988 0.406795 0.034629 -0.054879
C58   C     C_1   0.252011 0.406800 0.965370 -0.054871
C59   C     C_1   0.247987 0.906793 0.034629 -0.054878
C60   C     C_1   0.752012 0.906798 0.965370 -0.054874
C61   C     C_1   0.753802 0.416299 0.963889 -0.051952
C62   C     C_1   0.246197 0.416302 0.036110 -0.051942
C63   C     C_1   0.253801 0.916297 0.963888 -0.051948
C64   C     C_1   0.746198 0.916301 0.036111 -0.051944
C65   C     C_1   0.743541 0.392411 0.094793 -0.018993
C66   C     C_1   0.256458 0.392415 0.905206 -0.018987
C67   C     C_1   0.243541 0.892410 0.094793 -0.018992
C68   C     C_1   0.756458 0.892414 0.905206 -0.018991
C69   C     C_R   0.725062 0.314799 0.367840 0.556944
C70   C     C_R   0.274939 0.314795 0.632160 0.556939
C71   C     C_R   0.225062 0.814799 0.367840 0.556940
C72   C     C_R   0.774939 0.814796 0.632160 0.556940
C73   C     C_R   0.722499 0.954110 0.163483 0.533175
C74   C     C_R   0.277500 0.954110 0.836516 0.533168
C75   C     C_R   0.222499 0.454111 0.163483 0.533178
C76   C     C_R   0.777501 0.454111 0.836516 0.533166
C77   C     C_R   0.534330 0.179200 0.140293 0.538874
C78   C     C_R   0.465644 0.179203 0.859719 0.538899
C79   C     C_R   0.034325 0.679199 0.140295 0.538869
C80   C     C_R   0.965638 0.679203 0.859721 0.538909
C81   C     C_R   0.736226 0.358436 0.163841 0.548438
C82   C     C_R   0.263773 0.358438 0.836159 0.548436
C83   C     C_R   0.236226 0.858435 0.163841 0.548438
C84   C     C_R   0.763773 0.858437 0.836159 0.548434
C85   C     C_1   0.485246 0.172257 0.594452 -0.035314
C86   C     C_1   0.514753 0.172258 0.405548 -0.035310
C87   C     C_1   0.985246 0.672257 0.594452 -0.035313
C88   C     C_1   0.014754 0.672258 0.405548 -0.035309
C89   C     C_1   0.504435 0.168176 0.464852 -0.088823
C90   C     C_1   0.495564 0.168176 0.535148 -0.088828
C91   C     C_1   0.004435 0.668176 0.464852 -0.088820
C92   C     C_1   0.995564 0.668176 0.535148 -0.088819
C93   C     C_3   0.680430 0.454184 0.537239 -0.072308
C94   C     C_3   0.319571 0.454185 0.462762 -0.072303
C95   C     C_3   0.180429 0.954188 0.537238 -0.072296
C96   C     C_3   0.819570 0.954186 0.462762 -0.072305
Cr1   Cr    Cr6+3 0.765780 0.160710 0.267420 0.997489
Cr2   Cr    Cr6+3 0.234220 0.160710 0.732580 0.997506
Cr3   Cr    Cr6+3 0.265780 0.660710 0.267420 0.997495
Cr4   Cr    Cr6+3 0.734220 0.660710 0.732580 0.997504
Cr5   Cr    Cr6+3 0.612200 0.009560 0.248850 1.002937
Cr6   Cr    Cr6+3 0.387800 0.009560 0.751150 1.002940
Cr7   Cr    Cr6+3 0.112200 0.509560 0.248850 1.002933
Cr8   Cr    Cr6+3 0.887800 0.509560 0.751150 1.002938
Cr9   Cr    Cr6+3 0.616030 0.323720 0.248510 0.999726
Cr10  Cr    Cr6+3 0.383970 0.323720 0.751490 0.999731
Cr11  Cr    Cr6+3 0.116030 0.823720 0.248510 0.999729
Cr12  Cr    Cr6+3 0.883970 0.823720 0.751490 0.999727
H1    H     H_    0.688193 0.547818 0.531645 0.133988
H2    H     H_    0.311805 0.547817 0.468361 0.133984
H3    H     H_    0.188196 0.047820 0.531645 0.133985
H4    H     H_    0.811804 0.047818 0.468361 0.133984
H5    H     H_    0.807580 0.223750 0.480585 0.103241
H6    H     H_    0.192421 0.223746 0.519411 0.103239
H7    H     H_    0.307577 0.723747 0.480588 0.103238
H8    H     H_    0.692419 0.723748 0.519412 0.103239
H9    H     H_    0.858844 0.384681 0.541482 0.131767
H10   H     H_    0.141157 0.384675 0.458518 0.131767
H11   H     H_    0.358843 0.884672 0.541485 0.131769
H12   H     H_    0.641156 0.884680 0.458517 0.131768
H13   H     H_    0.836302 0.429055 0.426716 0.158710
H14   H     H_    0.163701 0.429051 0.573284 0.158709
H15   H     H_    0.336303 0.929048 0.426719 0.158710
H16   H     H_    0.663699 0.929052 0.573284 0.158711
H17   H     H_    0.554036 0.327486 0.933395 0.141404
H18   H     H_    0.623477 0.192230 0.046256 0.120414
H19   H     H_    0.876500 0.692765 0.953757 0.120403
H20   H     H_    0.946139 0.827827 0.066599 0.141464
H21   H     H_    0.597455 0.187217 0.929754 0.115043
H22   H     H_    0.578010 0.330476 0.048433 0.150516
H23   H     H_    0.922185 0.830796 0.951568 0.150545
H24   H     H_    0.902497 0.687743 0.070263 0.115014
H25   H     H_    0.422165 0.330734 0.951567 0.150550
H26   H     H_    0.558981 0.994726 0.052728 0.151117
H27   H     H_    0.940682 0.494955 0.947320 0.151075
H28   H     H_    0.078045 0.830437 0.048432 0.150505
H29   H     H_    0.446115 0.327771 0.066599 0.141457
H30   H     H_    0.531548 0.993180 0.936670 0.127977
H31   H     H_    0.968107 0.493374 0.063385 0.127877
H32   H     H_    0.054069 0.827454 0.933393 0.141385
H33   H     H_    0.440739 0.994939 0.947312 0.151089
H34   H     H_    0.402509 0.187663 0.070259 0.115020
H35   H     H_    0.097460 0.687140 0.929754 0.115039
H36   H     H_    0.058932 0.494675 0.052734 0.151117
H37   H     H_    0.468162 0.993356 0.063376 0.127896
H38   H     H_    0.376516 0.192687 0.953753 0.120411
H39   H     H_    0.123480 0.692149 0.046257 0.120413
H40   H     H_    0.031500 0.493127 0.936677 0.127982
H41   H     H_    0.624642 0.333381 0.459817 0.132585
H42   H     H_    0.375359 0.333375 0.540179 0.132579
H43   H     H_    0.124640 0.833388 0.459815 0.132596
H44   H     H_    0.875358 0.833377 0.540180 0.132579
H45   H     H_    0.643912 0.477162 0.428312 0.123085
H46   H     H_    0.356092 0.477152 0.571689 0.123090
H47   H     H_    0.143914 0.977167 0.428310 0.123084
H48   H     H_    0.856090 0.977156 0.571689 0.123088
H49   H     H_    0.341208 0.030735 0.548728 0.115546
H50   H     H_    0.658793 0.030740 0.451275 0.115541
H51   H     H_    0.841207 0.530741 0.548727 0.115541
H52   H     H_    0.158793 0.530736 0.451276 0.115539
H53   H     H_    0.267670 0.030845 0.437995 0.152911
H54   H     H_    0.732335 0.030843 0.562008 0.152911
H55   H     H_    0.767666 0.530846 0.437993 0.152912
H56   H     H_    0.232338 0.530840 0.562009 0.152886
H57   H     H_    0.799011 0.229893 0.594642 0.136577
H58   H     H_    0.200994 0.229888 0.405354 0.136590
H59   H     H_    0.299001 0.729884 0.594644 0.136572
H60   H     H_    0.700992 0.729892 0.405355 0.136579
H61   H     H_    0.720141 0.170084 0.470436 0.096387
H62   H     H_    0.279861 0.170079 0.529560 0.096387
H63   H     H_    0.220139 0.670083 0.470434 0.096382
H64   H     H_    0.779857 0.670081 0.529561 0.096387
O1    O     O_R   0.783100 0.287550 0.345460 -0.532496
O2    O     O_R   0.216900 0.287550 0.654540 -0.532482
O3    O     O_R   0.283100 0.787550 0.345460 -0.532497
O4    O     O_R   0.716900 0.787550 0.654540 -0.532482
O5    O     O_R   0.554710 0.081900 0.170950 -0.506478
O6    O     O_R   0.445290 0.081900 0.829050 -0.506478
O7    O     O_R   0.054710 0.581900 0.170950 -0.506477
O8    O     O_R   0.945290 0.581900 0.829050 -0.506479
O9    O     O_R   0.545650 0.284910 0.163740 -0.524274
O10   O     O_R   0.454350 0.284910 0.836260 -0.524268
O11   O     O_R   0.045650 0.784910 0.163740 -0.524275
O12   O     O_R   0.954350 0.784910 0.836260 -0.524267
O13   O     O_R   0.677950 0.374280 0.185410 -0.495852
O14   O     O_R   0.322050 0.374280 0.814590 -0.495863
O15   O     O_R   0.177950 0.874280 0.185410 -0.495851
O16   O     O_R   0.822050 0.874280 0.814590 -0.495866
O17   O     O_3   0.664670 0.164660 0.254930 -0.269317
O18   O     O_3   0.335330 0.164660 0.745070 -0.269332
O19   O     O_3   0.164670 0.664660 0.254930 -0.269316
O20   O     O_3   0.835330 0.664660 0.745070 -0.269334
O21   O     O_R   0.760020 0.037400 0.337700 -0.531243
O22   O     O_R   0.239980 0.037400 0.662300 -0.531244
O23   O     O_R   0.260020 0.537400 0.337700 -0.531239
O24   O     O_R   0.739980 0.537400 0.662300 -0.531243
O25   O     O_R   0.666600 0.921990 0.332020 -0.531481
O26   O     O_R   0.333400 0.921990 0.667980 -0.531478
O27   O     O_R   0.166600 0.421990 0.332020 -0.531487
O28   O     O_R   0.833400 0.421990 0.667980 -0.531479
O29   O     O_R   0.557260 0.082670 0.312540 -0.494942
O30   O     O_R   0.442740 0.082670 0.687460 -0.494937
O31   O     O_R   0.057260 0.582670 0.312540 -0.494946
O32   O     O_R   0.942740 0.582670 0.687460 -0.494936
O33   O     O_R   0.548410 0.285740 0.316480 -0.523311
O34   O     O_R   0.451590 0.285740 0.683520 -0.523302
O35   O     O_R   0.048410 0.785740 0.316480 -0.523310
O36   O     O_R   0.951590 0.785740 0.683520 -0.523301
O37   O     O_R   0.680500 0.375040 0.327000 -0.507840
O38   O     O_R   0.319500 0.375040 0.673000 -0.507837
O39   O     O_R   0.180500 0.875040 0.327000 -0.507836
O40   O     O_R   0.819500 0.875040 0.673000 -0.507840
O41   O     O_R   0.780350 0.286720 0.192720 -0.505175
O42   O     O_R   0.219650 0.286720 0.807280 -0.505167
O43   O     O_R   0.280350 0.786720 0.192720 -0.505174
O44   O     O_R   0.719650 0.786720 0.807280 -0.505167
O45   O     O_R   0.757470 0.036630 0.196110 -0.498851
O46   O     O_R   0.242530 0.036630 0.803890 -0.498845
O47   O     O_R   0.257470 0.536630 0.196110 -0.498848
O48   O     O_R   0.742530 0.536630 0.803890 -0.498843
O49   O     O_R   0.663840 0.921160 0.179280 -0.514614
O50   O     O_R   0.336160 0.921160 0.820720 -0.514629
O51   O     O_R   0.163840 0.421160 0.179280 -0.514616
O52   O     O_R   0.836160 0.421160 0.820720 -0.514634
C97   C     C_3   0.617027 0.440519 0.578771 -0.247491
C98   C     C_3   0.572101 0.552222 0.574571 -0.466871
H65   H     H_    0.600506 0.625806 0.603359 0.172106
H66   H     H_    0.559067 0.579580 0.520138 0.136540
H67   H     H_    0.523394 0.534759 0.597381 0.145744
H68   H     H_    0.583554 0.365177 0.559332 0.169874
H69   H     H_    0.633423 0.421602 0.633884 0.189224
C99   C     C_3   0.382972 0.440531 0.421227 -0.247491
C100  C     C_3   0.427879 0.552255 0.425405 -0.466862
H70   H     H_    0.399459 0.625815 0.396608 0.172141
H71   H     H_    0.440914 0.579645 0.479834 0.136524
H72   H     H_    0.476587 0.534804 0.402593 0.145730
H73   H     H_    0.416459 0.365211 0.440676 0.169855
H74   H     H_    0.366575 0.421582 0.366118 0.189238
C101  C     C_3   0.117025 0.940530 0.578769 -0.247484
C102  C     C_3   0.072100 0.052232 0.574562 -0.466882
H75   H     H_    0.100504 0.125820 0.603347 0.172104
H76   H     H_    0.059067 0.079584 0.520127 0.136541
H77   H     H_    0.023391 0.034773 0.597371 0.145742
H78   H     H_    0.083553 0.865186 0.559332 0.169894
H79   H     H_    0.133419 0.921619 0.633882 0.189223
C103  C     C_3   0.882972 0.940530 0.421227 -0.247489
C104  C     C_3   0.927877 0.052256 0.425401 -0.466860
H80   H     H_    0.899456 0.125811 0.396600 0.172144
H81   H     H_    0.940911 0.079654 0.479829 0.136522
H82   H     H_    0.976585 0.034803 0.402590 0.145729
H83   H     H_    0.916460 0.865213 0.440678 0.169856
H84   H     H_    0.866574 0.921575 0.366119 0.189229
N1    N     N_2   0.690061 0.221773 0.592270 -0.555510
H85   H     H_    0.653501 0.177720 0.558953 0.257282
C105  C     C_3   0.696847 0.184404 0.663555 -0.320962
H86   H     H_    0.645163 0.158111 0.677402 0.146764
H87   H     H_    0.732643 0.107550 0.671961 0.162122
H88   H     H_    0.716845 0.258053 0.697935 0.161051
N2    N     N_2   0.309944 0.221776 0.407730 -0.555514
H89   H     H_    0.346507 0.177733 0.441046 0.257296
C106  C     C_3   0.303166 0.184411 0.336443 -0.321026
H90   H     H_    0.267436 0.107482 0.328047 0.162130
H91   H     H_    0.283100 0.258008 0.302067 0.161059
H92   H     H_    0.354859 0.158250 0.322583 0.146768
N3    N     N_2   0.190049 0.721778 0.592264 -0.555505
H93   H     H_    0.153506 0.677689 0.558950 0.257287
C107  C     C_3   0.196828 0.684418 0.663550 -0.320977
H94   H     H_    0.145139 0.658150 0.677394 0.146772
H95   H     H_    0.232613 0.607550 0.671959 0.162115
H96   H     H_    0.216835 0.758064 0.697930 0.161048
N4    N     N_2   0.809942 0.721776 0.407732 -0.555512
H97   H     H_    0.846503 0.677729 0.441049 0.257290
C108  C     C_3   0.803160 0.684403 0.336447 -0.320974
H98   H     H_    0.767367 0.607545 0.328040 0.162122
H99   H     H_    0.783161 0.758050 0.302065 0.161045
H100  H     H_    0.854847 0.658115 0.322604 0.146762

loop_
_geom_bond_atom_site_label_1
_geom_bond_atom_site_label_2
_ccdc_geom_bond_type
C58   C62   S    
C39   C51   S    
C105  H87   S    
C67   C83   S    
C47   O31   A    
Cr11  O15   S    
C37   C49   S    
C9    H9    S    
C14   C18   S    
C43   H35   S    
C35   C36   S    
C8    C96   S    
Cr2   O18   S    
C83   O15   A    
Cr7   O19   S    
C9    C25   S    
Cr8   O20   S    
C38   H26   S    
C103  H84   S    
C76   O52   A    
C15   C19   S    
C40   H28   S    
C11   C19   S    
C97   H69   S    
Cr3   O43   S    
C48   O36   A    
C82   O14   A    
C11   H49   S    
C10   H10   S    
Cr8   O32   S    
C13   C29   S    
C16   C20   S    
C8    H44   S    
C25   H55   S    
C72   O40   A    
Cr5   O17   S    
C14   N2    S    
C36   H24   S    
C106  H90   S    
Cr2   O2    S    
C107  H96   S    
Cr5   O25   S    
Cr7   O7    S    
Cr11  O39   S    
C9    H51   S    
Cr9   O13   S    
N4    H97   S    
Cr10  O38   S    
Cr3   O23   S    
C108  H100  S    
Cr9   O37   S    
C49   C78   S    
Cr2   O22   S    
C3    C18   S    
C46   O34   A    
C48   O32   A    
C95   H3    S    
Cr4   O24   S    
Cr1   O21   S    
C37   C42   S    
C12   H50   S    
C51   C80   S    
Cr10  O10   S    
C21   C25   S    
C59   C67   T    
C43   C51   S    
C82   O42   A    
C5    H41   S    
C13   H57   S    
C41   C49   S    
C40   C43   S    
C81   O41   A    
C23   C27   S    
C101  C102  S    
Cr6   O26   S    
C71   O3    A    
C6    C94   S    
C108  H99   S    
C55   C63   T    
C39   H40   S    
C42   H34   S    
C77   O9    A    
C56   C64   T    
C78   O6    A    
C101  H78   S    
C73   O49   A    
C11   C27   S    
C37   H38   S    
C14   H58   S    
C52   C79   S    
N3    H93   S    
Cr11  O35   S    
C36   C52   S    
Cr12  O36   S    
N2    H89   S    
C46   C85   S    
Cr7   O51   S    
C5    C93   S    
C10   C26   S    
C7    H47   S    
Cr1   O17   S    
C32   H64   S    
C105  H88   S    
C75   O51   A    
C12   H12   S    
C87   C92   T    
C42   H29   S    
C99   H74   S    
C102  H76   S    
Cr8   O28   S    
Cr6   O6    S    
C15   H59   S    
Cr4   O20   S    
C69   O1    A    
C14   C30   S    
C25   H13   S    
C31   H7    S    
C22   C70   S    
Cr12  O40   S    
C58   C66   T    
C60   C64   S    
C33   C34   S    
C10   H52   S    
Cr7   O31   S    
C103  H83   S    
C104  H81   S    
C24   C72   S    
C10   C18   S    
C85   C90   T    
C34   C50   S    
Cr1   O1    S    
Cr12  O12   S    
C28   H54   S    
C68   C84   S    
Cr9   O17   S    
Cr6   O18   S    
C74   O46   A    
Cr10  O14   S    
C38   C41   S    
C94   C99   S    
C91   C92   S    
C81   O13   A    
C27   H15   S    
N1    C105  S    
C95   C101  S    
C54   C62   T    
C15   N3    S    
C40   C52   S    
C21   C29   S    
C15   C31   S    
C94   H2    S    
C102  H77   S    
C3    O23   A    
C21   C69   S    
C78   O10   A    
C23   C31   S    
C35   H19   S    
C24   C32   S    
C38   H37   S    
C41   H33   S    
N1    H85   S    
C23   C71   S    
C66   C82   S    
C70   O2    A    
Cr8   O52   S    
C65   C81   S    
C96   C103  S    
C88   C91   T    
C75   O47   A    
C34   H18   S    
C13   N1    S    
C12   C20   S    
C33   H17   S    
C97   C98   S    
C7    H43   S    
C48   C87   S    
C73   O45   A    
C43   H32   S    
Cr7   O27   S    
C32   H8    S    
C3    O27   A    
C57   C61   S    
N3    C107  S    
C34   H22   S    
C41   H30   S    
C6    H46   S    
C42   C50   S    
C30   H62   S    
C4    C17   S    
Cr11  O11   S    
C9    C17   S    
C33   H21   S    
Cr3   O47   S    
C44   H31   S    
C98   H66   S    
C20   C96   S    
Cr2   O46   S    
C35   C51   S    
C99   H73   S    
C18   C94   S    
Cr1   O45   S    
C84   O16   A    
C53   C76   S    
C17   C93   S    
Cr10  O18   S    
C39   C44   S    
Cr11  O19   S    
C105  H86   S    
C50   C77   S    
C80   O8    A    
C16   C32   S    
C36   H20   S    
C16   N4    S    
C19   C95   S    
Cr6   O50   S    
C106  H91   S    
C30   H6    S    
C104  H82   S    
Cr5   O49   S    
C4    O24   A    
C29   H5    S    
C103  C104  S    
Cr4   O44   S    
C1    C20   S    
C45   O33   A    
C56   C73   S    
C22   C30   S    
C11   H11   S    
C2    C19   S    
C2    O26   A    
C53   C61   T    
Cr12  O16   S    
C1    O25   A    
C24   C28   S    
C80   O12   A    
C57   C65   T    
N2    C106  S    
C86   C89   T    
Cr10  O34   S    
C106  H92   S    
C83   O43   A    
C104  H80   S    
C28   H16   S    
Cr9   O33   S    
Cr4   O4    S    
C38   C50   S    
C47   O35   A    
C108  H98   S    
C98   H67   S    
C7    C95   S    
C74   O50   A    
C59   C63   S    
C97   H68   S    
C96   H4    S    
C39   H27   S    
C13   C17   S    
C101  H79   S    
C107  H94   S    
Cr9   O9    S    
C47   C88   S    
N4    C108  S    
C45   C86   S    
Cr6   O30   S    
C35   H23   S    
C55   C74   S    
Cr5   O29   S    
C27   H53   S    
Cr3   O19   S    
C107  H95   S    
C44   C52   S    
Cr8   O8    S    
C7    C23   S    
C31   H63   S    
C16   H60   S    
C5    H45   S    
C26   H56   S    
C99   C100  S    
C8    C24   S    
C79   O11   A    
C29   H61   S    
C69   O37   A    
C37   H25   S    
C72   O4    A    
Cr2   O42   S    
C8    H48   S    
C100  H72   S    
C77   O5    A    
Cr3   O3    S    
Cr5   O5    S    
C60   C68   T    
C2    O22   A    
C54   C75   S    
C6    H42   S    
C93   C97   S    
C4    O28   A    
C79   O7    A    
C5    C21   S    
Cr4   O48   S    
C45   O29   A    
C98   H65   S    
C22   C26   S    
C100  H71   S    
C102  H75   S    
C1    O21   A    
Cr12  O20   S    
C71   O39   A    
Cr1   O41   S    
C44   H36   S    
C26   H14   S    
C70   O38   A    
C12   C28   S    
C89   C90   S    
C76   O48   A    
C33   C49   S    
C40   H39   S    
C84   O44   A    
C100  H70   S    
C93   H1    S    
C46   O30   A    
C6    C22   S    
