data_mof_unit_54875.cif
_audit_creation_date              2013-03-05T15:51:01-0500
_audit_creation_method            fapswitch 2.2
_symmetry_space_group_name_H-M    P1
_symmetry_Int_Tables_number       1
_space_group_crystal_system       triclinic
_cell_length_a                    6.94463
_cell_length_b                    17.834162
_cell_length_c                    18.9674
_cell_angle_alpha                 109.299011
_cell_angle_beta                  90.403227
_cell_angle_gamma                 91.321112
_cell_volume                      2216.2808448

loop_
_atom_site_label
_atom_site_type_symbol
_atom_site_description
_atom_site_fract_x
_atom_site_fract_y
_atom_site_fract_z
_atom_type_partial_charge
O1    O     O_R   0.505810 0.439670 0.562310 -0.575090
O2    O     O_R   0.169070 0.404920 0.411210 -0.597545
O3    O     O_R   0.005550 0.560330 0.437690 -0.557223
C1    C     C_R   0.337549 0.381411 0.382933 0.999432
O4    O     O_R   0.175650 0.430000 0.560110 -0.630629
O5    O     O_R   0.012170 0.585580 0.587650 -0.592922
C2    C     C_R   0.344741 0.414205 0.580889 1.107786
O6    O     O_R   0.499180 0.414420 0.412350 -0.584992
O7    O     O_3   0.341430 0.551020 0.508860 -0.275632
V1    V     V_3+5 0.063930 0.490540 0.498360 1.195382
O8    O     O_R   0.682850 0.595080 0.588790 -0.614040
C3    C     C_R   0.853570 0.615985 0.618137 1.034075
O9    O     O_R   0.676280 0.570000 0.439890 -0.609351
C4    C     C_R   0.845677 0.584222 0.417658 1.010347
V2    V     V_3+5 0.564760 0.509460 0.501640 1.198229
O10   O     O_3   0.837130 0.448980 0.491140 -0.278989
C5    C     C_R   0.776103 0.880116 0.186937 -0.240695
C6    C     C_R   0.912535 0.864707 0.129993 -0.164883
C7    C     C_R   0.037329 0.801245 0.119334 -0.162479
C8    C     C_R   0.025629 0.752317 0.164311 -0.080827
C9    C     C_R   0.892232 0.769603 0.222939 0.005363
C10   C     C_R   0.767119 0.833917 0.234158 0.227791
C11   C     C_R   0.143513 0.685993 0.151049 0.421006
C12   C     C_R   0.137196 0.639753 0.198712 0.441584
C13   C     C_R   0.003099 0.656478 0.257856 -0.275623
C14   C     C_R   0.882361 0.722532 0.270119 -0.098237
C15   C     C_R   0.749888 0.741624 0.329370 0.213547
C16   C     C_R   0.627428 0.805802 0.340000 -0.224945
C17   C     C_R   0.635070 0.851181 0.292545 -0.234508
C18   C     C_R   0.984926 0.608841 0.304797 0.619832
C19   C     C_R   0.857880 0.630710 0.365902 -0.324011
C20   C     C_R   0.740187 0.696179 0.376985 -0.338991
H1    H     H_    0.524619 0.820690 0.384944 0.132371
C21   C     C_3   0.793477 0.806205 0.740445 0.505103
C22   C     C_3   0.967252 0.764567 0.696580 0.412438
C23   C     C_3   0.870204 0.683956 0.689783 -0.312849
C24   C     C_3   0.695817 0.725707 0.734587 -0.184318
C25   C     C_3   0.799161 0.728808 0.808508 -0.203723
C26   C     C_3   0.971417 0.684263 0.762776 -0.295470
C27   C     C_3   0.067128 0.765418 0.769392 0.537439
C28   C     C_3   0.896428 0.809891 0.814057 -0.399975
H2    H     H_    0.030775 0.633314 0.774738 0.124435
C29   C     C_3   0.479181 0.239176 0.305896 0.727866
C30   C     C_3   0.320265 0.182213 0.259376 -0.277565
C31   C     C_3   0.416129 0.189219 0.188045 -0.128725
C32   C     C_3   0.576477 0.245442 0.235120 -0.271837
C33   C     C_3   0.449399 0.317714 0.240582 -0.197914
C34   C     C_3   0.289763 0.260968 0.192578 -0.059104
C35   C     C_3   0.195293 0.254985 0.264639 -0.171965
C36   C     C_3   0.354590 0.311007 0.311928 -0.214343
H3    H     H_    0.211809 0.270036 0.144853 0.099144
C37   C     C_R   0.458057 0.099537 0.791353 0.552443
C38   C     C_R   0.420694 0.133717 0.868211 -0.331980
C39   C     C_R   0.389274 0.215339 0.897737 -0.293235
C40   C     C_R   0.391313 0.262262 0.851033 0.164655
C41   C     C_R   0.398607 0.225968 0.772761 -0.012998
C42   C     C_R   0.426894 0.143229 0.741893 -0.190113
C43   C     C_R   0.390865 0.345079 0.881623 -0.406050
C44   C     C_R   0.404534 0.392675 0.835744 0.653283
C45   C     C_R   0.392625 0.357036 0.756832 -0.171811
C46   C     C_R   0.385253 0.273076 0.725691 -0.120308
C47   C     C_R   0.371378 0.236040 0.647470 -0.020778
C48   C     C_R   0.391577 0.153573 0.617298 -0.359293
C49   C     C_R   0.432025 0.107438 0.663115 0.630397
C50   C     C_R   0.392057 0.402683 0.708145 0.528117
C51   C     C_R   0.355484 0.365619 0.630799 -0.509201
C52   C     C_R   0.341836 0.282248 0.600556 0.529768
H4    H     H_    0.380607 0.124835 0.557456 0.185617
O11   O     O_R   0.271890 0.085690 0.087580 -0.591328
O12   O     O_R   0.595690 0.070020 0.939870 -0.594622
O13   O     O_R   0.758900 0.914390 0.912370 -0.575988
C53   C     C_R   0.427640 0.085180 0.918277 1.045452
O14   O     O_R   0.602020 0.095100 0.088770 -0.600652
O15   O     O_R   0.765280 0.939660 0.062330 -0.595499
C54   C     C_R   0.433495 0.118700 0.117059 0.917086
O16   O     O_R   0.265520 0.060430 0.937620 -0.599937
O17   O     O_3   0.429560 0.949050 0.991100 -0.279943
V3    V     V_3+5 0.707160 0.009450 0.001650 1.165038
O18   O     O_R   0.094540 0.929890 0.060190 -0.605023
C55   C     C_R   0.924934 0.914873 0.081666 0.926157
O19   O     O_R   0.088200 0.904800 0.911290 -0.582414
C56   C     C_R   0.916344 0.881373 0.883489 0.986618
V4    V     V_3+5 0.206300 0.990390 0.998440 1.162554
O20   O     O_3   0.934030 0.050940 0.008900 -0.283457
H5    H     H_    0.679866 0.929295 0.195538 0.120280
O21   O     O_3   0.695352 0.869616 0.729617 -0.603626
C57   C     C_3   0.589665 0.841559 0.661785 -0.160641
H6    H     H_    0.469830 0.800709 0.665020 0.182865
H7    H     H_    0.682222 0.811956 0.613440 0.111877
H8    H     H_    0.524349 0.892733 0.651398 0.219985
H9    H     H_    0.545313 0.705262 0.717986 0.178126
H10   H     H_    0.732732 0.713959 0.855444 0.134154
O22   O     O_3   0.261634 0.788397 0.787760 -0.617818
C58   C     C_3   0.322070 0.762786 0.847175 -0.116636
H11   H     H_    0.210079 0.767482 0.890035 0.107049
H12   H     H_    0.447033 0.800519 0.875915 0.187363
H13   H     H_    0.368580 0.700464 0.825167 0.094018
H14   H     H_    0.268525 0.126273 0.267415 0.114818
O23   O     O_3   0.574371 0.231517 0.369059 -0.599445
C59   C     C_3   0.678877 0.160953 0.347722 -0.235799
H15   H     H_    0.793777 0.162426 0.307640 0.116204
H16   H     H_    0.582484 0.107708 0.323895 0.120794
H17   H     H_    0.750138 0.155349 0.398196 0.168696
H18   H     H_    0.732036 0.241335 0.222298 0.122653
H19   H     H_    0.499887 0.373982 0.232862 0.130382
H20   H     H_    0.141017 0.789306 0.074784 0.163515
H21   H     H_    0.039854 0.259830 0.277546 0.129229
O24   O     O_3   0.546345 0.027211 0.766775 -0.588003
C60   C     C_3   0.749053 0.040973 0.770184 0.000037
H22   H     H_    0.813750 0.013560 0.809135 0.154523
H23   H     H_    0.798867 0.104684 0.788776 0.044820
H24   H     H_    0.808681 0.012057 0.713977 0.135238
H25   H     H_    0.373497 0.242795 0.957565 0.133099
H26   H     H_    0.387135 0.373392 0.941713 0.158320
O25   O     O_3   0.411758 0.474345 0.868744 -0.623678
C61   C     C_3   0.598731 0.498242 0.898553 -0.207909
H27   H     H_    0.626293 0.479563 0.948082 0.126286
H28   H     H_    0.610325 0.564093 0.917334 0.159323
H29   H     H_    0.711490 0.475192 0.855805 0.148630
O26   O     O_3   0.450928 0.481721 0.734424 -0.597718
C62   C     C_3   0.291200 0.530682 0.741470 -0.175174
H30   H     H_    0.150908 0.498981 0.720341 0.091482
H31   H     H_    0.320862 0.572880 0.710761 0.144481
H32   H     H_    0.275071 0.565279 0.801438 0.172220
O27   O     O_3   0.325275 0.246495 0.523852 -0.602820
C63   C     C_3   0.129216 0.227554 0.504883 -0.233108
H33   H     H_    0.039920 0.281434 0.522261 0.160689
H34   H     H_    0.072073 0.183116 0.529565 0.124126
H35   H     H_    0.115672 0.200895 0.443232 0.167506
O28   O     O_3   0.457530 0.026104 0.631911 -0.608143
C64   C     C_3   0.597531 0.009605 0.575300 -0.298007
H36   H     H_    0.721718 0.052987 0.589979 0.133881
H37   H     H_    0.531023 0.006913 0.521087 0.150358
H38   H     H_    0.656455 0.950215 0.567453 0.160293
O29   O     O_3   0.272180 0.667569 0.092809 -0.613308
C65   C     C_3   0.181555 0.612248 0.029489 -0.208649
H39   H     H_    0.277897 0.602791 0.981178 0.193213
H40   H     H_    0.043487 0.634526 0.014833 0.104226
H41   H     H_    0.156738 0.553925 0.037830 0.171016
O30   O     O_3   0.255622 0.575183 0.183677 -0.589528
C66   C     C_3   0.435758 0.601489 0.218911 -0.063559
H42   H     H_    0.528963 0.549411 0.208987 0.124323
H43   H     H_    0.420499 0.629010 0.280389 0.137765
H44   H     H_    0.509390 0.643741 0.195332 0.138916
O31   O     O_3   0.093606 0.541673 0.292296 -0.594319
C67   C     C_3   0.982914 0.474900 0.248557 -0.166582
H45   H     H_    0.938252 0.480840 0.194194 0.131851
H46   H     H_    0.854118 0.464481 0.278954 0.082979
H47   H     H_    0.072707 0.421583 0.236237 0.160045
H48   H     H_    0.640662 0.711858 0.423100 0.160630
H49   H     H_    0.538224 0.900194 0.301815 0.127817
O32   O     O_3   0.057781 0.777909 0.635203 -0.628903
C68   C     C_3   0.101491 0.859578 0.652116 -0.226607
H50   H     H_    0.176082 0.885948 0.707255 0.177235
H51   H     H_    0.970336 0.892775 0.649797 0.152713
H52   H     H_    0.198117 0.867009 0.608506 0.173605

loop_
_geom_bond_atom_site_label_1
_geom_bond_atom_site_label_2
_geom_bond_distance
_ccdc_geom_bond_type
C30   C35   1.554047 S    
C57   H6    1.108787 S    
O22   C58   1.413230 S    
C10   C17   1.401469 A    
O12   V3    2.000432 S    
C21   C24   1.543338 S    
C7    C8    1.409092 A    
C27   O22   1.409751 S    
C53   O16   1.298821 A    
C64   H38   1.108184 S    
O31   C67   1.411763 S    
O29   C65   1.410468 S    
C35   H21   1.107557 S    
C38   C39   1.399176 A    
C12   O30   1.383355 S    
C14   C15   1.414695 A    
C63   H33   1.112454 S    
C47   C52   1.415242 A    
C42   C49   1.418720 A    
V4    O20   2.176799 S    
C5    H5    1.084665 S    
C16   C17   1.395756 A    
C29   O23   1.411422 S    
C6    C7    1.403328 A    
C60   H23   1.118183 S    
O5    C3    1.292582 A    
C18   C19   1.416095 A    
C40   C41   1.411744 A    
O17   V4    1.718942 S    
V2    O10   2.176753 S    
C39   H25   1.084642 S    
C25   H10   1.109711 S    
O24   C60   1.420716 S    
C52   O27   1.384756 S    
C21   C22   1.532022 S    
C21   O21   1.404471 S    
C62   H32   1.108191 S    
C39   C40   1.405294 A    
O8    V2    1.997842 S    
C34   H3    1.110189 S    
O23   C59   1.408471 S    
C33   H19   1.110415 S    
C11   C12   1.411007 A    
O11   C54   1.289133 A    
O1    V2    1.992696 S    
C68   H51   1.106159 S    
O7    V1    2.161868 S    
C4    C19   1.481255 S    
C57   H8    1.101885 S    
C1    O6    1.288957 A    
O13   C56   1.291205 A    
C51   C52   1.406312 A    
C44   C45   1.420610 A    
O15   C55   1.297412 A    
O9    C4    1.299994 A    
O14   C54   1.310360 A    
C58   H11   1.113410 S    
C21   C28   1.545331 S    
C30   H14   1.110164 S    
C65   H41   1.112427 S    
O16   V4    1.998910 S    
O19   V4    1.997610 S    
C9    C14   1.415985 A    
O19   C56   1.303654 A    
C26   H2    1.095093 S    
C67   H46   1.112362 S    
C23   C26   1.546615 S    
C24   H9    1.107442 S    
C12   C13   1.421613 A    
C25   C28   1.552991 S    
C65   H40   1.114140 S    
C60   H24   1.107548 S    
C26   C27   1.544905 S    
O4    C2    1.302205 A    
O21   C57   1.410181 S    
C58   H13   1.107102 S    
C43   C44   1.404449 A    
O17   V3    2.161766 S    
C32   H18   1.107759 S    
C66   H42   1.109442 S    
C59   H17   1.109182 S    
C48   C49   1.411005 A    
C1    C36   1.515149 S    
C45   C46   1.415974 A    
C22   C23   1.539223 S    
O2    C1    1.309666 A    
C29   C30   1.539689 S    
O5    V1    2.002397 S    
C24   C25   1.554592 S    
O11   V4    2.002193 S    
V3    O20   1.710159 S    
C17   H49   1.083746 S    
C67   H47   1.109104 S    
C33   C34   1.551514 S    
C8    C11   1.408350 A    
O14   V3    1.999231 S    
C8    C9    1.410989 A    
C47   C48   1.401617 A    
C59   H16   1.112135 S    
C5    C6    1.403571 A    
C37   C38   1.410424 A    
O30   C66   1.409110 S    
C68   H52   1.108258 S    
C58   H12   1.107722 S    
C62   H30   1.117501 S    
O3    C4    1.296722 A    
C44   O25   1.381774 S    
C27   C28   1.537995 S    
C49   O28   1.389789 S    
C45   C50   1.418643 A    
C35   C36   1.539242 S    
O6    V2    2.001171 S    
C57   H7    1.112071 S    
O9    V2    1.986803 S    
O15   V3    2.000060 S    
O27   C63   1.410307 S    
C66   H44   1.112442 S    
C3    C23   1.493988 S    
C41   C42   1.415142 A    
C64   H36   1.115069 S    
O2    V1    1.999293 S    
O26   C62   1.407245 S    
C18   O31   1.384639 S    
C67   H45   1.113485 S    
C31   C34   1.547561 S    
C13   C18   1.423737 A    
C32   C33   1.554455 S    
C23   C24   1.543069 S    
C63   H34   1.112680 S    
C15   C20   1.399716 A    
O1    C2    1.292098 A    
C19   C20   1.399884 A    
C30   C31   1.552395 S    
C65   H39   1.107901 S    
C64   H37   1.110259 S    
C16   H1    1.083819 S    
O8    C3    1.299078 A    
C29   C36   1.535721 S    
C48   H4    1.081325 S    
C33   C36   1.547573 S    
C5    C10   1.403973 A    
C63   H35   1.109593 S    
C61   H29   1.114941 S    
C11   O29   1.383527 S    
C31   C54   1.516268 S    
C66   H43   1.112517 S    
C22   C27   1.536480 S    
C13   C14   1.418471 A    
O4    V1    2.000287 S    
O3    V1    2.000296 S    
V1    O10   1.710238 S    
C60   H22   1.109458 S    
C2    C51   1.482139 S    
O18   V4    1.986918 S    
C25   C26   1.554825 S    
C34   C35   1.554284 S    
C28   C56   1.502747 S    
C59   H15   1.111813 S    
C50   O26   1.381536 S    
C61   H28   1.109628 S    
C61   H27   1.112402 S    
O28   C64   1.415591 S    
O7    V2    1.721176 S    
C46   C47   1.412128 A    
C29   C32   1.542593 S    
C62   H31   1.110120 S    
C37   C42   1.422035 A    
O18   C55   1.299733 A    
C7    H20   1.083786 S    
C31   C32   1.544466 S    
C20   H48   1.084779 S    
O32   C68   1.409193 S    
C37   O24   1.378425 S    
C6    C55   1.479093 S    
C50   C51   1.414124 A    
C22   O32   1.411971 S    
C40   C43   1.397094 A    
C15   C16   1.403098 A    
C43   H26   1.084112 S    
C41   C46   1.417650 A    
O12   C53   1.297632 A    
C68   H50   1.113243 S    
C9    C10   1.415280 A    
C38   C53   1.482582 S    
O13   V3    2.002465 S    
O25   C61   1.411448 S    
