data_mof_unit_7767.cif
_audit_creation_date              2012-12-11T14:41:12-0500
_audit_creation_method            fapswitch 2.2
_symmetry_space_group_name_H-M    P1
_symmetry_Int_Tables_number       1
_space_group_crystal_system       triclinic
_cell_length_a                    6.956426
_cell_length_b                    17.543316
_cell_length_c                    19.207143
_cell_angle_alpha                 89.998787
_cell_angle_beta                  90.030419
_cell_angle_gamma                 89.999293
_cell_volume                      2344.01595928

loop_
_atom_site_label
_atom_site_type_symbol
_atom_type_description
_atom_site_fract_x
_atom_site_fract_y
_atom_site_fract_z
_atom_type_partial_charge
O1    O     O_R   0.377350 0.828520 0.186660 -0.515453
O2    O     O_R   0.622650 0.171480 0.813340 -0.512295
O3    O     O_R   0.122650 0.171480 0.686660 -0.511962
O4    O     O_R   0.877350 0.828520 0.313340 -0.515962
O5    O     O_R   0.877350 0.671480 0.313340 -0.515754
O6    O     O_R   0.122650 0.328520 0.686660 -0.512349
O7    O     O_R   0.622650 0.328520 0.813340 -0.512030
O8    O     O_R   0.377350 0.671480 0.186660 -0.515679
O9    O     O_R   0.707090 0.671930 0.178410 -0.530761
O10   O     O_R   0.292910 0.328070 0.821590 -0.542498
O11   O     O_R   0.792910 0.328070 0.678410 -0.528597
O12   O     O_R   0.207090 0.671930 0.321590 -0.526599
O13   O     O_R   0.207090 0.828070 0.321590 -0.526825
O14   O     O_R   0.792910 0.171930 0.678410 -0.543270
O15   O     O_R   0.292910 0.171930 0.821590 -0.528006
O16   O     O_R   0.707090 0.828070 0.178410 -0.530633
C1    C     C_R   0.540618 0.643803 0.162949 0.806091
C2    C     C_R   0.459360 0.356116 0.837198 0.797849
C3    C     C_R   0.959309 0.356190 0.662883 0.812638
C4    C     C_R   0.040754 0.643760 0.337057 0.798283
C5    C     C_R   0.040700 0.856204 0.337063 0.798672
C6    C     C_R   0.959299 0.143899 0.662787 0.796920
C7    C     C_R   0.459374 0.143800 0.837110 0.813488
C8    C     C_R   0.540668 0.856241 0.162967 0.805717
O17   O     O_3   0.543850 0.750000 0.294270 -0.363474
O18   O     O_3   0.456150 0.250000 0.705730 -0.367077
O19   O     O_3   0.956150 0.250000 0.794270 -0.366231
O20   O     O_3   0.043850 0.750000 0.205730 -0.366060
V1    V     V_3+5 0.818700 0.750000 0.241790 1.741146
V2    V     V_3+5 0.181300 0.250000 0.758210 1.698305
V3    V     V_3+5 0.681300 0.250000 0.741790 1.696676
V4    V     V_3+5 0.318700 0.750000 0.258210 1.747587
C9    C     C_R   0.955429 0.419761 0.610415 -0.156362
C10   C     C_R   0.044864 0.580079 0.389408 -0.138949
C11   C     C_R   0.543976 0.580044 0.110759 -0.154364
C12   C     C_R   0.455818 0.419731 0.889633 -0.139744
C13   C     C_R   0.455670 0.080170 0.889536 -0.155598
C14   C     C_R   0.544476 0.919976 0.110697 -0.153739
C15   C     C_R   0.044340 0.919927 0.389315 -0.138559
C16   C     C_R   0.955578 0.080347 0.610299 -0.140855
C17   C     C_R   0.212570 0.474323 0.447796 -0.238488
C18   C     C_R   0.787882 0.525472 0.551949 -0.204942
C19   C     C_R   0.293419 0.527986 0.946032 -0.202243
C20   C     C_R   0.706311 0.471807 0.054400 -0.220326
C21   C     C_R   0.711732 0.025987 0.052628 -0.208720
C22   C     C_R   0.288524 0.974230 0.947748 -0.201736
C23   C     C_R   0.792686 0.972346 0.553627 -0.205090
C24   C     C_R   0.207183 0.027907 0.445985 -0.249199
C25   C     C_R   0.198482 0.525803 0.392029 0.385439
C26   C     C_R   0.802233 0.474207 0.607851 0.437536
C27   C     C_R   0.307017 0.476088 0.890511 0.341436
C28   C     C_R   0.694092 0.524219 0.109499 0.446604
C29   C     C_R   0.697260 0.974617 0.108477 0.440794
C30   C     C_R   0.302757 0.025594 0.891921 0.437955
C31   C     C_R   0.806483 0.024116 0.609242 0.341100
C32   C     C_R   0.195363 0.975375 0.390981 0.390557
C33   C     C_R   0.906568 0.577899 0.442720 -0.174652
C34   C     C_R   0.093610 0.421770 0.557024 -0.196985
C35   C     C_R   0.588801 0.419696 0.944774 -0.201553
C36   C     C_R   0.408572 0.579193 0.056370 -0.198040
C37   C     C_R   0.406713 0.921925 0.057146 -0.189452
C38   C     C_R   0.593606 0.078245 0.943078 -0.190230
C39   C     C_R   0.088786 0.080315 0.555291 -0.206846
C40   C     C_R   0.908290 0.921046 0.443437 -0.183077
C41   C     C_R   0.922810 0.525677 0.498391 0.071777
C42   C     C_R   0.077367 0.473946 0.501289 0.093004
C43   C     C_R   0.574189 0.472728 0.999835 0.080244
C44   C     C_R   0.424482 0.526686 0.000912 0.085195
C45   C     C_R   0.423095 0.974141 0.001477 0.072394
C46   C     C_R   0.577293 0.026056 0.998809 0.073143
C47   C     C_R   0.074235 0.027300 0.500222 0.100572
C48   C     C_R   0.924103 0.973539 0.498909 0.084333
H1    H     H_    0.209861 0.380610 0.557327 0.148690
H2    H     H_    0.790430 0.619104 0.442507 0.152540
H3    H     H_    0.295140 0.621578 0.055663 0.150280
H4    H     H_    0.698658 0.376005 0.946573 0.114068
H5    H     H_    0.709589 0.119524 0.942924 0.150149
H6    H     H_    0.290738 0.880637 0.057256 0.152943
H7    H     H_    0.794571 0.878788 0.444004 0.149682
H8    H     H_    0.198898 0.123904 0.553624 0.111727
H9    H     H_    0.331487 0.434522 0.450028 0.163865
H10   H     H_    0.669318 0.565436 0.549761 0.182357
H11   H     H_    0.177830 0.569358 0.947058 0.174645
H12   H     H_    0.821837 0.430417 0.053370 0.174002
H13   H     H_    0.829999 0.066103 0.050698 0.178679
H14   H     H_    0.170198 0.934151 0.949781 0.180519
H15   H     H_    0.676823 0.931098 0.552444 0.176369
H16   H     H_    0.323413 0.068977 0.447320 0.157975
S1    S     S_3+6 0.621760 0.481351 0.672229 0.060564
O21   O     O_2   0.477715 0.418874 0.660823 -0.329722
O22   O     O_2   0.709151 0.473407 0.743280 -0.281643
O23   O     O_3   0.508987 0.566076 0.666586 -0.484214
H17   H     H_    0.475926 0.580102 0.715072 0.402528
S2    S     S_3+6 0.381053 0.519761 0.328283 0.037961
O24   O     O_2   0.298312 0.529077 0.256682 -0.311219
O25   O     O_2   0.524123 0.582144 0.341514 -0.313286
O26   O     O_3   0.495520 0.435421 0.332753 -0.473582
H18   H     H_    0.400277 0.397491 0.316303 0.334867
S3    S     S_3+6 0.874150 0.517143 0.174202 0.042547
O27   O     O_2   0.021546 0.578121 0.161652 -0.331645
O28   O     O_2   0.787297 0.527440 0.245018 -0.285345
O29   O     O_3   0.982264 0.431385 0.170431 -0.499572
H19   H     H_    0.035136 0.422656 0.217649 0.384305
S4    S     S_3+6 0.125836 0.482366 0.825966 0.074593
O30   O     O_2   0.024937 0.558043 0.829568 -0.289328
O31   O     O_2   0.211981 0.473222 0.754981 -0.278129
O32   O     O_3   0.964205 0.412809 0.839280 -0.460142
H20   H     H_    0.988394 0.394413 0.887202 0.284145
S5    S     S_3+6 0.122316 0.018473 0.827457 0.059981
O33   O     O_2   0.977949 0.080806 0.838948 -0.329635
O34   O     O_2   0.209650 0.026662 0.756456 -0.281336
O35   O     O_3   0.009993 0.933642 0.832870 -0.484963
H21   H     H_    0.975829 0.919975 0.784387 0.402662
S6    S     S_3+6 0.876833 0.981889 0.173296 0.042569
O36   O     O_2   0.788921 0.972888 0.244116 -0.286950
O37   O     O_2   0.022773 0.920174 0.161630 -0.331266
O38   O     O_3   0.987069 0.067174 0.168621 -0.498583
H22   H     H_    0.035035 0.077408 0.216272 0.383657
S7    S     S_3+6 0.378474 0.981214 0.327374 0.038152
O39   O     O_2   0.522923 0.919536 0.341466 -0.312706
O40   O     O_2   0.296735 0.970634 0.255790 -0.309852
O41   O     O_3   0.491029 0.066004 0.330980 -0.474683
H23   H     H_    0.395350 0.103330 0.313724 0.334965
S8    S     S_3+6 0.625324 0.017802 0.673718 0.075373
O42   O     O_2   0.524187 0.942184 0.669947 -0.288609
O43   O     O_2   0.711527 0.026756 0.744750 -0.278566
O44   O     O_3   0.463915 0.087467 0.660467 -0.459856
H24   H     H_    0.488914 0.106272 0.612739 0.283275

loop_
_geom_bond_atom_site_label_1
_geom_bond_atom_site_label_2
_ccdc_geom_bond_type
C9    C34   A    
C19   H11   S    
C38   H5    S    
C18   H10   S    
O14   V3    S    
C12   C35   A    
S4    O31   D    
S6    O36   D    
O5    C4    A    
O6    C3    A    
O11   C3    A    
C16   C39   A    
S8    O43   D    
O20   V1    S    
S5    O34   D    
O26   H18   S    
C38   C46   A    
O35   H21   S    
C22   C45   A    
O13   V4    S    
C35   C43   A    
C34   C42   A    
S3    O27   D    
C19   C44   A    
C18   C41   A    
C8    C14   S    
O32   H20   S    
C24   H16   S    
C25   S2    S    
S1    O22   D    
O4    V1    S    
O9    V1    S    
C14   C37   A    
C4    C10   S    
C20   C28   A    
O17   V4    S    
O15   C7    A    
O11   V3    S    
O18   V3    S    
O16   C8    A    
O12   V4    S    
O19   V2    S    
C22   C30   A    
O29   H19   S    
C17   C25   A    
S4    O30   D    
C13   C38   A    
O5    V1    S    
C39   H8    S    
S7    O40   D    
O17   V1    S    
O7    V3    S    
C20   C43   A    
O19   V3    S    
C43   C44   A    
O8    V4    S    
O20   V4    S    
C3    C9    S    
S5    O35   S    
C6    C16   S    
S2    O26   S    
C27   S4    S    
C7    C13   S    
O1    V4    S    
C30   S5    S    
C11   C36   A    
C23   H15   S    
C33   H2    S    
O3    V2    S    
C21   H13   S    
C15   C40   A    
C10   C33   A    
O10   V2    S    
C26   S1    S    
C15   C32   A    
C5    C15   S    
C37   H6    S    
O7    C2    A    
C17   H9    S    
O12   C4    A    
O13   C5    A    
S2    O24   D    
S1    O23   S    
S2    O25   D    
C36   C44   A    
C12   C27   A    
C18   C26   A    
S8    O44   S    
C13   C30   A    
O9    C1    A    
O6    V2    S    
C39   C47   A    
O18   V2    S    
C32   S7    S    
C24   C47   A    
O44   H24   S    
S1    O21   D    
O2    C7    A    
C29   S6    S    
O15   V2    S    
C23   C31   A    
S7    O41   S    
C37   C45   A    
C24   C32   A    
C31   S8    S    
C10   C25   A    
C28   S3    S    
S3    O28   D    
C21   C46   A    
C33   C41   A    
C20   H12   S    
C16   C31   A    
S6    O37   D    
S7    O39   D    
C17   C42   A    
C36   H3    S    
O8    C1    A    
O14   C6    A    
C9    C26   A    
C47   C48   A    
O38   H22   S    
O4    C5    A    
C19   C27   A    
C14   C29   A    
O10   C2    A    
O23   H17   S    
C40   H7    S    
C40   C48   A    
C45   C46   A    
C23   C48   A    
S6    O38   S    
C21   C29   A    
S3    O29   S    
O16   V1    S    
O1    C8    A    
C41   C42   A    
C11   C28   A    
O2    V3    S    
O3    C6    A    
C1    C11   S    
O41   H23   S    
S5    O33   D    
C2    C12   S    
C35   H4    S    
S4    O32   S    
C34   H1    S    
S8    O42   D    
C22   H14   S    
