data_mof_unit_61789.cif
_audit_creation_date              2012-12-10T21:01:03-0500
_audit_creation_method            fapswitch 2.2
_symmetry_space_group_name_H-M    P1
_symmetry_Int_Tables_number       1
_space_group_crystal_system       triclinic
_cell_length_a                    15.866102
_cell_length_b                    15.092266
_cell_length_c                    10.539882
_cell_angle_alpha                 89.552143
_cell_angle_beta                  90.022181
_cell_angle_gamma                 90.009535
_cell_volume                      2523.75467098

loop_
_atom_site_label
_atom_site_type_symbol
_atom_type_description
_atom_site_fract_x
_atom_site_fract_y
_atom_site_fract_z
_atom_type_partial_charge
C1    C     C_R   0.338977 0.499994 0.500089 0.896208
C2    C     C_R   0.087022 0.499987 0.500100 -0.212911
C3    C     C_R   0.499774 0.500406 0.256865 0.939693
C4    C     C_R   0.500226 0.499594 0.743135 0.939693
C5    C     C_1   0.250758 0.499982 0.500134 -0.091602
C6    C     C_1   0.749242 0.500018 0.499866 -0.091603
C7    C     C_R   0.447783 0.953599 0.416741 -0.131244
C8    C     C_R   0.552217 0.046401 0.583259 -0.131244
C9    C     C_R   0.552216 0.952709 0.583260 -0.126483
C10   C     C_R   0.447784 0.047291 0.416740 -0.126483
C11   C     C_R   0.499999 0.905031 0.500001 0.058987
C12   C     C_R   0.661023 0.500006 0.499911 0.896207
C13   C     C_R   0.500001 0.094969 0.499999 0.058987
C14   C     C_3   0.498808 0.585504 0.039054 -0.249500
C15   C     C_3   0.501192 0.414496 0.960946 -0.249500
C16   C     C_3   0.569524 0.543405 0.957450 -0.298014
C17   C     C_3   0.430476 0.456595 0.042550 -0.298014
C18   C     C_3   0.431863 0.539628 0.957638 0.496634
C19   C     C_3   0.568137 0.460372 0.042362 0.496634
C20   C     C_3   0.500864 0.498635 0.877483 -0.088591
C21   C     C_3   0.499136 0.501365 0.122517 -0.088591
C22   C     C_1   0.499999 0.807131 0.500000 0.099480
C23   C     C_1   0.823975 0.500020 0.499859 0.183343
C24   C     C_1   0.500001 0.192869 0.500000 0.099480
C25   C     C_1   0.176025 0.499980 0.500141 0.183343
C26   C     C_R   0.956106 0.580550 0.512908 0.320100
C27   C     C_R   0.043894 0.419450 0.487092 0.320100
C28   C     C_R   0.043935 0.580536 0.513010 0.324448
C29   C     C_R   0.956065 0.419464 0.486990 0.324448
C30   C     C_R   0.912978 0.500013 0.499899 -0.212911
Cl1   Cl    Cl    0.099859 0.681277 0.529288 -0.460170
Cl2   Cl    Cl    0.900141 0.318723 0.470712 -0.460170
Cl3   Cl    Cl    0.900235 0.681307 0.529063 -0.470800
Cl4   Cl    Cl    0.099764 0.318693 0.470937 -0.470800
H1    H     H_    0.406838 0.082565 0.351450 0.155291
H2    H     H_    0.672600 0.398987 0.019615 0.342346
H3    H     H_    0.593162 0.917435 0.648550 0.155291
H4    H     H_    0.593163 0.080976 0.648550 0.153589
H5    H     H_    0.406837 0.919024 0.351450 0.153589
H6    H     H_    0.496015 0.654671 0.073905 0.182170
H7    H     H_    0.503985 0.345329 0.926095 0.182170
H8    H     H_    0.626576 0.576718 0.919084 0.179210
H9    H     H_    0.373424 0.423282 0.080916 0.179210
H10   H     H_    0.327400 0.601013 0.980385 0.342346
N1    N     N_1   0.500000 0.270550 0.500000 -0.076950
N2    N     N_1   0.500000 0.729450 0.500000 -0.076950
O1    O     O_R   0.378020 0.573650 0.500040 -0.592652
O2    O     O_3   0.639420 0.419090 0.093659 -0.729639
O3    O     O_R   0.621980 0.426350 0.499960 -0.592652
O4    O     O_R   0.621980 0.573650 0.499960 -0.606446
O5    O     O_R   0.378020 0.426350 0.500040 -0.606446
O6    O     O_R   0.499980 0.573650 0.313960 -0.635501
O7    O     O_R   0.500020 0.426350 0.686040 -0.635501
O8    O     O_R   0.500020 0.573650 0.686040 -0.591716
O9    O     O_R   0.499980 0.426350 0.313960 -0.591716
O10   O     O_3   0.360580 0.580910 0.906340 -0.729639
Zn1   Zn    Zn3+2 0.500000 0.598370 0.500000 1.030722
Zn2   Zn    Zn3+2 0.500000 0.401630 0.500000 1.030722

loop_
_geom_bond_atom_site_label_1
_geom_bond_atom_site_label_2
_ccdc_geom_bond_type
C8    C9    A    
C7    C10   A    
C7    C11   A    
O7    Zn2   S    
C17   H9    S    
C12   O3    A    
C8    C13   A    
C14   C16   S    
C4    O7    A    
O1    Zn1   S    
C29   C30   A    
C9    C11   A    
C14   C18   S    
C11   C22   S    
C26   C28   A    
C18   O10   S    
C16   C20   S    
H2    O2    S    
C9    H3    S    
C17   C18   S    
N2    Zn1   S    
O5    Zn2   S    
C3    O6    A    
C15   C19   S    
H10   O10   S    
C1    O5    A    
C2    C25   S    
C2    C27   A    
C8    H4    S    
C16   C19   S    
C5    C25   T    
C24   N1    T    
C14   C21   S    
C19   C21   S    
C26   C30   A    
C29   Cl2   S    
C18   C20   S    
C22   N2    T    
C27   Cl4   S    
C6    C12   S    
C15   C20   S    
C10   H1    S    
C1    C5    S    
N1    Zn2   S    
C3    C21   S    
C27   C29   A    
O6    Zn1   S    
C6    C23   T    
C14   H6    S    
C4    C20   S    
C23   C30   S    
C16   H8    S    
C15   H7    S    
O9    Zn2   S    
C15   C17   S    
C7    H5    S    
C19   O2    S    
C1    O1    A    
C2    C28   A    
C26   Cl3   S    
C4    O8    A    
O4    Zn1   S    
C3    O9    A    
C10   C13   A    
C28   Cl1   S    
C17   C21   S    
O3    Zn2   S    
C13   C24   S    
C12   O4    A    
O8    Zn1   S    
