data_mof_unit_41486.cif
_audit_creation_date              2012-12-10T19:00:01-0500
_audit_creation_method            fapswitch 2.2
_symmetry_space_group_name_H-M    P1
_symmetry_Int_Tables_number       1
_space_group_crystal_system       triclinic
_cell_length_a                    10.724602
_cell_length_b                    10.719631
_cell_length_c                    9.815797
_cell_angle_alpha                 90.110662
_cell_angle_beta                  90.221822
_cell_angle_gamma                 90.121128
_cell_volume                      1128.4479867

loop_
_atom_site_label
_atom_site_type_symbol
_atom_type_description
_atom_site_fract_x
_atom_site_fract_y
_atom_site_fract_z
_atom_type_partial_charge
C1    C     C_R   0.499615 0.259790 0.499872 0.872994
C2    C     C_R   0.500385 0.740210 0.500128 0.872994
C3    C     C_R   0.872494 0.493558 0.501061 -0.070614
C4    C     C_R   0.127506 0.506442 0.498939 -0.070614
C5    C     C_R   0.939410 0.446454 0.613503 -0.005122
C6    C     C_R   0.060590 0.553546 0.386497 -0.005122
C7    C     C_R   0.503050 0.063572 0.375737 -0.168659
C8    C     C_R   0.496950 0.936428 0.624263 -0.168659
C9    C     C_R   0.504297 0.935901 0.375892 -0.227805
C10   C     C_R   0.495703 0.064099 0.624108 -0.227805
C11   C     C_R   0.500720 0.872621 0.500143 -0.003091
C12   C     C_R   0.499280 0.127379 0.499857 -0.003091
C13   C     C_R   0.570702 0.583982 0.072471 -0.086027
C14   C     C_R   0.429298 0.416018 0.927528 -0.086027
C15   C     C_R   0.570686 0.583935 0.928411 -0.042937
C16   C     C_R   0.429313 0.416065 0.071589 -0.042937
C17   C     C_R   0.260004 0.503757 0.499563 0.884029
C18   C     C_R   0.739996 0.496243 0.500437 0.884028
C19   C     C_R   0.241101 0.782566 0.169171 -0.239527
C20   C     C_R   0.758899 0.217434 0.830829 -0.239528
C21   C     C_R   0.184121 0.727174 0.281839 -0.100079
C22   C     C_R   0.815878 0.272826 0.718161 -0.100079
C23   C     C_R   0.119887 0.613726 0.267217 0.146408
C24   C     C_R   0.880113 0.386274 0.732783 0.146408
C25   C     C_R   0.113207 0.556531 0.138735 -0.224743
C26   C     C_R   0.886793 0.443469 0.861265 -0.224744
C27   C     C_R   0.170435 0.611715 0.026220 -0.134318
C28   C     C_R   0.829565 0.388285 0.973780 -0.134318
C29   C     C_R   0.234752 0.725343 0.040605 0.092891
C30   C     C_R   0.765248 0.274657 0.959395 0.092891
C31   C     C_R   0.932769 0.545351 0.388616 -0.235036
C32   C     C_R   0.067231 0.454649 0.611384 -0.235036
H1    H     H_    0.627328 0.650793 0.874007 0.118597
H2    H     H_    0.372672 0.349207 0.125993 0.118597
H3    H     H_    0.289761 0.870400 0.182222 0.121064
H4    H     H_    0.710239 0.129600 0.817778 0.121064
H5    H     H_    0.190297 0.772357 0.380454 0.128891
H6    H     H_    0.809703 0.227643 0.619546 0.128890
H7    H     H_    0.065279 0.468238 0.126279 0.142401
H8    H     H_    0.934721 0.531762 0.873721 0.142402
H9    H     H_    0.165118 0.565196 0.928327 0.165118
H10   H     H_    0.834882 0.434804 0.071673 0.165118
H11   H     H_    0.880132 0.583378 0.303686 0.156098
H12   H     H_    0.119868 0.416622 0.696314 0.156098
H13   H     H_    0.505096 0.111774 0.278907 0.166185
H14   H     H_    0.494904 0.888226 0.721093 0.166185
H15   H     H_    0.508115 0.887261 0.279139 0.149091
H16   H     H_    0.491885 0.112739 0.720861 0.149091
H17   H     H_    0.627344 0.650890 0.127566 0.116086
H18   H     H_    0.372656 0.349110 0.872434 0.116086
N1    N     N_R   0.499970 0.499970 0.857200 -0.061039
N2    N     N_R   0.500030 0.500030 0.142800 -0.061038
O1    O     O_R   0.499990 0.316750 0.614620 -0.639143
O2    O     O_R   0.500010 0.683250 0.385380 -0.639142
O3    O     O_R   0.499990 0.316780 0.385290 -0.596738
O4    O     O_R   0.500010 0.683220 0.614710 -0.596738
O5    O     O_R   0.316760 0.500000 0.614660 -0.596267
O6    O     O_R   0.683240 0.500000 0.385340 -0.596267
O7    O     O_R   0.316760 0.500020 0.385330 -0.620784
O8    O     O_R   0.683240 0.499980 0.614670 -0.620784
Zn1   Zn    Zn3+2 0.500000 0.499980 0.653120 0.982076
Zn2   Zn    Zn3+2 0.500000 0.500020 0.346880 0.982076
C33   C     C_2   0.295270 0.785383 0.922697 0.344579
H19   H     H_    0.347545 0.871333 0.936569 0.029739
O9    O     O_2   0.287143 0.740125 0.808750 -0.564320
C34   C     C_2   0.704730 0.214616 0.077303 0.344579
H20   H     H_    0.652455 0.128667 0.063431 0.029740
O10   O     O_2   0.712857 0.259875 0.191250 -0.564320

loop_
_geom_bond_atom_site_label_1
_geom_bond_atom_site_label_2
_ccdc_geom_bond_type
C17   O5    A    
O6    Zn2   S    
C34   O10   D    
C29   C33   S    
O5    Zn1   S    
C15   N1    A    
C27   C29   A    
C13   N2    A    
C27   H9    S    
C20   H4    S    
C26   C28   A    
C14   N1    A    
N1    Zn1   S    
C2    O4    A    
C5    C32   A    
C16   H2    S    
C33   O9    D    
C28   C30   A    
C6    C31   A    
C32   H12   S    
C4    C32   A    
C20   C30   A    
C25   H7    S    
C3    C31   A    
C9    C11   A    
C26   H8    S    
C14   H18   S    
C1    C12   S    
C31   H11   S    
C17   O7    A    
C8    C11   A    
C13   H17   S    
C2    C11   S    
C7    H13   S    
C22   C24   A    
C18   O8    A    
C30   C34   S    
C20   C22   A    
C19   H3    S    
C34   H20   S    
C10   C12   A    
C13   C15   A    
C21   C23   A    
C10   H16   S    
C7    C12   A    
C14   C16   A    
C1    O3    A    
C9    H15   S    
C25   C27   A    
C4    C17   S    
C33   H19   S    
C19   C29   A    
O3    Zn2   S    
C23   C25   A    
C21   H5    S    
C3    C18   S    
C4    C6    A    
C2    O2    A    
C28   H10   S    
C7    C9    A    
C1    O1    A    
O4    Zn1   S    
C5    C24   S    
O7    Zn2   S    
N2    Zn2   S    
O2    Zn2   S    
C8    H14   S    
C19   C21   A    
C6    C23   S    
O1    Zn1   S    
C15   H1    S    
C8    C10   A    
C18   O6    A    
C16   N2    A    
C24   C26   A    
O8    Zn1   S    
C3    C5    A    
C22   H6    S    
