data_mof_unit_64368.cif
_audit_creation_date              2012-10-26T18:40:58-0400
_audit_creation_method            fapswitch 2.2
_symmetry_space_group_name_H-M    P1
_symmetry_Int_Tables_number       1
_space_group_crystal_system       triclinic
_cell_length_a                    19.470326
_cell_length_b                    18.124432
_cell_length_c                    10.802986
_cell_angle_alpha                 92.281915
_cell_angle_beta                  91.258569
_cell_angle_gamma                 90.050699
_cell_volume                      3808.30266456

loop_
_atom_site_label
_atom_site_type_symbol
_atom_type_description
_atom_site_fract_x
_atom_site_fract_y
_atom_site_fract_z
_atom_type_partial_charge
C1    C     C_R   0.367640 0.500211 0.505304 0.640102
C2    C     C_R   0.292110 0.500389 0.513378 -0.066683
C3    C     C_R   0.964551 0.490777 0.412371 0.468608
C4    C     C_R   0.035880 0.490802 0.414505 0.469923
C5    C     C_R   0.072574 0.496666 0.527676 -0.011945
C6    C     C_R   0.928587 0.494186 0.523494 -0.016720
C7    C     C_R   0.037029 0.500892 0.640101 0.257599
C8    C     C_R   0.964941 0.497789 0.638061 0.259060
C9    C     C_R   0.536979 0.722929 0.588742 0.122886
C10   C     C_R   0.462487 0.719330 0.412680 0.113186
C11   C     C_R   0.537935 0.800496 0.591019 0.391981
C12   C     C_R   0.632624 0.500001 0.500566 0.585628
C13   C     C_R   0.461718 0.796826 0.411800 0.386938
C14   C     C_R   0.499980 0.838461 0.501616 0.066120
C15   C     C_R   0.495743 0.498306 0.261920 0.571056
C16   C     C_R   0.495637 0.501922 0.737618 0.566674
C17   C     C_R   0.556842 0.959802 0.456816 0.272084
C18   C     C_R   0.443785 0.962065 0.547493 0.274164
C19   C     C_R   0.556707 0.037522 0.456670 0.427668
C20   C     C_R   0.444174 0.039791 0.547569 0.425431
C21   C     C_R   0.500487 0.078241 0.502030 0.002108
C22   C     C_R   0.500227 0.921122 0.502084 -0.022560
C23   C     C_R   0.853009 0.495610 0.517873 0.001401
C24   C     C_R   0.456266 0.198781 0.420402 0.244060
C25   C     C_R   0.544625 0.203385 0.581196 0.248145
C26   C     C_R   0.457002 0.276464 0.421525 0.531320
C27   C     C_R   0.543618 0.280994 0.578599 0.524398
C28   C     C_R   0.500431 0.161019 0.501307 -0.023764
C29   C     C_R   0.362656 0.500123 0.113907 0.236399
C30   C     C_R   0.373004 0.560576 0.881499 0.220680
C31   C     C_R   0.304524 0.527137 0.053798 -0.030760
C32   C     C_R   0.310327 0.560403 0.941487 -0.051172
C33   C     C_R   0.431825 0.526349 0.935813 0.006170
C34   C     C_R   0.148069 0.498885 0.526087 0.002475
C35   C     C_R   0.428386 0.507082 0.061487 0.006506
C36   C     C_R   0.490700 0.493492 0.127329 0.041149
C37   C     C_R   0.492904 0.507350 0.871681 0.035735
C38   C     C_R   0.551571 0.481953 0.063983 -0.098841
C39   C     C_R   0.551674 0.484857 0.936332 -0.085535
C40   C     C_R   0.744956 0.439070 0.449910 0.221134
C41   C     C_R   0.258358 0.444775 0.577706 0.218224
C42   C     C_R   0.816523 0.436984 0.459380 0.447139
C43   C     C_R   0.186775 0.443417 0.580967 0.425920
C44   C     C_R   0.817652 0.556806 0.567190 0.427970
C45   C     C_R   0.181128 0.555303 0.465490 0.437402
C46   C     C_R   0.746004 0.558455 0.563277 0.218814
C47   C     C_R   0.252482 0.555885 0.457053 0.235238
C48   C     C_R   0.708537 0.499518 0.503820 -0.105005
Cl1   Cl    Cl    0.628364 0.911828 0.397287 -0.269560
Cl2   Cl    Cl    0.289038 0.625429 0.369218 -0.390298
Cl3   Cl    Cl    0.082184 0.513488 0.783306 -0.303634
Cl4   Cl    Cl    0.920703 0.496101 0.779201 -0.258208
Cl5   Cl    Cl    0.372095 0.917048 0.606968 -0.252645
Cl6   Cl    Cl    0.400901 0.150342 0.314474 -0.262407
Cl7   Cl    Cl    0.600452 0.160970 0.687402 -0.274861
Cl8   Cl    Cl    0.346843 0.440855 0.233597 -0.425236
Cl9   Cl    Cl    0.375417 0.618982 0.756049 -0.497098
Cl10  Cl    Cl    0.703818 0.365781 0.364578 -0.330445
Cl11  Cl    Cl    0.303421 0.377285 0.660550 -0.344916
Cl12  Cl    Cl    0.706145 0.634225 0.640060 -0.375090
Cu1   Cu    Cu3+1 0.500000 0.573360 0.500000 1.104826
Cu2   Cu    Cu3+1 0.500000 0.426640 0.500000 1.254413
F1    F     F_    0.575236 0.838217 0.680324 -0.518761
F2    F     F_    0.143608 0.609584 0.413214 -0.475078
F3    F     F_    0.930339 0.488416 0.301319 -0.463860
F4    F     F_    0.069434 0.485386 0.305578 -0.469257
F5    F     F_    0.424214 0.830909 0.323517 -0.524145
F6    F     F_    0.611242 0.073498 0.410880 -0.478943
F7    F     F_    0.389702 0.078053 0.593114 -0.479131
F8    F     F_    0.414700 0.311940 0.342829 -0.483499
F9    F     F_    0.586624 0.321038 0.655493 -0.527690
F10   F     F_    0.850790 0.377605 0.411059 -0.462643
F11   F     F_    0.154719 0.387535 0.637076 -0.473783
F12   F     F_    0.853115 0.615126 0.619560 -0.477522
H1    H     H_    0.598948 0.469701 0.113589 0.169007
H2    H     H_    0.598430 0.471348 0.887698 0.179527
H3    H     H_    0.565724 0.694067 0.658485 0.207985
H4    H     H_    0.432960 0.687714 0.343184 0.201757
H5    H     H_    0.254387 0.522145 0.094215 0.224731
H6    H     H_    0.265375 0.585502 0.899974 0.209629
N1    N     N_R   0.500000 0.683620 0.500000 -0.317285
N2    N     N_R   0.500000 0.316380 0.500000 -0.286575
O1    O     O_R   0.400190 0.561980 0.499980 -0.444166
O2    O     O_R   0.599810 0.561980 0.500020 -0.479259
O3    O     O_R   0.400190 0.438070 0.500040 -0.408786
O4    O     O_R   0.599810 0.438070 0.499960 -0.428952
O5    O     O_R   0.500000 0.561970 0.319650 -0.523248
O6    O     O_R   0.500000 0.561970 0.680350 -0.479081
O7    O     O_R   0.500010 0.438060 0.319710 -0.431769
O8    O     O_R   0.499990 0.438060 0.680290 -0.452554

loop_
_geom_bond_atom_site_label_1
_geom_bond_atom_site_label_2
_ccdc_geom_bond_type
C43   F11   S    
C4    F4    S    
C30   Cl9   S    
C16   O8    A    
C35   C36   A    
C12   C48   S    
C3    C6    A    
C10   H4    S    
C7    C8    A    
C25   C28   A    
Cu2   O4    S    
C23   C42   A    
C19   C21   A    
C24   C26   A    
C11   F1    S    
C38   C39   A    
C11   C14   A    
C32   H6    S    
C2    C41   A    
C24   Cl6   S    
Cu2   O7    S    
C12   O2    A    
C1    C2    S    
Cu1   O5    S    
C18   Cl5   S    
C33   C35   A    
C8    Cl4   S    
C16   C37   S    
C40   C42   A    
Cu2   N2    S    
C26   N2    A    
C13   C14   A    
C41   C43   A    
C3    F3    S    
C44   C46   A    
C47   Cl2   S    
C38   H1    S    
C45   C47   A    
C1    O3    A    
Cu2   O3    S    
C46   C48   A    
C40   Cl10  S    
C25   Cl7   S    
C41   Cl11  S    
Cu1   O1    S    
C17   Cl1   S    
C5    C7    A    
C6    C8    A    
Cu1   O2    S    
C33   C37   A    
C23   C44   A    
Cu1   O6    S    
C15   O7    A    
C31   C32   A    
C5    C34   S    
C42   F10   S    
C19   F6    S    
C34   C45   A    
C9    H3    S    
C39   H2    S    
C44   F12   S    
C9    C11   A    
C21   C28   S    
C26   F8    S    
C20   F7    S    
C25   C27   A    
C3    C4    A    
C15   C36   S    
C27   F9    S    
C15   O5    A    
C13   F5    S    
C40   C48   A    
C10   N1    A    
C30   C33   A    
C46   Cl12  S    
C18   C22   A    
C27   N2    A    
C34   C43   A    
C24   C28   A    
C4    C5    A    
C10   C13   A    
C31   H5    S    
C29   Cl8   S    
C2    C47   A    
C1    O1    A    
C29   C35   A    
C45   F2    S    
C17   C22   A    
C12   O4    A    
C14   C22   S    
C36   C38   A    
C7    Cl3   S    
C37   C39   A    
Cu1   N1    S    
C30   C32   A    
C6    C23   S    
Cu2   O8    S    
C17   C19   A    
C18   C20   A    
Cu1   Cu2   S    
C20   C21   A    
C29   C31   A    
C16   O6    A    
C9    N1    A    
