data_mof_unit_12461.cif
_audit_creation_date              2012-12-10T17:34:57-0500
_audit_creation_method            fapswitch 2.2
_symmetry_space_group_name_H-M    P1
_symmetry_Int_Tables_number       1
_space_group_crystal_system       triclinic
_cell_length_a                    11.99534
_cell_length_b                    12.832958
_cell_length_c                    15.7092
_cell_angle_alpha                 89.747009
_cell_angle_beta                  86.753258
_cell_angle_gamma                 93.457497
_cell_volume                      2409.85619481

loop_
_atom_site_label
_atom_site_type_symbol
_atom_type_description
_atom_site_fract_x
_atom_site_fract_y
_atom_site_fract_z
_atom_type_partial_charge
C1    C     C_R   0.522351 0.700413 0.497902 0.938560
C2    C     C_3   0.374127 0.476353 0.055041 -0.370141
C3    C     C_3   0.495587 0.497000 0.082625 -0.050100
C4    C     C_3   0.570306 0.409348 0.047921 0.288378
C5    C     C_3   0.576400 0.412660 0.949174 -0.492950
C6    C     C_1   0.496188 0.500276 0.174144 0.047501
C7    C     C_1   0.498151 0.493353 0.825737 0.040242
C8    C     C_1   0.500810 0.496732 0.750336 -0.185847
C9    C     C_R   0.463671 0.188524 0.502642 -0.111733
C10   C     C_R   0.536717 0.811900 0.493340 -0.174387
C11   C     C_R   0.629210 0.969779 0.434675 -0.286154
C12   C     C_R   0.500544 0.499903 0.661625 0.894954
C13   C     C_R   0.627048 0.861873 0.445047 0.476757
C14   C     C_R   0.452754 0.867908 0.533045 -0.325461
C15   C     C_R   0.453903 0.974530 0.522118 0.060172
C16   C     C_R   0.543770 0.025644 0.473078 0.065495
C17   C     C_R   0.547109 0.132322 0.462941 -0.252394
C18   C     C_R   0.372627 0.138865 0.548802 -0.307739
C19   C     C_R   0.365897 0.031000 0.557620 0.498135
C20   C     C_R   0.956322 0.430522 0.403781 -0.258110
C21   C     C_R   0.839787 0.433378 0.415175 0.001741
C22   C     C_R   0.856784 0.524690 0.545088 0.013194
C23   C     C_R   0.477774 0.299706 0.500726 0.890187
C24   C     C_R   0.974687 0.523556 0.536647 -0.092096
C25   C     C_R   0.024851 0.476438 0.464434 0.034773
C26   C     C_R   0.142494 0.475084 0.455383 -0.200129
C27   C     C_R   0.160392 0.565705 0.585615 0.646686
C28   C     C_R   0.043384 0.568666 0.597954 0.241912
C29   C     C_R   0.499427 0.500783 0.338294 0.905157
C30   C     C_3   0.372827 0.459459 0.957055 0.944943
C31   C     C_3   0.531265 0.603353 0.947216 0.217948
C32   C     C_3   0.542681 0.603222 0.044715 0.322505
C33   C     C_1   0.497588 0.501228 0.249460 -0.178312
C34   C     C_3   0.494204 0.490956 0.917441 -0.043673
H1    H     H_    0.323770 0.543472 0.074015 0.217875
H2    H     H_    0.333412 0.407295 0.090192 0.209439
H3    H     H_    0.657587 0.426023 0.067959 0.063272
H4    H     H_    0.616266 0.172138 0.425900 0.159239
H5    H     H_    0.309284 0.183878 0.580287 0.164768
H6    H     H_    0.695080 0.009428 0.394418 0.144607
H7    H     H_    0.384778 0.827456 0.570779 0.229775
H8    H     H_    0.182051 0.437442 0.401071 0.173171
H9    H     H_    0.992414 0.393147 0.347911 0.142613
H10   H     H_    0.787224 0.398800 0.367838 0.128632
H11   H     H_    0.816195 0.562349 0.598916 0.159728
H12   H     H_    0.462711 0.654638 0.932123 0.170547
H13   H     H_    0.632284 0.615753 0.059276 0.130534
H14   H     H_    0.556898 0.333477 0.923299 0.223573
H15   H     H_    0.663321 0.436435 0.925038 0.198282
N1    N     N_R   0.207800 0.519340 0.515510 -0.164084
N2    N     N_R   0.792190 0.480660 0.484490 -0.113489
O1    O     O_R   0.421690 0.658830 0.504140 -0.596351
O2    O     O_R   0.609320 0.646410 0.494190 -0.598470
O3    O     O_R   0.406150 0.506210 0.627840 -0.545284
O4    O     O_R   0.593770 0.493790 0.617880 -0.631130
O5    O     O_R   0.390680 0.353590 0.505810 -0.630538
O6    O     O_R   0.578310 0.341170 0.495860 -0.621078
O7    O     O_R   0.406230 0.506210 0.382120 -0.614678
O8    O     O_R   0.593850 0.493790 0.372160 -0.626774
Zn1   Zn    Zn3+2 0.374720 0.508290 0.506640 0.990519
Zn2   Zn    Zn3+2 0.625280 0.491710 0.493360 0.949549
O9    O     O_3   0.335986 0.352345 0.946211 -0.633337
C35   C     C_3   0.321223 0.317334 0.861673 0.084032
H16   H     H_    0.293686 0.233282 0.867668 0.178546
H17   H     H_    0.401190 0.317066 0.823147 0.113867
C36   C     C_3   0.230458 0.371131 0.815152 -0.263162
H18   H     H_    0.153886 0.374519 0.858067 0.253216
H19   H     H_    0.260485 0.451496 0.795404 0.290757
C37   C     C_3   0.201156 0.312797 0.734144 -0.956939
H20   H     H_    0.276477 0.311066 0.689844 0.266911
H21   H     H_    0.135968 0.353525 0.701862 0.280541
H22   H     H_    0.168570 0.231625 0.749493 0.258994
O10   O     O_3   0.277161 0.981861 0.605257 -0.653033
C38   C     C_3   0.183632 0.966853 0.554473 0.076181
H23   H     H_    0.147651 0.886040 0.566335 0.159408
H24   H     H_    0.204357 0.972994 0.484241 0.127115
C39   C     C_3   0.094939 0.043458 0.580667 -0.327199
H25   H     H_    0.077880 0.040125 0.650877 0.236342
H26   H     H_    0.125918 0.124240 0.562776 0.216128
C40   C     C_3   0.986204 0.018171 0.537184 -0.993979
H27   H     H_    0.000830 0.024882 0.466879 0.264871
H28   H     H_    0.923194 0.073934 0.558357 0.274940
H29   H     H_    0.952631 0.937846 0.554243 0.254997
O11   O     O_3   0.701539 0.803731 0.397583 -0.623624
C41   C     C_3   0.809990 0.820981 0.427276 0.077439
H30   H     H_    0.809865 0.802750 0.496781 0.129535
H31   H     H_    0.841934 0.903191 0.415258 0.140006
C42   C     C_3   0.888519 0.749386 0.378970 -0.279027
H32   H     H_    0.859060 0.666764 0.391380 0.237013
H33   H     H_    0.886818 0.764724 0.309372 0.230390
C43   C     C_3   0.008674 0.766448 0.405529 -0.988539
H34   H     H_    0.041348 0.847635 0.390464 0.268116
H35   H     H_    0.062481 0.711686 0.370391 0.280634
H36   H     H_    0.013007 0.751677 0.474787 0.242875
F1    F     F_    0.296085 0.525235 0.926767 -0.711413
F2    F     F_    0.226331 0.607408 0.645499 -0.647548
O12   O     O_3   0.996608 0.602950 0.674491 -0.613214
C44   C     C_3   0.997574 0.712867 0.673033 0.097755
H37   H     H_    0.948367 0.740230 0.620108 0.096868
H38   H     H_    0.084802 0.747901 0.665881 0.187549
C45   C     C_3   0.943653 0.749250 0.757225 -0.282023
H39   H     H_    0.855616 0.716840 0.763872 0.224131
H40   H     H_    0.989191 0.719391 0.811088 0.253771
C46   C     C_3   0.945794 0.868023 0.761650 -0.992900
H41   H     H_    0.033524 0.901416 0.757902 0.284672
H42   H     H_    0.904621 0.891643 0.823037 0.265413
H43   H     H_    0.900303 0.899764 0.708640 0.266621
O13   O     O_3   0.635597 0.637426 0.905351 -0.651872
C47   C     C_3   0.638832 0.744602 0.882797 0.087878
H44   H     H_    0.727304 0.775470 0.882613 0.168357
H45   H     H_    0.591480 0.792000 0.930180 0.167881
C48   C     C_3   0.596977 0.758004 0.793112 -0.362684
H46   H     H_    0.646724 0.711405 0.747035 0.227309
H47   H     H_    0.507934 0.728952 0.792227 0.236175
C49   C     C_3   0.606859 0.872146 0.764632 -0.931316
H48   H     H_    0.554990 0.919709 0.808412 0.274539
H49   H     H_    0.576996 0.878740 0.699302 0.273278
H50   H     H_    0.695296 0.903199 0.763800 0.263584
F3    F     F_    0.486108 0.684787 0.080939 -0.660811
O14   O     O_3   0.523491 0.309635 0.075968 -0.595338
C50   C     C_3   0.584485 0.266333 0.140682 0.104121
H51   H     H_    0.525319 0.213849 0.180350 0.169509
H52   H     H_    0.619485 0.326035 0.184752 0.110784
C51   C     C_3   0.677299 0.201741 0.101481 -0.354646
H53   H     H_    0.640100 0.140464 0.060076 0.240323
H54   H     H_    0.737557 0.252851 0.061518 0.213532
C52   C     C_3   0.739953 0.149890 0.170536 -0.946736
H55   H     H_    0.779428 0.209973 0.211822 0.254591
H56   H     H_    0.806519 0.103558 0.140348 0.273617
H57   H     H_    0.681776 0.096740 0.210452 0.269967

loop_
_geom_bond_atom_site_label_1
_geom_bond_atom_site_label_2
_ccdc_geom_bond_type
C2    H1    S    
C28   O12   S    
C36   H19   S    
C35   H17   S    
C45   H39   S    
C31   O13   S    
N2    Zn2   S    
C3    C6    S    
C48   H47   S    
O12   C44   S    
C7    C8    T    
O3    Zn1   S    
C39   H25   S    
O14   C50   S    
C15   C19   A    
C13   O11   S    
C30   F1    S    
C38   H24   S    
C26   N1    A    
C41   C42   S    
C36   C37   S    
C20   C25   A    
O7    Zn1   S    
C15   C16   A    
C29   C33   S    
O13   C47   S    
C18   C19   A    
O10   C38   S    
C37   H21   S    
C1    O2    A    
C46   H41   S    
C50   C51   S    
O1    Zn1   S    
O2    Zn2   S    
O11   C41   S    
C29   O8    A    
C16   C17   A    
C49   H49   S    
C31   H12   S    
C27   N1    A    
C39   H26   S    
C36   H18   S    
C35   C36   S    
C45   H40   S    
C5    H15   S    
C27   F2    S    
C3    C32   S    
C40   H29   S    
C46   H42   S    
C48   H46   S    
C41   H31   S    
C5    H14   S    
O8    Zn2   S    
C38   H23   S    
C30   C34   S    
C11   H6    S    
C19   O10   S    
C24   C25   A    
C40   H28   S    
C10   C14   A    
C47   C48   S    
C43   H34   S    
C9    C23   S    
C25   C26   A    
C41   H30   S    
C38   C39   S    
O5    Zn1   S    
C37   H22   S    
C18   H5    S    
C52   H56   S    
O9    C35   S    
C43   H35   S    
C21   H10   S    
C11   C16   A    
C31   C32   S    
C42   C43   S    
C8    C12   S    
C49   H50   S    
C5    C34   S    
C20   C21   A    
C31   C34   S    
C4    H3    S    
C23   O5    A    
C50   H51   S    
C14   H7    S    
C9    C17   A    
C42   H33   S    
C45   C46   S    
C44   H38   S    
C30   O9    S    
C32   H13   S    
C22   C24   A    
C32   F3    S    
C3    C4    S    
C21   N2    A    
C20   H9    S    
C29   O7    A    
C26   H8    S    
C51   H54   S    
C39   C40   S    
C2    H2    S    
C23   O6    A    
C1    C10   S    
C24   C28   A    
C40   H27   S    
C10   C13   A    
O6    Zn2   S    
C44   C45   S    
C6    C33   T    
C2    C30   S    
N1    Zn1   S    
C47   H45   S    
C2    C3    S    
C52   H57   S    
C47   H44   S    
C43   H36   S    
C11   C13   A    
C49   H48   S    
O4    Zn2   S    
C7    C34   S    
C17   H4    S    
C46   H43   S    
C22   N2    A    
C37   H20   S    
C1    O1    A    
C50   H52   S    
C12   O4    A    
C35   H16   S    
C9    C18   A    
C4    C5    S    
C22   H11   S    
C42   H32   S    
C44   H37   S    
C51   C52   S    
C27   C28   A    
C14   C15   A    
C4    O14   S    
C48   C49   S    
C12   O3    A    
C52   H55   S    
C51   H53   S    
