data_mof_unit_64859.cif
_audit_creation_date              2012-12-10T19:00:21-0500
_audit_creation_method            fapswitch 2.2
_symmetry_space_group_name_H-M    P1
_symmetry_Int_Tables_number       1
_space_group_crystal_system       triclinic
_cell_length_a                    37.03994
_cell_length_b                    30.270372
_cell_length_c                    21.305906
_cell_angle_alpha                 90.000046
_cell_angle_beta                  54.807675
_cell_angle_gamma                 90.000038
_cell_volume                      19522.1724743

loop_
_atom_site_label
_atom_site_type_symbol
_atom_type_description
_atom_site_fract_x
_atom_site_fract_y
_atom_site_fract_z
_atom_type_partial_charge
C1    C     C_R   0.913688 0.500019 0.086327 0.886755
C2    C     C_R   0.086312 0.500019 0.913673 0.886754
C3    C     C_R   0.413688 0.000019 0.086327 0.886745
C4    C     C_R   0.586312 0.000020 0.913673 0.886755
C5    C     C_3   0.988173 0.459505 0.241156 -0.186061
C6    C     C_3   0.011827 0.459504 0.758843 -0.186062
C7    C     C_3   0.488172 0.959505 0.241157 -0.186062
C8    C     C_3   0.511807 0.959498 0.758864 -0.186062
C9    C     C_3   0.029058 0.469361 0.241528 -0.246787
C10   C     C_3   0.970941 0.469361 0.758472 -0.246787
C11   C     C_3   0.529058 0.969361 0.241528 -0.246788
C12   C     C_3   0.470926 0.969376 0.758487 -0.246796
C13   C     C_3   0.040282 0.509725 0.189126 0.398911
C14   C     C_3   0.959718 0.509725 0.810874 0.398911
C15   C     C_3   0.540282 0.009724 0.189126 0.398911
C16   C     C_3   0.459723 0.009744 0.810869 0.398911
C17   C     C_3   0.999829 0.499924 0.189268 -0.133264
C18   C     C_3   0.000171 0.499924 0.810732 -0.133264
C19   C     C_3   0.499829 0.999924 0.189268 -0.133264
C20   C     C_3   0.500171 0.999923 0.810733 -0.133263
C21   C     C_R   0.796843 0.539469 0.191380 -0.081501
C22   C     C_R   0.203157 0.539469 0.808620 -0.081502
C23   C     C_R   0.296843 0.039469 0.191380 -0.081503
C24   C     C_R   0.703157 0.039469 0.808620 -0.081500
C25   C     C_R   0.842635 0.539503 0.146121 -0.138210
C26   C     C_R   0.157365 0.539503 0.853879 -0.138211
C27   C     C_R   0.342635 0.039503 0.146120 -0.138208
C28   C     C_R   0.657365 0.039503 0.853879 -0.138209
C29   C     C_R   0.865663 0.500066 0.134282 -0.036723
C30   C     C_R   0.134337 0.500066 0.865718 -0.036722
C31   C     C_R   0.365663 0.000066 0.134282 -0.036732
C32   C     C_R   0.634337 0.000066 0.865718 -0.036723
C33   C     C_R   0.842472 0.460694 0.168557 -0.175622
C34   C     C_R   0.157528 0.460694 0.831443 -0.175622
C35   C     C_R   0.342472 0.960694 0.168558 -0.175634
C36   C     C_R   0.657528 0.960694 0.831443 -0.175621
C37   C     C_R   0.796664 0.460790 0.214175 -0.138350
C38   C     C_R   0.203336 0.460790 0.785825 -0.138352
C39   C     C_R   0.296664 0.960790 0.214176 -0.138357
C40   C     C_R   0.703336 0.960790 0.785825 -0.138351
C41   C     C_R   0.773986 0.500090 0.224988 0.136116
C42   C     C_R   0.226014 0.500090 0.775012 0.136117
C43   C     C_R   0.273986 0.000090 0.224989 0.136117
C44   C     C_R   0.726014 0.000090 0.775012 0.136116
C45   C     C_R   0.999847 0.499995 0.121786 0.939693
C46   C     C_R   0.000152 0.499995 0.878214 0.939694
C47   C     C_R   0.499847 0.999995 0.121786 0.939692
C48   C     C_R   0.500152 0.999995 0.878214 0.939687
C49   C     C_R   0.703556 0.492313 0.350835 -0.216905
C50   C     C_R   0.296443 0.492313 0.649165 -0.216906
C51   C     C_R   0.203556 0.992313 0.350836 -0.216906
C52   C     C_R   0.796443 0.992313 0.649165 -0.216905
C53   C     C_R   0.657772 0.492513 0.397376 -0.150998
C54   C     C_R   0.342228 0.492514 0.602624 -0.150999
C55   C     C_R   0.157772 0.992514 0.397377 -0.151000
C56   C     C_R   0.842228 0.992514 0.602624 -0.150999
C57   C     C_R   0.634381 0.500068 0.365091 -0.104346
C58   C     C_R   0.365619 0.500068 0.634909 -0.104346
C59   C     C_R   0.134381 0.000068 0.365091 -0.104346
C60   C     C_R   0.865619 0.000068 0.634909 -0.104346
C61   C     C_R   0.657164 0.507457 0.285901 -0.212366
C62   C     C_R   0.342836 0.507457 0.714099 -0.212366
C63   C     C_R   0.157164 0.007456 0.285901 -0.212366
C64   C     C_R   0.842836 0.007457 0.714099 -0.212366
C65   C     C_R   0.703011 0.507554 0.239158 0.415475
C66   C     C_R   0.296989 0.507554 0.760842 0.415475
C67   C     C_R   0.203011 0.007553 0.239158 0.415474
C68   C     C_R   0.796989 0.007554 0.760842 0.415475
C69   C     C_R   0.726170 0.500033 0.272031 -0.009671
C70   C     C_R   0.273830 0.500033 0.727969 -0.009671
C71   C     C_R   0.226170 0.000033 0.272031 -0.009669
C72   C     C_R   0.773830 0.000033 0.727969 -0.009671
C73   C     C_R   1.000000 0.365883 0.500000 -0.110566
C74   C     C_R   0.500000 0.865883 0.500000 -0.110565
C75   C     C_R   1.000000 0.274191 0.500000 0.131026
C76   C     C_R   0.500000 0.774191 0.500000 0.131027
C77   C     C_R   0.500000 0.274239 0.500000 -0.092971
C78   C     C_R   1.000000 0.774239 0.500000 -0.092970
C79   C     C_R   0.000000 0.586270 0.500000 0.918490
C80   C     C_R   0.500000 0.086270 0.500000 0.918502
C81   C     C_R   0.965129 0.343025 0.563165 -0.311046
C82   C     C_R   0.034871 0.343025 0.436835 -0.311045
C83   C     C_R   0.465129 0.843025 0.563165 -0.311047
C84   C     C_R   0.534871 0.843025 0.436835 -0.311047
C85   C     C_R   0.000008 0.499763 0.378353 0.937623
C86   C     C_R   0.999992 0.499763 0.621647 0.937622
C87   C     C_R   0.500008 0.999763 0.378353 0.937623
C88   C     C_R   0.499991 0.999762 0.621647 0.937631
C89   C     C_R   1.000000 0.413742 0.500000 0.907863
C90   C     C_R   0.500000 0.913742 0.500000 0.907863
C91   C     C_R   0.500000 0.634131 0.500000 -0.412449
C92   C     C_R   1.000000 0.134131 0.500000 -0.412449
C93   C     C_R   0.500000 0.586167 0.500000 0.898298
C94   C     C_R   1.000000 0.086167 0.500000 0.898298
C95   C     C_R   0.586338 0.500017 0.413577 0.863284
C96   C     C_R   0.413662 0.500017 0.586423 0.863283
C97   C     C_R   0.086338 0.000017 0.413577 0.863284
C98   C     C_R   0.913662 0.000017 0.586423 0.863283
C99   C     C_R   0.530477 0.657351 0.507735 0.356384
C100  C     C_R   0.469522 0.657351 0.492265 0.356385
C101  C     C_R   0.030478 0.157351 0.507735 0.356386
C102  C     C_R   0.969522 0.157351 0.492265 0.356385
C103  C     C_R   0.500000 0.413938 0.500000 0.836696
C104  C     C_R   0.000000 0.913938 0.500000 0.836696
C105  C     C_R   0.960880 0.703107 0.551896 -0.141294
C106  C     C_R   0.039120 0.703107 0.448103 -0.141294
C107  C     C_R   0.460880 0.203107 0.551897 -0.141287
C108  C     C_R   0.539120 0.203107 0.448104 -0.141290
C109  C     C_R   0.960843 0.657326 0.551778 -0.135577
C110  C     C_R   0.039157 0.657326 0.448221 -0.135577
C111  C     C_R   0.460842 0.157326 0.551778 -0.135575
C112  C     C_R   0.539157 0.157326 0.448222 -0.135565
C113  C     C_R   0.000000 0.634254 0.500000 -0.032440
C114  C     C_R   0.500000 0.134254 0.500000 -0.032430
C115  C     C_R   0.529063 0.703282 0.510578 0.413216
C116  C     C_R   0.470936 0.703282 0.489422 0.413216
C117  C     C_R   0.029063 0.203282 0.510578 0.413215
C118  C     C_R   0.970936 0.203282 0.489422 0.413215
C119  C     C_R   1.000000 0.726132 0.500000 0.150155
C120  C     C_R   0.500000 0.226132 0.500000 0.150156
C121  C     C_R   0.533541 0.297145 0.497487 -0.146540
C122  C     C_R   0.466459 0.297145 0.502512 -0.146548
C123  C     C_R   0.033541 0.797145 0.497487 -0.146546
C124  C     C_R   0.966459 0.797145 0.502513 -0.146547
C125  C     C_R   0.534557 0.342935 0.495899 0.424087
C126  C     C_R   0.465443 0.342935 0.504101 0.424091
C127  C     C_R   0.034557 0.842935 0.495899 0.424088
C128  C     C_R   0.965443 0.842935 0.504101 0.424090
C129  C     C_R   0.500000 0.366188 0.500000 -0.268210
C130  C     C_R   0.000000 0.866188 0.500000 -0.268209
C131  C     C_R   0.500000 0.726106 0.500000 -0.185956
C132  C     C_R   1.000000 0.226106 0.500000 -0.185956
C133  C     C_R   0.965098 0.296890 0.564044 0.471121
C134  C     C_R   0.034902 0.296890 0.435956 0.471120
C135  C     C_R   0.465098 0.796890 0.564044 0.471120
C136  C     C_R   0.534902 0.796890 0.435956 0.471120
C137  C     C_3   0.970745 0.530279 0.258669 -0.255701
C138  C     C_3   0.029255 0.530279 0.741331 -0.255702
C139  C     C_3   0.470745 0.030279 0.258669 -0.255700
C140  C     C_3   0.529270 0.030264 0.741316 -0.255693
C141  C     C_3   0.011549 0.539726 0.258956 0.396914
C142  C     C_3   0.988451 0.539726 0.741044 0.396914
C143  C     C_3   0.511549 0.039726 0.258956 0.396914
C144  C     C_3   0.488471 0.039731 0.741024 0.396917
C145  C     C_3   0.999985 0.499731 0.310911 -0.127714
C146  C     C_3   0.000015 0.499731 0.689089 -0.127713
C147  C     C_3   0.499985 0.999731 0.310911 -0.127714
C148  C     C_3   0.500014 0.999731 0.689089 -0.127715
C149  C     C_3   0.959108 0.489852 0.311623 -0.189440
C150  C     C_3   0.040892 0.489852 0.688376 -0.189440
C151  C     C_3   0.459108 0.989852 0.311623 -0.189440
C152  C     C_3   0.540887 0.989831 0.688382 -0.189437
H1    H     H_    0.778867 0.430312 0.240503 0.152724
H2    H     H_    0.221133 0.430312 0.759497 0.152724
H3    H     H_    0.278867 0.930312 0.240505 0.152724
H4    H     H_    0.721133 0.930312 0.759497 0.152724
H5    H     H_    0.721444 0.486450 0.376182 0.164732
H6    H     H_    0.278556 0.486450 0.623817 0.164731
H7    H     H_    0.221443 0.986451 0.376183 0.164732
H8    H     H_    0.778556 0.986450 0.623817 0.164732
H9    H     H_    0.640757 0.486518 0.458325 0.180654
H10   H     H_    0.359243 0.486518 0.541675 0.180653
H11   H     H_    0.140757 0.986519 0.458326 0.180654
H12   H     H_    0.859243 0.986518 0.541675 0.180654
H13   H     H_    0.639455 0.513239 0.260229 0.198947
H14   H     H_    0.360545 0.513239 0.739771 0.198947
H15   H     H_    0.139455 0.013238 0.260229 0.198947
H16   H     H_    0.860545 0.013239 0.739771 0.198947
H17   H     H_    0.938442 0.361063 0.612112 0.168726
H18   H     H_    0.061558 0.361063 0.387888 0.168726
H19   H     H_    0.438442 0.861063 0.612112 0.168724
H20   H     H_    0.561558 0.861063 0.387888 0.168726
H21   H     H_    0.930542 0.720542 0.592967 0.150154
H22   H     H_    0.069458 0.720542 0.407033 0.150154
H23   H     H_    0.430542 0.220542 0.592967 0.150153
H24   H     H_    0.569458 0.220542 0.407033 0.150154
H25   H     H_    0.930340 0.640061 0.592579 0.177888
H26   H     H_    0.069660 0.640061 0.407421 0.177888
H27   H     H_    0.430340 0.140061 0.592579 0.177881
H28   H     H_    0.569660 0.140061 0.407421 0.177888
H29   H     H_    0.947148 0.555179 0.263881 0.184242
H30   H     H_    0.052852 0.555179 0.736119 0.184242
H31   H     H_    0.447148 0.055179 0.263881 0.184242
H32   H     H_    0.552879 0.055152 0.736092 0.184231
H33   H     H_    0.559430 0.279337 0.495944 0.178044
H34   H     H_    0.440570 0.279337 0.504056 0.178040
H35   H     H_    0.059430 0.779337 0.495943 0.178040
H36   H     H_    0.940570 0.779337 0.504056 0.178040
H37   H     H_    0.925817 0.481546 0.363386 0.182209
H38   H     H_    0.074183 0.481546 0.636614 0.182209
H39   H     H_    0.425817 0.981546 0.363386 0.182209
H40   H     H_    0.574174 0.981508 0.636623 0.182207
H41   H     H_    0.978430 0.426620 0.232460 0.183919
H42   H     H_    0.021570 0.426620 0.767540 0.183919
H43   H     H_    0.478430 0.926620 0.232460 0.183919
H44   H     H_    0.521533 0.926609 0.767577 0.183927
H45   H     H_    0.052898 0.444703 0.236102 0.185425
H46   H     H_    0.947102 0.444703 0.763898 0.185425
H47   H     H_    0.552898 0.944703 0.236102 0.185425
H48   H     H_    0.447074 0.944729 0.763926 0.185436
H49   H     H_    0.779178 0.569980 0.200271 0.163129
H50   H     H_    0.220822 0.569980 0.799728 0.163129
H51   H     H_    0.279178 0.069979 0.200270 0.163131
H52   H     H_    0.720822 0.069980 0.799728 0.163130
H53   H     H_    0.859932 0.570217 0.120072 0.176636
H54   H     H_    0.140068 0.570217 0.879928 0.176636
H55   H     H_    0.359932 0.070217 0.120071 0.176643
H56   H     H_    0.640068 0.070217 0.879928 0.176637
H57   H     H_    0.859654 0.429969 0.160427 0.167208
H58   H     H_    0.140345 0.429969 0.839573 0.167208
H59   H     H_    0.359655 0.929969 0.160429 0.167208
H60   H     H_    0.640345 0.929969 0.839573 0.167209
O1    O     O_R   0.934530 0.463050 0.065470 -0.624787
O2    O     O_R   0.065470 0.463050 0.934530 -0.624788
O3    O     O_R   0.434530 0.963050 0.065470 -0.624794
O4    O     O_R   0.565470 0.963050 0.934530 -0.624786
O5    O     O_R   0.565480 0.500000 0.487030 -0.624686
O6    O     O_R   0.434520 0.500000 0.512970 -0.624687
O7    O     O_R   0.065480 0.000000 0.487030 -0.624686
O8    O     O_R   0.934520 0.000000 0.512970 -0.624687
O9    O     O_R   0.565480 0.499990 0.382000 -0.616432
O10   O     O_R   0.434520 0.499990 0.618000 -0.616432
O11   O     O_R   0.065480 0.999990 0.382000 -0.616432
O12   O     O_R   0.934520 0.999990 0.618000 -0.616432
O13   O     O_R   0.500000 0.434520 0.552520 -0.599867
O14   O     O_R   0.500000 0.434520 0.447480 -0.599869
O15   O     O_R   0.000000 0.934520 0.552520 -0.599868
O16   O     O_R   0.000000 0.934520 0.447480 -0.599869
O17   O     O_R   0.934550 0.536970 0.065450 -0.619846
O18   O     O_R   0.065450 0.536970 0.934550 -0.619847
O19   O     O_R   0.434550 0.036970 0.065450 -0.619839
O20   O     O_R   0.565450 0.036970 0.934550 -0.619846
O21   O     O_R   0.000010 0.463050 0.093020 -0.624774
O22   O     O_R   0.999990 0.463050 0.906980 -0.624775
O23   O     O_R   0.500010 0.963050 0.093020 -0.624774
O24   O     O_R   0.499990 0.963050 0.906980 -0.624787
O25   O     O_R   0.000020 0.536970 0.093000 -0.602752
O26   O     O_R   0.999980 0.536970 0.907000 -0.602751
O27   O     O_R   0.500020 0.036970 0.093000 -0.602752
O28   O     O_R   0.499980 0.036970 0.907000 -0.602731
O29   O     O_R   0.036960 0.565440 0.463030 -0.615959
O30   O     O_R   0.963040 0.565440 0.536970 -0.615960
O31   O     O_R   0.536960 0.065440 0.463030 -0.615952
O32   O     O_R   0.463040 0.065440 0.536970 -0.615967
O33   O     O_R   0.036960 0.499960 0.370010 -0.602009
O34   O     O_R   0.963040 0.499960 0.629990 -0.602009
O35   O     O_R   0.536960 0.999960 0.370010 -0.602010
O36   O     O_R   0.463040 0.999960 0.629990 -0.602029
O37   O     O_R   0.963040 0.499940 0.443930 -0.626641
O38   O     O_R   0.036960 0.499940 0.556070 -0.626641
O39   O     O_R   0.463040 0.999940 0.443930 -0.626641
O40   O     O_R   0.536960 0.999940 0.556070 -0.626629
O41   O     O_R   0.036980 0.434490 0.463020 -0.625156
O42   O     O_R   0.963020 0.434490 0.536980 -0.625155
O43   O     O_R   0.536980 0.934490 0.463020 -0.625158
O44   O     O_R   0.463020 0.934490 0.536980 -0.625157
O45   O     O_R   0.500030 0.565470 0.552480 -0.593343
O46   O     O_R   0.499970 0.565470 0.447520 -0.593342
O47   O     O_R   0.000030 0.065470 0.552480 -0.593343
O48   O     O_R   0.999970 0.065470 0.447520 -0.593342
Zn1   Zn    Zn3+2 1.000000 0.450650 0.000000 0.998565
Zn2   Zn    Zn3+2 0.500000 0.950650 0.000000 0.998555
Zn3   Zn    Zn3+2 0.000000 0.549370 0.000000 1.039417
Zn4   Zn    Zn3+2 0.500000 0.049370 0.000000 1.039436
Zn5   Zn    Zn3+2 0.049370 0.499970 0.450630 1.023287
Zn6   Zn    Zn3+2 0.950630 0.499970 0.549370 1.023287
Zn7   Zn    Zn3+2 0.549370 0.999970 0.450630 1.023297
Zn8   Zn    Zn3+2 0.450630 0.999970 0.549370 1.023268
Zn9   Zn    Zn3+2 0.500010 0.500000 0.570110 1.030624
Zn10  Zn    Zn3+2 0.499990 0.500000 0.429890 1.030622
Zn11  Zn    Zn3+2 0.000010 1.000000 0.570110 1.030622
Zn12  Zn    Zn3+2 0.999990 0.000000 0.429890 1.030621
Cl1   Cl    Cl    0.026913 0.592606 0.273127 -0.549429
Cl2   Cl    Cl    0.973087 0.592606 0.726873 -0.549429
Cl3   Cl    Cl    0.526913 0.092606 0.273126 -0.549430
Cl4   Cl    Cl    0.473134 0.092619 0.726825 -0.549441
Cl5   Cl    Cl    0.730315 0.515872 0.139707 -0.540819
Cl6   Cl    Cl    0.269685 0.515872 0.860293 -0.540819
Cl7   Cl    Cl    0.230315 0.015870 0.139707 -0.540836
Cl8   Cl    Cl    0.769685 0.015872 0.860293 -0.540818
Cl9   Cl    Cl    0.565013 0.731979 0.525713 -0.475953
Cl10  Cl    Cl    0.434987 0.731979 0.474287 -0.475953
Cl11  Cl    Cl    0.065013 0.231979 0.525713 -0.475951
Cl12  Cl    Cl    0.934986 0.231979 0.474287 -0.475950
O49   O     O_3   0.562296 0.636537 0.511844 -0.666206
H61   H     H_    0.569703 0.607656 0.485401 0.338291
O50   O     O_3   0.437704 0.636537 0.488156 -0.666207
H62   H     H_    0.430297 0.607656 0.514599 0.338291
O51   O     O_3   0.062295 0.136537 0.511844 -0.666207
H63   H     H_    0.069703 0.107656 0.485401 0.338292
O52   O     O_3   0.937704 0.136537 0.488156 -0.666206
H64   H     H_    0.930297 0.107656 0.514599 0.338291
O53   O     O_3   0.931713 0.273268 0.626332 -0.720549
H65   H     H_    0.909914 0.294224 0.666089 0.347792
O54   O     O_3   0.068287 0.273268 0.373668 -0.720549
H66   H     H_    0.090086 0.294224 0.333911 0.347792
O55   O     O_3   0.431713 0.773268 0.626332 -0.720551
H67   H     H_    0.409914 0.794224 0.666089 0.347790
O56   O     O_3   0.568287 0.773268 0.373668 -0.720549
H68   H     H_    0.590086 0.794224 0.333911 0.347791
O57   O     O_3   0.570066 0.363164 0.489333 -0.739282
H69   H     H_    0.572507 0.394194 0.472849 0.336147
O58   O     O_3   0.429934 0.363164 0.510667 -0.739285
H70   H     H_    0.427493 0.394194 0.527150 0.336147
O59   O     O_3   0.070066 0.863164 0.489332 -0.739284
H71   H     H_    0.072507 0.894194 0.472849 0.336147
O60   O     O_3   0.929934 0.863164 0.510667 -0.739285
H72   H     H_    0.927493 0.894194 0.527150 0.336147
Cl13  Cl    Cl    0.093783 0.522783 0.105957 -0.512692
Cl14  Cl    Cl    0.906218 0.522783 0.894043 -0.512691
Cl15  Cl    Cl    0.593782 0.022783 0.105957 -0.512691
Cl16  Cl    Cl    0.406228 0.022830 0.894031 -0.512696

loop_
_geom_bond_atom_site_label_1
_geom_bond_atom_site_label_2
_ccdc_geom_bond_type
O19   Zn4   S    
C98   O8    A    
C142  C146  S    
O52   H64   S    
C74   C83   A    
O57   H69   S    
C100  O50   S    
C4    O20   A    
C41   C69   S    
C16   C144  S    
O31   Zn7   S    
C55   C59   A    
C76   C131  S    
C110  H26   S    
C3    O3    A    
C29   C33   A    
C23   C43   A    
C117  C132  A    
C108  C120  A    
C77   C122  A    
C146  C150  S    
C11   C15   S    
O22   Zn1   S    
C126  O58   S    
C12   C16   S    
C83   H19   S    
C81   H17   S    
C91   C100  A    
C140  C152  S    
C141  C145  S    
C88   O40   A    
O44   Zn8   S    
C49   C69   A    
C111  H27   S    
O26   Zn3   S    
C26   H54   S    
C51   C71   A    
C73   C81   A    
C104  O16   A    
C47   O23   A    
C25   C29   A    
C27   C31   A    
C21   H49   S    
C28   C32   A    
C30   C34   A    
C126  C129  A    
C97   O11   A    
C82   C134  A    
C52   C72   A    
C150  H38   S    
O40   Zn7   S    
O58   H70   S    
C68   C72   A    
C1    C29   S    
C88   C148  S    
C95   O9    A    
C3    C31   S    
C4    C32   S    
C36   H60   S    
C93   O45   A    
C2    O2    A    
O23   Zn2   S    
C7    C19   S    
O16   Zn12  S    
C28   H56   S    
O29   Zn5   S    
C59   C63   A    
C107  C120  A    
C6    H42   S    
O21   Zn1   S    
C90   O44   A    
O42   Zn6   S    
C43   C71   S    
C149  H37   S    
O33   Zn5   S    
O38   Zn5   S    
C57   C61   A    
C68   Cl8   S    
C103  O13   A    
C56   H12   S    
C60   C98   S    
C144  Cl4   S    
C60   C64   A    
C74   C90   S    
C50   C70   A    
C55   H11   S    
C140  H32   S    
O14   Zn10  S    
C66   C70   A    
C49   C53   A    
C95   O5    A    
C44   C72   S    
C51   C55   A    
C79   O29   A    
C138  H30   S    
C45   O25   A    
C125  C129  A    
C152  H40   S    
C39   H3    S    
C109  H25   S    
C17   C137  S    
C102  O52   S    
C52   H8    S    
C14   C142  S    
C85   O37   A    
C4    O4    A    
O2    Zn1   S    
C141  Cl1   S    
C112  C114  A    
C75   C134  A    
C5    C149  S    
C50   H6    S    
C87   O39   A    
C46   O22   A    
C8    C152  S    
C17   C45   S    
C19   C47   S    
C122  H34   S    
C137  H29   S    
C42   C70   S    
C9    C13   S    
C34   H58   S    
C139  C143  S    
C94   O48   A    
C98   O12   A    
O7    Zn11  S    
C112  H28   S    
O35   Zn7   S    
C63   H15   S    
C105  H21   S    
C85   O33   A    
O3    Zn2   S    
C49   H5    S    
O28   Zn4   S    
O8    Zn12  S    
C76   C135  A    
C9    H45   S    
C7    C11   S    
C62   C66   A    
C10   C14   S    
C3    O19   A    
C124  H36   S    
O1    Zn1   S    
C147  C151  S    
C5    C9    S    
O53   H65   S    
C61   C65   A    
C88   O36   A    
C123  C127  A    
C8    C12   S    
O51   H63   S    
C12   H48   S    
C78   C123  A    
C10   C146  S    
C15   C143  S    
C19   C139  S    
C62   H14   S    
C26   C30   A    
C89   O42   A    
C79   C113  S    
C47   O27   A    
O45   Zn9   S    
C67   Cl7   S    
O47   Zn11  S    
C75   C132  S    
C21   C25   A    
O20   Zn4   S    
C107  C111  A    
C148  C152  S    
C74   C84   A    
C84   H20   S    
C32   C36   A    
C81   C133  A    
C92   C102  A    
C80   O31   A    
C13   C17   S    
C2    C30   S    
O4    Zn2   S    
O43   Zn7   S    
C139  C151  S    
C61   H13   S    
O30   Zn6   S    
C37   C41   A    
C77   C121  A    
C2    O18   A    
C40   C44   A    
C91   C99   A    
O34   Zn6   S    
O9    Zn10  S    
C58   C62   A    
O24   Zn2   S    
C106  C119  A    
O25   Zn3   S    
C116  Cl10  S    
C100  C116  A    
C77   C120  S    
C101  O51   S    
C115  Cl9   S    
C15   C19   S    
C50   C54   A    
C87   C147  S    
C14   Cl14  S    
C45   O21   A    
C135  O55   S    
C99   C115  A    
C5    C17   S    
C86   C146  S    
C117  Cl11  S    
C18   C138  S    
C105  C109  A    
O10   Zn9   S    
C13   C141  S    
C136  O56   S    
C124  C128  A    
C104  C130  S    
C143  Cl3   S    
C25   H53   S    
C18   C46   S    
C48   O28   A    
O17   Zn3   S    
C22   H50   S    
O60   H72   S    
C24   C28   A    
C138  C142  S    
O54   H66   S    
C53   C57   A    
C33   C37   A    
C108  C112  A    
O48   Zn12  S    
C35   C39   A    
O56   H68   S    
O49   H61   S    
C37   H1    S    
C91   C93   S    
O50   H62   S    
C106  H22   S    
C103  C129  S    
O13   Zn9   S    
C20   C48   S    
C92   C101  A    
C7    C151  S    
C96   O10   A    
C1    O1    A    
C24   C44   A    
C31   C35   A    
C7    H43   S    
C64   C68   A    
C73   C82   A    
C104  O15   A    
C5    H41   S    
C137  C141  S    
C84   C136  A    
C140  C144  S    
C85   C145  S    
C128  C130  A    
C6    C10   S    
C75   C133  A    
C101  C117  A    
C20   C140  S    
C78   C119  S    
C73   C89   S    
O11   Zn12  S    
C64   H16   S    
O12   Zn11  S    
C11   C147  S    
C107  H23   S    
C65   C69   A    
C108  H24   S    
C9    C145  S    
C8    H44   S    
C111  C114  A    
C67   C71   A    
O46   Zn10  S    
C11   H47   S    
C93   O46   A    
C6    C150  S    
C56   C60   A    
O59   H71   S    
C22   C26   A    
C105  C119  A    
O39   Zn8   S    
C145  C149  S    
C86   O38   A    
C90   O43   A    
C16   Cl16  S    
O55   H67   S    
C14   C18   S    
C144  C148  S    
C76   C136  A    
C87   O35   A    
C115  C131  A    
C138  C150  S    
C103  O14   A    
C143  C147  S    
C8    C20   S    
C38   C42   A    
C96   O6    A    
C82   H18   S    
C127  O59   S    
C79   O30   A    
C35   H59   S    
C134  O54   S    
C58   C96   S    
C121  C125  A    
C33   H57   S    
C97   O7    A    
C23   C27   A    
C78   C124  A    
C142  Cl2   S    
C83   C135  A    
C102  C118  A    
C16   C20   S    
C151  H39   S    
C86   O34   A    
C128  O60   S    
C89   O41   A    
C137  C149  S    
C10   H46   S    
C92   C94   S    
C99   O49   S    
C6    C18   S    
C63   C67   A    
C36   C40   A    
C118  C132  A    
O6    Zn10  S    
C39   C43   A    
O41   Zn5   S    
C80   O32   A    
C23   H51   S    
O32   Zn8   S    
O37   Zn6   S    
C122  C126  A    
C118  Cl12  S    
C94   O47   A    
C54   H10   S    
C110  C113  A    
C48   O24   A    
O15   Zn11  S    
C80   C114  S    
C133  O53   S    
C59   C97   S    
C21   C41   A    
O27   Zn4   S    
C38   H2    S    
C139  H31   S    
C54   C58   A    
O18   Zn3   S    
C24   H52   S    
C34   C38   A    
O36   Zn8   S    
C109  C113  A    
C12   C148  S    
C127  C130  A    
C125  O57   S    
C65   Cl5   S    
C53   H9    S    
C22   C42   A    
C116  C131  A    
O5    Zn9   S    
C51   H7    S    
C66   Cl6   S    
C27   H55   S    
C46   O26   A    
C123  H35   S    
C121  H33   S    
C1    O17   A    
C106  C110  A    
C57   C95   S    
C40   H4    S    
C13   Cl13  S    
C52   C56   A    
C15   Cl15  S    
