data_mof_unit_18290.cif
_audit_creation_date              2012-12-10T20:53:12-0500
_audit_creation_method            fapswitch 2.2
_symmetry_space_group_name_H-M    P1
_symmetry_Int_Tables_number       1
_space_group_crystal_system       triclinic
_cell_length_a                    18.340418
_cell_length_b                    18.343082
_cell_length_c                    18.343256
_cell_angle_alpha                 59.929788
_cell_angle_beta                  59.931534
_cell_angle_gamma                 60.006805
_cell_volume                      4359.22501876

loop_
_atom_site_label
_atom_site_type_symbol
_atom_type_description
_atom_site_fract_x
_atom_site_fract_y
_atom_site_fract_z
_atom_type_partial_charge
C1    C     C_R   0.389852 0.110700 0.109564 0.934231
C2    C     C_R   0.343246 0.824010 0.835515 -0.248845
C3    C     C_R   0.908142 0.505896 0.037821 -0.028517
C4    C     C_R   0.496710 0.091424 0.962174 0.041484
C5    C     C_R   0.503570 0.908492 0.037846 0.042198
C6    C     C_R   0.944749 0.947192 0.553406 -0.135977
C7    C     C_R   0.055219 0.052851 0.446500 -0.134456
C8    C     C_R   0.944707 0.555448 0.947191 -0.136265
C9    C     C_R   0.055432 0.445266 0.052535 -0.142007
C10   C     C_R   0.554396 0.944531 0.947431 -0.145370
C11   C     C_R   0.445689 0.055454 0.052542 -0.147076
C12   C     C_R   0.177360 0.171718 0.652002 -0.250769
C13   C     C_R   0.822652 0.828306 0.347997 -0.251470
C14   C     C_R   0.144740 0.607643 0.270802 -0.173237
C15   C     C_R   0.855309 0.392293 0.729167 -0.174633
C16   C     C_R   0.613169 0.268176 0.135644 -0.175439
C17   C     C_R   0.386807 0.731798 0.864197 -0.181256
C18   C     C_R   0.269209 0.142522 0.606839 -0.171221
C19   C     C_R   0.730803 0.857495 0.393159 -0.172191
C20   C     C_R   0.064076 0.590898 0.310214 0.146553
C21   C     C_R   0.610164 0.889308 0.890412 0.928584
C22   C     C_R   0.935936 0.409099 0.689781 0.145960
C23   C     C_R   0.591098 0.309789 0.057750 0.130681
C24   C     C_R   0.408903 0.690202 0.942073 0.130460
C25   C     C_R   0.310087 0.061125 0.591293 0.140023
C26   C     C_R   0.689915 0.938894 0.408703 0.140415
C27   C     C_R   0.013389 0.620777 0.257354 -0.268939
C28   C     C_R   0.986598 0.379243 0.742658 -0.267928
C29   C     C_R   0.613820 0.258579 0.008177 -0.242373
C30   C     C_R   0.386186 0.741425 0.991632 -0.238023
C31   C     C_R   0.258551 0.008735 0.622035 -0.251971
C32   C     C_R   0.110634 0.109681 0.389949 0.923304
C33   C     C_R   0.741443 0.991294 0.377958 -0.251812
C34   C     C_R   0.043600 0.666188 0.165647 -0.106486
C35   C     C_R   0.956402 0.333786 0.834354 -0.103617
C36   C     C_R   0.657148 0.166315 0.037008 -0.095206
C37   C     C_R   0.342831 0.833683 0.962807 -0.096727
C38   C     C_R   0.166692 0.038005 0.667049 -0.104335
C39   C     C_R   0.833304 0.962029 0.332947 -0.104242
C40   C     C_R   0.124251 0.682865 0.125768 0.542434
C41   C     C_R   0.875789 0.317043 0.874206 0.543416
C42   C     C_R   0.678802 0.124229 0.115137 0.532853
C43   C     C_R   0.889347 0.890342 0.610038 0.926326
C44   C     C_R   0.321148 0.875753 0.884697 0.533193
C45   C     C_R   0.125315 0.119501 0.682312 0.535312
C46   C     C_R   0.874690 0.880530 0.317687 0.535578
C47   C     C_R   0.978594 0.592724 0.463067 -0.268898
C48   C     C_R   0.021424 0.407278 0.536931 -0.268796
C49   C     C_R   0.592913 0.462944 0.976229 -0.256171
C50   C     C_R   0.407088 0.537047 0.023592 -0.266958
C51   C     C_R   0.463002 0.976851 0.592926 -0.266290
C52   C     C_R   0.536999 0.023156 0.407073 -0.266525
C53   C     C_R   0.945769 0.552032 0.555502 -0.052260
C54   C     C_R   0.110212 0.389780 0.110027 0.917067
C55   C     C_R   0.054246 0.447969 0.444497 -0.051910
C56   C     C_R   0.552006 0.555539 0.946374 -0.066551
C57   C     C_R   0.447994 0.444456 0.053496 -0.070341
C58   C     C_R   0.555527 0.945685 0.551999 -0.058881
C59   C     C_R   0.444474 0.054321 0.447999 -0.058697
C60   C     C_R   0.967576 0.457866 0.592991 0.013458
C61   C     C_R   0.032442 0.542136 0.407007 0.013285
C62   C     C_R   0.457658 0.593176 0.970638 0.012844
C63   C     C_R   0.542343 0.406817 0.029194 0.012056
C64   C     C_R   0.593069 0.969159 0.457638 0.015052
C65   C     C_R   0.889915 0.610275 0.889794 0.840334
C66   C     C_R   0.406932 0.030851 0.542360 0.015078
C67   C     C_R   0.110218 0.390528 0.389671 0.779595
C68   C     C_R   0.889786 0.609472 0.610329 0.779829
C69   C     C_R   0.390524 0.389635 0.109853 0.815335
C70   C     C_R   0.609474 0.610364 0.890109 0.827530
C71   C     C_R   0.389643 0.110219 0.390558 0.800757
C72   C     C_R   0.610357 0.889783 0.609441 0.800598
C73   C     C_R   0.190312 0.914291 0.452166 0.456672
C74   C     C_R   0.809666 0.085758 0.547426 0.456771
C75   C     C_R   0.183814 0.491027 0.921089 0.473279
C76   C     C_R   0.174815 0.653323 0.179114 -0.252720
C77   C     C_R   0.815882 0.511576 0.079605 0.446904
C78   C     C_R   0.493378 0.182957 0.921169 0.457955
C79   C     C_R   0.507339 0.816817 0.078955 0.447549
C80   C     C_R   0.225260 0.820445 0.480822 -0.247224
C81   C     C_R   0.774743 0.179617 0.518030 -0.247960
C82   C     C_R   0.214533 0.544547 0.831929 -0.230492
C83   C     C_R   0.786624 0.453250 0.165195 -0.126581
C84   C     C_R   0.547363 0.213125 0.832076 -0.251279
C85   C     C_R   0.453342 0.786615 0.168025 -0.247036
C86   C     C_R   0.169251 0.769803 0.531486 -0.194995
C87   C     C_R   0.825248 0.346569 0.820844 -0.254580
C88   C     C_R   0.830767 0.230272 0.466888 -0.196333
C89   C     C_R   0.157989 0.599939 0.782046 -0.189106
C90   C     C_R   0.843948 0.394389 0.214081 -0.233117
C91   C     C_R   0.601783 0.156524 0.782229 -0.178097
C92   C     C_R   0.398547 0.843323 0.217757 -0.179178
C93   C     C_R   0.077396 0.811283 0.555715 -0.150628
C94   C     C_R   0.922606 0.188770 0.443173 -0.151085
C95   C     C_R   0.069960 0.602888 0.819455 -0.157317
C96   C     C_R   0.931421 0.393114 0.178110 -0.158665
C97   C     C_R   0.603497 0.068924 0.819799 -0.157964
C98   C     C_R   0.656705 0.175959 0.164330 -0.250458
C99   C     C_R   0.396563 0.931027 0.180137 -0.158751
C100  C     C_R   0.038792 0.905624 0.528320 -0.012206
C101  C     C_R   0.961186 0.094423 0.471241 -0.011929
C102  C     C_R   0.034983 0.551867 0.909700 0.006613
C103  C     C_R   0.965574 0.447674 0.089401 0.006313
C104  C     C_R   0.552019 0.034425 0.909971 -0.014915
C105  C     C_R   0.448090 0.965539 0.089997 -0.014807
C106  C     C_R   0.095396 0.958349 0.474970 0.040666
C107  C     C_R   0.904574 0.041699 0.524777 0.040587
C108  C     C_R   0.091825 0.495921 0.962116 0.031599
H1    H     H_    0.802786 0.302456 0.445091 0.144458
H2    H     H_    0.335019 0.566422 0.041344 0.184185
H3    H     H_    0.433638 0.959648 0.665018 0.180682
H4    H     H_    0.566362 0.040360 0.334980 0.180519
H5    H     H_    0.296702 0.786116 0.463731 0.124036
H6    H     H_    0.703310 0.213945 0.534860 0.124470
H7    H     H_    0.283456 0.542302 0.800247 0.126322
H8    H     H_    0.717510 0.456288 0.195483 0.151220
H9    H     H_    0.546223 0.281680 0.800424 0.126038
H10   H     H_    0.454731 0.717976 0.199732 0.130753
H11   H     H_    0.037139 0.768076 0.595932 0.108781
H12   H     H_    0.197269 0.697643 0.552484 0.143286
H13   H     H_    0.962876 0.231975 0.402660 0.107761
H14   H     H_    0.029987 0.645930 0.776125 0.130833
H15   H     H_    0.971704 0.348036 0.220990 0.130488
H16   H     H_    0.645847 0.028888 0.776598 0.161418
H17   H     H_    0.353997 0.971115 0.223283 0.160039
H18   H     H_    0.237349 0.665496 0.149818 0.130955
H19   H     H_    0.762744 0.334345 0.850119 0.130367
H20   H     H_    0.672798 0.144962 0.224884 0.133037
H21   H     H_    0.327133 0.854994 0.774975 0.132758
H22   H     H_    0.146924 0.234897 0.663107 0.131681
H23   H     H_    0.819796 0.350982 0.281244 0.158419
H24   H     H_    0.853095 0.765124 0.336895 0.131392
H25   H     H_    0.184333 0.585035 0.311032 0.138758
H26   H     H_    0.815737 0.414879 0.688923 0.138207
H27   H     H_    0.595908 0.307060 0.174459 0.144216
H28   H     H_    0.404061 0.692904 0.825396 0.140965
H29   H     H_    0.308399 0.183465 0.583497 0.139394
H30   H     H_    0.691619 0.816545 0.416501 0.138784
H31   H     H_    0.950867 0.608398 0.287133 0.146547
H32   H     H_    0.049094 0.391664 0.712897 0.147929
H33   H     H_    0.596977 0.289973 0.947969 0.144294
H34   H     H_    0.182962 0.640117 0.713318 0.154723
H35   H     H_    0.403060 0.710047 0.051821 0.147860
H36   H     H_    0.289434 0.945687 0.610497 0.151875
H37   H     H_    0.710552 0.054343 0.389494 0.151921
H38   H     H_    0.004132 0.688586 0.125391 0.163564
H39   H     H_    0.995852 0.311401 0.874622 0.166069
H40   H     H_    0.673644 0.127323 0.998658 0.163473
H41   H     H_    0.326335 0.872685 0.001147 0.164345
H42   H     H_    0.127453 0.997255 0.690035 0.165377
H43   H     H_    0.872535 0.002785 0.309962 0.165482
H44   H     H_    0.310831 0.921400 0.394960 0.310765
H45   H     H_    0.358096 0.818783 0.286554 0.157265
H46   H     H_    0.689136 0.078616 0.604991 0.310998
H47   H     H_    0.303407 0.439426 0.928949 0.318026
H48   H     H_    0.754230 0.633854 0.026681 0.332424
H49   H     H_    0.444523 0.302046 0.929290 0.313850
H50   H     H_    0.557900 0.697170 0.071438 0.335181
H51   H     H_    0.208858 0.735192 0.017742 0.331697
H52   H     H_    0.791225 0.264626 0.982202 0.331803
H53   H     H_    0.731651 0.013855 0.197589 0.331637
H54   H     H_    0.268250 0.986109 0.802269 0.331573
H55   H     H_    0.015812 0.204567 0.732183 0.331636
H56   H     H_    0.642195 0.181049 0.713404 0.157485
H57   H     H_    0.984201 0.795465 0.267823 0.331688
H58   H     H_    0.962764 0.664639 0.433794 0.181685
H59   H     H_    0.037253 0.335363 0.566204 0.181674
H60   H     H_    0.664984 0.433564 0.958461 0.184540
O1    O     O_3   0.250000 0.250000 0.250000 -0.499212
O2    O     O_R   0.865800 0.694910 0.573470 -0.651709
O3    O     O_R   0.305090 0.426530 0.134200 -0.631557
O4    O     O_R   0.694910 0.573470 0.865800 -0.629637
O5    O     O_R   0.426530 0.134200 0.305090 -0.652463
O6    O     O_R   0.573470 0.865800 0.694910 -0.652334
O7    O     O_R   0.134190 0.426530 0.134200 -0.610158
O8    O     O_R   0.865810 0.573470 0.865800 -0.601100
O9    O     O_R   0.426530 0.134200 0.134190 -0.606880
O10   O     O_R   0.573470 0.865800 0.865810 -0.604149
O11   O     O_R   0.134200 0.134190 0.426530 -0.620755
O12   O     O_3   0.750000 0.750000 0.750000 -0.497758
O13   O     O_R   0.865800 0.865810 0.573470 -0.620649
O14   O     O_R   0.426530 0.305080 0.134210 -0.622359
O15   O     O_R   0.573470 0.694920 0.865790 -0.623983
O16   O     O_R   0.305080 0.134210 0.426530 -0.623824
O17   O     O_R   0.694920 0.865790 0.573470 -0.623834
O18   O     O_R   0.134210 0.426530 0.305080 -0.641841
O19   O     O_R   0.865790 0.573470 0.694920 -0.641034
O20   O     O_3   0.248332 0.962637 0.402766 -0.813524
O21   O     O_3   0.751632 0.037394 0.597327 -0.813313
O22   O     O_3   0.243837 0.432405 0.966877 -0.770174
O23   O     O_R   0.305080 0.134200 0.134200 -0.624756
O24   O     O_3   0.751305 0.575293 0.041327 -0.772932
O25   O     O_3   0.436045 0.243065 0.966975 -0.776203
O26   O     O_3   0.565136 0.756633 0.033267 -0.784830
O27   O     O_3   0.151591 0.728025 0.035157 -0.758837
O28   O     O_3   0.848464 0.271835 0.964807 -0.756285
O29   O     O_3   0.721192 0.033058 0.141580 -0.760052
O30   O     O_3   0.278731 0.966918 0.858262 -0.758813
O31   O     O_3   0.034529 0.146099 0.726749 -0.758422
O32   O     O_3   0.965477 0.853936 0.273255 -0.758250
O33   O     O_R   0.694920 0.865800 0.865800 -0.633290
O34   O     O_R   0.134200 0.134200 0.305080 -0.640320
O35   O     O_R   0.865800 0.865800 0.694920 -0.636206
O36   O     O_R   0.134200 0.305080 0.134200 -0.635554
O37   O     O_R   0.865800 0.694920 0.865800 -0.652056
O38   O     O_R   0.134200 0.305090 0.426530 -0.651797
Zn1   Zn    Zn3+2 0.206620 0.206630 0.380140 0.985077
Zn2   Zn    Zn3+2 0.793380 0.793370 0.619860 0.986543
Zn3   Zn    Zn3+2 0.206630 0.380140 0.206620 1.000515
Zn4   Zn    Zn3+2 0.793370 0.619860 0.793380 1.003838
Zn5   Zn    Zn3+2 0.380140 0.206620 0.206630 1.018380
Zn6   Zn    Zn3+2 0.619860 0.793380 0.793370 1.017324
Zn7   Zn    Zn3+2 0.206620 0.206620 0.206620 1.032691
Zn8   Zn    Zn3+2 0.793380 0.793380 0.793380 1.014229

loop_
_geom_bond_atom_site_label_1
_geom_bond_atom_site_label_2
_ccdc_geom_bond_type
C25   C31   A    
C48   C55   A    
C44   O30   S    
C49   C63   A    
C13   H24   S    
C76   H18   S    
C47   C61   A    
H50   O26   S    
O35   Zn8   S    
C36   C42   A    
C1    C11   S    
H44   O20   S    
C58   C72   S    
C87   H19   S    
C99   H17   S    
C15   H26   S    
C5    C105  A    
C9    C108  A    
H51   O27   S    
C29   C36   A    
C59   C71   S    
C33   C39   A    
O16   Zn1   S    
C12   H22   S    
C34   C40   A    
C23   C29   A    
C86   C93   A    
C82   H7    S    
C97   H16   S    
O4    Zn4   S    
C10   C104  A    
C42   C98   A    
C59   C66   A    
C22   C60   S    
C13   C46   A    
O3    Zn3   S    
C65   O37   A    
C52   H4    S    
C89   H34   S    
O1    Zn5   S    
C39   H43   S    
C50   H2    S    
C2    H21   S    
C4    C78   A    
C69   O3    A    
C20   C61   S    
O12   Zn6   S    
C19   C26   A    
C70   O4    A    
C38   C45   A    
C80   C86   A    
C74   C107  A    
C68   O2    A    
C36   H40   S    
C15   C22   A    
C94   C101  A    
C2    C44   A    
C84   H9    S    
C28   H32   S    
C81   H6    S    
C11   C105  A    
C51   H3    S    
C6    C107  A    
C32   O11   A    
C48   C60   A    
C92   H45   S    
C84   C91   A    
C72   O6    A    
C5    C79   A    
C95   C102  A    
C69   O14   A    
H52   O28   S    
C23   C63   S    
O1    Zn3   S    
C8    C65   S    
C27   C34   A    
C22   C28   A    
C71   O5    A    
C2    C17   A    
C50   C57   A    
O17   Zn2   S    
C31   H36   S    
C18   C25   A    
C1    O9    A    
O6    Zn6   S    
C41   C87   A    
C71   O16   A    
C38   H42   S    
C72   O17   A    
C53   C68   S    
C85   C92   A    
C57   C63   A    
C88   C94   A    
C10   C21   S    
C58   C64   A    
C99   C105  A    
O11   Zn1   S    
C17   C24   A    
C13   C19   A    
C97   C104  A    
C14   C20   A    
O13   Zn2   S    
C28   C35   A    
C49   H60   S    
C3    C8    A    
C52   C64   A    
H57   O32   S    
C47   H58   S    
O38   Zn1   S    
O15   Zn6   S    
O36   Zn7   S    
C43   O13   A    
C27   H31   S    
C30   H35   S    
C40   C76   A    
C30   C37   A    
C51   C66   A    
C14   C76   A    
C54   O7    A    
C89   C95   A    
C18   H29   S    
O12   Zn4   S    
O2    Zn2   S    
H47   O22   S    
C21   O33   A    
C52   C59   A    
C74   O21   S    
C26   C33   A    
C46   O32   S    
O19   Zn4   S    
C9    C103  A    
C29   H33   S    
C75   O22   S    
C17   H28   S    
C53   C60   A    
C7    C106  A    
O10   Zn6   S    
C51   C58   A    
C35   H39   S    
C91   C97   A    
C4    C11   A    
C102  C108  A    
C79   O26   S    
C93   C100  A    
C67   O38   A    
C33   H37   S    
C39   C46   A    
C90   H23   S    
H48   O24   S    
C95   H14   S    
C21   O10   A    
C14   H25   S    
H46   O21   S    
O37   Zn8   S    
C16   C23   A    
C56   C70   S    
C6    C43   S    
C65   O8    A    
C43   O35   A    
C50   C62   A    
H49   O25   S    
C91   H56   S    
C96   C103  A    
C88   H1    S    
C74   C81   A    
C3    C77   A    
C1    O23   A    
C79   C85   A    
C73   O20   S    
C15   C87   A    
C3    C103  A    
C83   C90   A    
C24   C62   S    
C7    C32   S    
C96   H15   S    
C77   O24   S    
C83   H8    S    
C42   O29   S    
C25   C66   S    
C37   H41   S    
C12   C45   A    
O1    Zn1   S    
C55   C67   S    
C67   O18   A    
C75   C82   A    
C90   C96   A    
C20   C27   A    
C26   C64   S    
C45   O31   S    
C49   C56   A    
O1    Zn7   S    
H54   O30   S    
C100  C106  A    
C31   C38   A    
H53   O29   S    
O9    Zn5   S    
C37   C44   A    
O12   Zn8   S    
C5    C10   A    
O5    Zn5   S    
C34   H38   S    
C16   C98   A    
C73   C106  A    
C48   H59   S    
C82   C89   A    
C19   H30   S    
C54   O36   A    
C47   C53   A    
C55   C61   A    
C98   H20   S    
O14   Zn5   S    
C73   C80   A    
O8    Zn4   S    
C4    C104  A    
C56   C62   A    
O7    Zn3   S    
O34   Zn7   S    
C32   O34   A    
C85   H10   S    
C35   C41   A    
C24   C30   A    
O33   Zn8   S    
C81   C88   A    
H55   O31   S    
C68   O19   A    
C94   H13   S    
C78   C84   A    
C70   O15   A    
C75   C108  A    
C80   H5    S    
C7    C101  A    
O18   Zn3   S    
C12   C18   A    
C101  C107  A    
C77   C83   A    
C86   H12   S    
C9    C54   S    
C93   H11   S    
C57   C69   S    
O12   Zn2   S    
C16   H27   S    
C8    C102  A    
C41   O28   S    
C78   O25   S    
O23   Zn7   S    
C92   C99   A    
C6    C100  A    
C40   O27   S    
