data_mof_unit_16436.cif
_audit_creation_date              2012-12-11T15:27:10-0500
_audit_creation_method            fapswitch 2.2
_symmetry_space_group_name_H-M    P1
_symmetry_Int_Tables_number       1
_space_group_crystal_system       triclinic
_cell_length_a                    13.949765
_cell_length_b                    13.949759
_cell_length_c                    27.422145
_cell_angle_alpha                 90.000015
_cell_angle_beta                  89.999962
_cell_angle_gamma                 119.999873
_cell_volume                      4621.32175139

loop_
_atom_site_label
_atom_site_type_symbol
_atom_type_description
_atom_site_fract_x
_atom_site_fract_y
_atom_site_fract_z
_atom_type_partial_charge
C1    C     C_R   0.234069 0.787409 0.568558 0.541101
C2    C     C_R   0.212591 0.446660 0.568558 0.541102
C3    C     C_R   0.553340 0.765931 0.568558 0.541102
C4    C     C_3   0.668733 0.736173 0.787280 0.132240
C5    C     C_3   0.263827 0.932559 0.787280 0.132240
C6    C     C_3   0.067437 0.331263 0.787280 0.132240
C7    C     C_3   0.646247 0.723919 0.731512 -0.174986
C8    C     C_3   0.276081 0.922326 0.731512 -0.174987
C9    C     C_3   0.077670 0.353749 0.731512 -0.174986
C10   C     C_1   0.713511 0.864335 0.857712 -0.005857
C11   C     C_1   0.135665 0.849176 0.857712 -0.005857
C12   C     C_1   0.150824 0.286489 0.857712 -0.005858
C13   C     C_1   0.633201 0.817414 0.657458 -0.073651
C14   C     C_1   0.182586 0.815787 0.657458 -0.073651
C15   C     C_1   0.184213 0.366799 0.657458 -0.073651
C16   C     C_1   0.603686 0.798349 0.615603 -0.012396
C17   C     C_1   0.201651 0.805337 0.615603 -0.012395
C18   C     C_1   0.194663 0.396314 0.615603 -0.012395
C19   C     C_R   0.106646 0.219557 0.948716 0.558064
C20   C     C_R   0.780443 0.887089 0.948716 0.558064
C21   C     C_R   0.112911 0.893354 0.948716 0.558064
C22   C     C_R   0.614291 0.807194 0.385578 0.025221
C23   C     C_R   0.192805 0.807096 0.385578 0.025222
C24   C     C_R   0.192906 0.385712 0.385578 0.025222
C25   C     C_R   0.608504 0.891875 0.360410 -0.125819
C26   C     C_R   0.108125 0.716628 0.360409 -0.125819
C27   C     C_R   0.283376 0.391506 0.360408 -0.125818
C28   C     C_R   0.637097 0.910619 0.311531 -0.122826
C29   C     C_R   0.089382 0.726477 0.311531 -0.122826
C30   C     C_R   0.273528 0.362916 0.311529 -0.122828
C31   C     C_R   0.674056 0.846589 0.287426 0.036496
C32   C     C_R   0.153410 0.827466 0.287426 0.036496
C33   C     C_R   0.172538 0.325952 0.287425 0.036496
C34   C     C_R   0.233225 0.787533 0.431560 0.542601
C35   C     C_R   0.212467 0.445692 0.431560 0.542601
C36   C     C_R   0.554308 0.766775 0.431560 0.542601
C37   C     C_R   0.690851 0.769992 0.313851 -0.120341
C38   C     C_R   0.230007 0.920858 0.313851 -0.120341
C39   C     C_R   0.079144 0.309150 0.313850 -0.120340
C40   C     C_R   0.660470 0.749866 0.362665 -0.127215
C41   C     C_R   0.250133 0.910604 0.362665 -0.127214
C42   C     C_R   0.089398 0.339529 0.362665 -0.127214
C43   C     C_R   0.655391 0.759329 0.206325 -0.119735
C44   C     C_R   0.240671 0.896062 0.206325 -0.119735
C45   C     C_R   0.103939 0.344613 0.206324 -0.119735
C46   C     C_R   0.676447 0.767891 0.156555 -0.129564
C47   C     C_R   0.232109 0.908556 0.156555 -0.129564
C48   C     C_R   0.091444 0.323555 0.156554 -0.129564
C49   C     C_R   0.754752 0.967004 0.161597 -0.124938
C50   C     C_R   0.032996 0.787747 0.161597 -0.124938
C51   C     C_R   0.212255 0.245253 0.161596 -0.124939
C52   C     C_R   0.735638 0.958683 0.211460 -0.121563
C53   C     C_R   0.041317 0.776954 0.211460 -0.121563
C54   C     C_R   0.223050 0.264370 0.211459 -0.121563
C55   C     C_R   0.688769 0.855134 0.234385 0.035380
C56   C     C_R   0.144866 0.833635 0.234385 0.035380
C57   C     C_R   0.166369 0.311238 0.234384 0.035380
C58   C     C_R   0.729541 0.872149 0.134308 0.024139
C59   C     C_R   0.127851 0.857392 0.134308 0.024139
C60   C     C_R   0.142608 0.270461 0.134308 0.024139
C61   C     C_R   0.106563 0.221478 0.086183 0.550884
C62   C     C_R   0.778522 0.885085 0.086183 0.550884
C63   C     C_R   0.114915 0.893437 0.086183 0.550884
C64   C     C_3   0.570314 0.853554 0.736087 -0.212534
C65   C     C_3   0.146446 0.716760 0.736087 -0.212534
C66   C     C_3   0.283237 0.429689 0.736087 -0.212534
C67   C     C_3   0.773753 0.928914 0.720971 -0.234332
C68   C     C_3   0.071086 0.844839 0.720971 -0.234332
C69   C     C_3   0.155167 0.226249 0.720971 -0.234332
C70   C     C_3   0.794501 0.941310 0.776860 -0.266959
C71   C     C_3   0.058690 0.853191 0.776861 -0.266959
C72   C     C_3   0.146814 0.205501 0.776861 -0.266958
C73   C     C_1   0.738268 0.874011 0.900188 0.026069
C74   C     C_1   0.125989 0.864256 0.900188 0.026069
C75   C     C_1   0.135744 0.261733 0.900188 0.026069
C76   C     C_3   0.656224 0.831354 0.710068 0.028739
C77   C     C_3   0.168646 0.824870 0.710068 0.028740
C78   C     C_3   0.175130 0.343776 0.710068 0.028739
C79   C     C_3   0.591825 0.866814 0.791806 -0.175762
C80   C     C_3   0.133186 0.725011 0.791806 -0.175763
C81   C     C_3   0.274987 0.408178 0.791806 -0.175762
C82   C     C_3   0.691586 0.851902 0.804960 0.060441
C83   C     C_3   0.148099 0.839684 0.804960 0.060442
C84   C     C_3   0.160316 0.308415 0.804960 0.060441
Cr1   Cr    Cr6+3 0.164410 0.584450 0.499910 1.019422
Cr2   Cr    Cr6+3 0.415550 0.579960 0.499910 1.019422
Cr3   Cr    Cr6+3 0.420040 0.835590 0.499910 1.019422
Cr4   Cr    Cr6+3 0.156760 0.076070 0.017830 1.041514
Cr5   Cr    Cr6+3 0.923930 0.080690 0.017830 1.041514
Cr6   Cr    Cr6+3 0.919310 0.843240 0.017830 1.041514
H1    H     H_    0.608929 0.950411 0.803341 0.161879
H2    H     H_    0.049589 0.658517 0.803341 0.161879
H3    H     H_    0.341483 0.391077 0.803342 0.161881
H4    H     H_    0.484979 0.783946 0.729157 0.132167
H5    H     H_    0.216054 0.701032 0.729157 0.132166
H6    H     H_    0.298961 0.515023 0.729157 0.132166
H7    H     H_    0.516307 0.805293 0.811603 0.210381
H8    H     H_    0.194707 0.711013 0.811603 0.210378
H9    H     H_    0.288981 0.483696 0.811603 0.210377
H10   H     H_    0.743134 0.728615 0.794778 0.132755
H11   H     H_    0.271385 0.014518 0.794779 0.132755
H12   H     H_    0.985480 0.256860 0.794778 0.132754
H13   H     H_    0.573563 0.937843 0.377199 0.132749
H14   H     H_    0.062158 0.635720 0.377199 0.132750
H15   H     H_    0.364286 0.426451 0.377197 0.132750
H16   H     H_    0.615541 0.678120 0.223046 0.105114
H17   H     H_    0.321879 0.937421 0.223046 0.105114
H18   H     H_    0.062580 0.384463 0.223046 0.105115
H19   H     H_    0.656282 0.693914 0.135923 0.122459
H20   H     H_    0.306086 0.962368 0.135923 0.122459
H21   H     H_    0.037630 0.343718 0.135923 0.122459
H22   H     H_    0.623463 0.970222 0.291998 0.100560
H23   H     H_    0.029778 0.653240 0.291998 0.100560
H24   H     H_    0.346767 0.376555 0.291996 0.100561
H25   H     H_    0.762228 0.033752 0.232311 0.101875
H26   H     H_    0.966248 0.728475 0.232311 0.101875
H27   H     H_    0.271530 0.237782 0.232310 0.101876
H28   H     H_    0.796822 0.048561 0.145166 0.130995
H29   H     H_    0.951439 0.748260 0.145166 0.130995
H30   H     H_    0.251742 0.203183 0.145166 0.130995
H31   H     H_    0.723066 0.722432 0.296255 0.101559
H32   H     H_    0.277567 0.000634 0.296255 0.101560
H33   H     H_    0.999367 0.276930 0.296255 0.101560
H34   H     H_    0.574841 0.929932 0.721178 0.134694
H35   H     H_    0.070068 0.644908 0.721178 0.134695
H36   H     H_    0.355092 0.425167 0.721178 0.134695
H37   H     H_    0.667233 0.685317 0.381563 0.126650
H38   H     H_    0.314681 0.981915 0.381564 0.126650
H39   H     H_    0.018084 0.332760 0.381564 0.126649
H40   H     H_    0.837011 0.914416 0.703068 0.114971
H41   H     H_    0.085584 0.922595 0.703069 0.114971
H42   H     H_    0.077413 0.162989 0.703068 0.114970
H43   H     H_    0.782972 0.007121 0.705842 0.127224
H44   H     H_    0.992879 0.775852 0.705843 0.127224
H45   H     H_    0.224157 0.217034 0.705843 0.127225
H46   H     H_    0.813732 0.025563 0.788472 0.124395
H47   H     H_    0.974437 0.788169 0.788473 0.124395
H48   H     H_    0.211838 0.186273 0.788473 0.124396
H49   H     H_    0.868275 0.933560 0.785600 0.099577
H50   H     H_    0.066440 0.934716 0.785601 0.099576
H51   H     H_    0.065291 0.131725 0.785600 0.099576
H52   H     H_    0.562332 0.652809 0.723637 0.160961
H53   H     H_    0.347191 0.909521 0.723637 0.160961
H54   H     H_    0.090470 0.437662 0.723636 0.160962
H55   H     H_    0.706834 0.705788 0.713371 0.095470
H56   H     H_    0.294212 0.001045 0.713371 0.095470
H57   H     H_    0.998953 0.293159 0.713370 0.095469
O1    O     O_R   0.137310 0.468260 0.552980 -0.508871
O2    O     O_R   0.531740 0.669050 0.552980 -0.508871
O3    O     O_R   0.330950 0.862690 0.552980 -0.508871
O4    O     O_R   0.180530 0.983530 0.965090 -0.496699
O5    O     O_R   0.016470 0.197000 0.965090 -0.496699
O6    O     O_R   0.803000 0.819470 0.965090 -0.496699
O7    O     O_R   0.174120 0.688790 0.549730 -0.498152
O8    O     O_R   0.311210 0.485330 0.549730 -0.498152
O9    O     O_R   0.514670 0.825880 0.549730 -0.498153
O10   O     O_R   0.139940 0.470480 0.446230 -0.521732
O11   O     O_R   0.529520 0.669460 0.446230 -0.521734
O12   O     O_R   0.330540 0.860060 0.446230 -0.521733
O13   O     O_R   0.176560 0.690850 0.450770 -0.506263
O14   O     O_R   0.309150 0.485710 0.450770 -0.506264
O15   O     O_R   0.514290 0.823440 0.450770 -0.506263
O16   O     O_3   0.333333 0.666667 0.499990 -0.265302
O17   O     O_3   0.000000 1.000000 0.017910 -0.229900
O18   O     O_R   0.149710 0.171070 0.967700 -0.500702
O19   O     O_R   0.828930 0.978640 0.967700 -0.500702
O20   O     O_R   0.021360 0.850290 0.967700 -0.500702
O21   O     O_R   0.178510 0.985930 0.071830 -0.517260
O22   O     O_R   0.014070 0.192580 0.071830 -0.517261
O23   O     O_R   0.807420 0.821490 0.071830 -0.517260
O24   O     O_R   0.147830 0.173300 0.066650 -0.500558
O25   O     O_R   0.826700 0.974530 0.066650 -0.500559
O26   O     O_R   0.025470 0.852170 0.066650 -0.500559
Cl1   Cl    Cl    0.556063 0.624956 0.819603 -0.674962
Cl2   Cl    Cl    0.375044 0.931106 0.819603 -0.674962
Cl3   Cl    Cl    0.068885 0.443931 0.819602 -0.674960

loop_
_geom_bond_atom_site_label_1
_geom_bond_atom_site_label_2
_ccdc_geom_bond_type
C58   C62   S    
C15   C18   T    
Cr3   O16   S    
C2    O8    A    
Cr6   O20   S    
C2    C18   S    
C53   H26   S    
C24   C42   A    
C71   H50   S    
C41   H38   S    
Cr1   O1    S    
C6    C9    S    
C71   H47   S    
C28   H22   S    
C25   C28   A    
Cr6   O26   S    
C45   C57   A    
C35   O14   A    
C50   C59   A    
C21   O4    A    
C52   H25   S    
C67   H43   S    
C37   C40   A    
C80   C83   S    
C5    C83   S    
C10   C73   T    
C14   C77   S    
C15   C78   S    
C27   H15   S    
C2    O1    A    
C39   H33   S    
C12   C84   S    
C45   H18   S    
C23   C26   A    
C26   H14   S    
Cr5   O5    S    
Cr3   O12   S    
Cr4   O21   S    
Cr3   O3    S    
C24   C27   A    
C48   C60   A    
C61   O24   A    
Cr1   O13   S    
C32   C38   A    
C42   H39   S    
Cr5   O17   S    
C79   H1    S    
C44   C47   A    
C36   O11   A    
Cr1   O7    S    
C34   O12   A    
C49   C52   A    
C72   H48   S    
C70   H49   S    
C69   H45   S    
C65   C80   S    
C4    Cl1   S    
C46   C58   A    
C27   C30   A    
C70   H46   S    
C5    Cl2   S    
C14   C17   T    
Cr6   O23   S    
C69   C78   S    
Cr1   O10   S    
C4    C7    S    
C62   O23   A    
C9    H54   S    
C63   O26   A    
C39   C42   A    
C71   C83   S    
C72   H51   S    
C66   C78   S    
C5    H11   S    
C3    O2    A    
C24   C35   S    
C6    C84   S    
C20   O6    A    
C50   H29   S    
C50   C53   A    
C65   C77   S    
C38   C41   A    
Cr2   O2    S    
C25   H13   S    
C81   H9    S    
C11   C83   S    
C64   H34   S    
C40   H37   S    
C47   C59   A    
C21   C74   S    
C22   C25   A    
C49   C58   A    
C66   H36   S    
C72   C84   S    
Cr6   O17   S    
C60   C61   S    
C43   H16   S    
C65   H35   S    
C80   H2    S    
C68   H41   S    
Cr2   O8    S    
C35   O10   A    
C5    C8    S    
C81   H3    S    
C44   C56   A    
C49   H28   S    
C13   C76   S    
C23   C34   S    
C22   C40   A    
C44   H17   S    
C51   H30   S    
C64   C76   S    
C1    O3    A    
Cr2   O14   S    
C33   C39   A    
Cr6   O6    S    
Cr2   O11   S    
C38   H32   S    
C37   H31   S    
C43   C55   A    
C63   O21   A    
C4    H10   S    
C8    C77   S    
Cr1   O16   S    
C64   C79   S    
C12   C75   T    
C67   H40   S    
C61   O22   A    
C69   H42   S    
C81   C84   S    
C22   C36   S    
C66   H6    S    
C30   H24   S    
C45   C48   A    
C68   C77   S    
C29   H23   S    
C33   C57   S    
C30   C33   A    
C80   H8    S    
C1    C17   S    
C79   H7    S    
C28   C31   A    
C8    H56   S    
Cr5   O25   S    
C69   C72   S    
C11   C74   T    
C21   O20   A    
C79   C82   S    
C10   C82   S    
C62   O25   A    
C52   C55   A    
C7    C76   S    
C51   C60   A    
C29   C32   A    
C47   H20   S    
C20   O19   A    
C48   H21   S    
C59   C63   S    
C23   C41   A    
C67   C70   S    
C51   C54   A    
C19   C75   S    
C13   C16   T    
Cr5   O22   S    
Cr4   O17   S    
C66   C81   S    
C6    Cl3   S    
C36   O15   A    
C68   C71   S    
C68   H44   S    
C3    O9    A    
Cr4   O4    S    
C9    H57   S    
C20   C73   S    
C8    H53   S    
C9    C78   S    
C6    H12   S    
C1    O7    A    
C70   C82   S    
C43   C46   A    
C53   C56   A    
Cr5   O19   S    
C64   H4    S    
C31   C37   A    
C65   H5    S    
Cr3   O15   S    
C4    C82   S    
C26   C29   A    
Cr4   O18   S    
C54   H27   S    
C46   H19   S    
Cr4   O24   S    
Cr3   O9    S    
Cr2   O16   S    
C19   O18   A    
C31   C55   S    
C32   C56   S    
C7    H52   S    
C3    C16   S    
C67   C76   S    
C34   O13   A    
C7    H55   S    
C54   C57   A    
C19   O5    A    
