data_mof_unit_25422.cif
_audit_creation_date              2012-12-10T19:46:26-0500
_audit_creation_method            fapswitch 2.2
_symmetry_space_group_name_H-M    P1
_symmetry_Int_Tables_number       1
_space_group_crystal_system       triclinic
_cell_length_a                    10.944672
_cell_length_b                    10.932405
_cell_length_c                    10.48702
_cell_angle_alpha                 91.768996
_cell_angle_beta                  92.115455
_cell_angle_gamma                 91.758685
_cell_volume                      1252.69927831

loop_
_atom_site_label
_atom_site_type_symbol
_atom_type_description
_atom_site_fract_x
_atom_site_fract_y
_atom_site_fract_z
_atom_type_partial_charge
C1    C     C_R   0.506734 0.261769 0.498165 0.890026
C2    C     C_R   0.493282 0.738233 0.501835 0.889954
C3    C     C_R   0.872142 0.495632 0.506356 -0.291767
C4    C     C_R   0.127848 0.504293 0.493652 -0.291787
C5    C     C_R   0.945305 0.533774 0.615273 -0.154723
C6    C     C_R   0.054682 0.466134 0.384741 -0.154744
C7    C     C_R   0.409300 0.198673 0.065485 -0.287897
C8    C     C_R   0.590884 0.801573 0.934619 -0.287804
C9    C     C_R   0.395260 0.156049 0.188412 0.614985
C10   C     C_R   0.604897 0.844144 0.811672 0.614806
C11   C     C_R   0.495016 0.107068 0.254683 -0.228057
C12   C     C_R   0.505089 0.892928 0.745312 -0.228043
C13   C     C_R   0.607600 0.097609 0.195334 0.531118
C14   C     C_R   0.392464 0.902218 0.804582 0.531245
C15   C     C_R   0.620579 0.139350 0.071942 0.639772
C16   C     C_R   0.379516 0.860544 0.927995 0.639709
C17   C     C_R   0.522001 0.192033 0.008292 -0.430018
C18   C     C_R   0.478158 0.808066 0.991740 -0.430263
C19   C     C_R   0.459922 0.930625 0.390546 0.410659
C20   C     C_R   0.540142 0.069380 0.609449 0.410588
C21   C     C_R   0.488173 0.872344 0.504884 -0.142005
C22   C     C_R   0.511878 0.127659 0.495113 -0.142098
C23   C     C_R   0.261507 0.501276 0.497477 0.903733
C24   C     C_R   0.738490 0.498695 0.502523 0.903597
C25   C     C_R   0.518734 0.942971 0.617136 -0.000431
C26   C     C_R   0.481351 0.057028 0.382857 -0.000431
C27   C     C_1   0.500002 0.500054 0.072125 0.130468
C28   C     C_1   0.500003 0.499953 0.927876 0.130557
C29   C     C_R   0.178112 0.521554 0.060648 0.310629
C30   C     C_R   0.821925 0.478443 0.939404 0.310499
C31   C     C_R   0.149777 0.536628 0.188496 -0.173948
C32   C     C_R   0.850213 0.463331 0.811549 -0.174089
C33   C     C_R   0.102817 0.438692 0.256749 -0.110483
C34   C     C_R   0.897161 0.561249 0.743255 -0.110676
C35   C     C_R   0.080094 0.323123 0.193200 0.532340
C36   C     C_R   0.919892 0.676839 0.806757 0.532031
C37   C     C_R   0.102605 0.308952 0.062821 0.340261
C38   C     C_R   0.897465 0.691037 0.937146 0.340267
C39   C     C_R   0.153169 0.407815 0.996835 0.284811
C40   C     C_R   0.846923 0.592194 0.003179 0.284850
C41   C     C_R   0.928225 0.459663 0.393753 0.646037
C42   C     C_R   0.071762 0.540245 0.606261 0.646077
Cu1   Cu    Cu3+1 0.500000 0.500000 0.625300 1.072832
Cu2   Cu    Cu3+1 0.500000 0.500000 0.374700 1.072876
H1    H     H_    0.163235 0.626294 0.234876 0.232023
H2    H     H_    0.836742 0.373652 0.765200 0.232054
H3    H     H_    0.532384 0.228788 0.915006 0.270268
H4    H     H_    0.467815 0.771378 0.085051 0.270341
H5    H     H_    0.333448 0.236995 0.013834 0.224658
H6    H     H_    0.666788 0.763432 0.986354 0.224833
N1    N     N_1   0.500010 0.499990 0.186410 -0.131719
N2    N     N_1   0.499990 0.500010 0.813590 -0.131708
O1    O     O_R   0.499990 0.319650 0.605810 -0.523639
O2    O     O_R   0.500010 0.680350 0.394190 -0.523625
O3    O     O_R   0.499990 0.319640 0.394190 -0.602705
O4    O     O_R   0.500010 0.680360 0.605810 -0.602820
O5    O     O_R   0.319640 0.500010 0.605810 -0.496418
O6    O     O_R   0.680360 0.499990 0.394190 -0.496503
O7    O     O_R   0.319650 0.500010 0.394190 -0.602301
O8    O     O_R   0.680350 0.499990 0.605810 -0.602380
F1    F     F_    0.178378 0.393002 0.871568 -0.635077
F2    F     F_    0.821948 0.606998 0.128505 -0.635015
F3    F     F_    0.704032 0.046865 0.256713 -0.574820
F4    F     F_    0.295969 0.952758 0.743112 -0.574778
F5    F     F_    0.728538 0.128049 0.013922 -0.532412
F6    F     F_    0.271528 0.871737 0.985951 -0.532419
O9    O     O_3   0.408922 0.861798 0.288221 -0.706373
H7    H     H_    0.363051 0.915348 0.230509 0.376139
O10   O     O_3   0.591120 0.138220 0.711778 -0.706419
H8    H     H_    0.637011 0.084690 0.769489 0.376262
O11   O     O_3   0.227842 0.620781 0.000942 -0.627923
H9    H     H_    0.253689 0.594434 0.915294 0.408351
O12   O     O_3   0.772248 0.379241 0.999178 -0.627959
H10   H     H_    0.746225 0.405687 0.084714 0.408221
O13   O     O_3   0.033227 0.222592 0.254099 -0.527486
H11   H     H_    0.040716 0.237549 0.347668 0.341985
O14   O     O_3   0.966750 0.777347 0.745814 -0.527361
H12   H     H_    0.959175 0.762379 0.652254 0.341968
O15   O     O_3   0.075581 0.196290 0.003406 -0.535042
H13   H     H_    0.095214 0.199484 0.912107 0.393834
O16   O     O_3   0.924599 0.803692 0.996536 -0.534930
H14   H     H_    0.905106 0.800501 0.087866 0.393860
F7    F     F_    0.859442 0.415847 0.290900 -0.609231
F8    F     F_    0.140540 0.584073 0.709106 -0.609250
F9    F     F_    0.285265 0.161288 0.243056 -0.630091
F10   F     F_    0.714934 0.839106 0.757126 -0.629859

loop_
_geom_bond_atom_site_label_1
_geom_bond_atom_site_label_2
_ccdc_geom_bond_type
C30   C32   A    
C5    C42   A    
C11   C13   A    
O12   H10   S    
Cu1   Cu2   S    
O16   H14   S    
O14   H12   S    
C23   O7    A    
C37   O15   S    
C35   O13   S    
C19   C21   A    
C36   O14   S    
Cu1   N2    S    
C20   C25   A    
Cu2   O7    S    
C15   F5    S    
C40   F2    S    
C7    C9    A    
C19   C26   A    
C1    O1    A    
C9    F9    S    
Cu1   O1    S    
C10   F10   S    
Cu2   O6    S    
C7    C17   A    
C6    C41   A    
C31   C33   A    
C19   O9    S    
C1    C22   S    
C3    C24   S    
C27   N1    T    
C39   F1    S    
O9    H7    S    
C42   F8    S    
C7    H5    S    
C4    C6    A    
C2    O2    A    
C4    C23   S    
C11   C26   S    
C30   O12   S    
C8    C18   A    
C32   C34   A    
O13   H11   S    
C13   F3    S    
C24   O8    A    
C14   F4    S    
C5    C34   S    
C29   C39   A    
C2    C21   S    
C30   C40   A    
C16   C18   A    
C9    C11   A    
C10   C12   A    
Cu1   O8    S    
Cu2   N1    S    
C8    C10   A    
C12   C14   A    
C13   C15   A    
C38   O16   S    
C22   C26   A    
C14   C16   A    
C20   O10   S    
C16   F6    S    
C8    H6    S    
C23   O5    A    
C21   C25   A    
C3    C41   A    
C35   C37   A    
C32   H2    S    
C17   H3    S    
C20   C22   A    
C3    C5    A    
C18   H4    S    
C15   C17   A    
C6    C33   S    
C12   C25   S    
C36   C38   A    
C1    O3    A    
O11   H9    S    
C29   C31   A    
C2    O4    A    
C38   C40   A    
C28   N2    T    
Cu2   O3    S    
C4    C42   A    
C33   C35   A    
C34   C36   A    
O10   H8    S    
Cu1   O5    S    
O15   H13   S    
Cu2   O2    S    
Cu1   O4    S    
C37   C39   A    
C24   O6    A    
C31   H1    S    
C27   C28   S    
C29   O11   S    
C41   F7    S    
