data_mof_unit_54877.cif
_audit_creation_date              2012-12-11T16:29:36-0500
_audit_creation_method            fapswitch 2.2
_symmetry_space_group_name_H-M    P1
_symmetry_Int_Tables_number       1
_space_group_crystal_system       triclinic
_cell_length_a                    6.953305
_cell_length_b                    17.300599
_cell_length_c                    18.80653
_cell_angle_alpha                 106.261254
_cell_angle_beta                  89.762277
_cell_angle_gamma                 90.485414
_cell_volume                      2171.76922157

loop_
_atom_site_label
_atom_site_type_symbol
_atom_type_description
_atom_site_fract_x
_atom_site_fract_y
_atom_site_fract_z
_atom_type_partial_charge
O1    O     O_R   0.494360 0.415680 0.413760 -0.533464
O2    O     O_R   0.818810 0.432910 0.557230 -0.523418
O3    O     O_R   0.994290 0.584320 0.586240 -0.532660
C1    C     C_R   0.649877 0.415974 0.580634 0.712281
O4    O     O_R   0.823740 0.406440 0.412520 -0.535011
O5    O     O_R   0.999250 0.557660 0.440500 -0.527196
C2    C     C_R   0.654773 0.383636 0.384875 0.695989
O6    O     O_R   0.489400 0.442340 0.559500 -0.527149
O7    O     O_3   0.662500 0.549650 0.509350 -0.358963
V1    V     V_3+5 0.935340 0.490790 0.498270 1.416356
O8    O     O_R   0.329270 0.567090 0.442770 -0.522829
C3    C     C_R   0.161098 0.584111 0.419442 0.710592
O9    O     O_R   0.324340 0.593560 0.587480 -0.535915
C4    C     C_R   0.155427 0.616729 0.614682 0.697162
V2    V     V_3+5 0.435970 0.509210 0.501730 1.414780
O10   O     O_3   0.158940 0.450350 0.490650 -0.359519
H1    H     H_    0.872047 0.853639 0.563194 0.115501
C5    C     C_R   0.294672 0.598637 0.752400 -0.145495
C6    C     C_R   0.359578 0.585476 0.817513 -0.158033
C7    C     C_R   0.341507 0.645053 0.883666 -0.158000
C8    C     C_R   0.259772 0.719439 0.885948 0.197893
C9    C     C_R   0.198920 0.736436 0.819230 0.073900
C10   C     C_R   0.214448 0.673335 0.751419 0.026645
C11   C     C_R   0.119826 0.812380 0.817860 -0.188541
C12   C     C_R   0.053000 0.822882 0.749765 0.047378
C13   C     C_R   0.064945 0.758770 0.683213 0.074672
C14   C     C_R   0.146009 0.684273 0.684013 -0.173872
C15   C     C_R   0.976256 0.897418 0.746185 -0.143987
C16   C     C_R   0.910776 0.907840 0.679616 -0.117319
C17   C     C_R   0.921917 0.845090 0.614901 -0.119216
C18   C     C_R   0.998957 0.771512 0.616265 -0.130972
H2    H     H_    0.307368 0.548782 0.702955 0.118938
H3    H     H_    0.421039 0.527971 0.816832 0.129399
H4    H     H_    0.388349 0.632953 0.934344 0.119286
H5    H     H_    0.966611 0.948872 0.794433 0.103222
H6    H     H_    0.852160 0.965171 0.678213 0.117000
H7    H     H_    0.007590 0.725182 0.564058 0.100636
C19   C     C_1   0.111525 0.865399 0.133933 -0.231938
C20   C     C_1   0.119013 0.822723 0.177398 -0.008601
C21   C     C_1   0.128345 0.772227 0.229047 -0.004880
C22   C     C_1   0.136296 0.729663 0.272611 -0.006055
C23   C     C_1   0.145629 0.679120 0.324223 -0.004638
C24   C     C_1   0.153141 0.636313 0.367580 -0.220985
C25   C     C_1   0.641343 0.364089 0.632710 -0.220794
C26   C     C_1   0.637138 0.321526 0.676303 -0.004761
C27   C     C_1   0.633765 0.271277 0.728189 -0.005411
C28   C     C_1   0.631272 0.228930 0.771984 -0.005446
C29   C     C_1   0.627910 0.178660 0.823853 -0.004939
C30   C     C_1   0.623721 0.136061 0.867416 -0.220521
H8    H     H_    0.323008 0.152902 0.435528 0.115757
C31   C     C_R   0.816008 0.395651 0.245928 -0.140869
C32   C     C_R   0.894274 0.403668 0.180052 -0.122840
C33   C     C_R   0.882237 0.340351 0.115703 -0.120575
C34   C     C_R   0.792053 0.268481 0.116740 -0.131525
C35   C     C_R   0.713710 0.257933 0.183060 0.070096
C36   C     C_R   0.725710 0.322984 0.249100 0.069100
C37   C     C_R   0.620577 0.184860 0.183902 -0.188039
C38   C     C_R   0.539048 0.177073 0.250924 0.069575
C39   C     C_R   0.551045 0.242125 0.316964 0.069990
C40   C     C_R   0.644211 0.315194 0.316126 -0.188699
C41   C     C_R   0.448726 0.104408 0.254090 -0.142250
C42   C     C_R   0.370422 0.096396 0.319962 -0.123139
C43   C     C_R   0.382454 0.159714 0.384311 -0.119933
C44   C     C_R   0.472670 0.231580 0.383280 -0.131466
H9    H     H_    0.825925 0.447441 0.293917 0.110273
H10   H     H_    0.963126 0.459645 0.178821 0.117598
H11   H     H_    0.941652 0.347167 0.064482 0.115689
H12   H     H_    0.783072 0.221872 0.064733 0.106469
H13   H     H_    0.438808 0.052619 0.206101 0.108167
H14   H     H_    0.301544 0.040423 0.321188 0.117677
H15   H     H_    0.481639 0.278190 0.435286 0.106087
O11   O     O_R   0.775690 0.057750 0.940570 -0.528161
O12   O     O_R   0.441200 0.093570 0.087490 -0.536268
O13   O     O_R   0.265840 0.942320 0.059480 -0.522002
C45   C     C_R   0.610120 0.116406 0.115163 0.693888
O14   O     O_R   0.446270 0.067110 0.942790 -0.525334
O15   O     O_R   0.270950 0.915660 0.913750 -0.522842
C46   C     C_R   0.615204 0.084112 0.919438 0.709900
O16   O     O_R   0.770580 0.084400 0.086300 -0.535434
O17   O     O_3   0.602640 0.950400 0.990690 -0.359164
V3    V     V_3+5 0.329740 0.009200 0.001730 1.421664
O18   O     O_R   0.940900 0.906360 0.912450 -0.538352
C47   C     C_R   0.110088 0.882103 0.885862 0.786275
O19   O     O_R   0.935830 0.932820 0.057160 -0.523622
C48   C     C_R   0.103718 0.917183 0.081678 0.754707
V4    V     V_3+5 0.829130 0.990680 0.998180 1.415964
O20   O     O_3   0.106100 0.049590 0.009310 -0.364420
N1    N     N_3   0.232884 0.775095 0.957228 -0.680200
H16   H     H_    0.366873 0.786586 0.983311 0.233410
H17   H     H_    0.144983 0.747524 0.988406 0.211745

loop_
_geom_bond_atom_site_label_1
_geom_bond_atom_site_label_2
_ccdc_geom_bond_type
C35   C36   A    
H8    C43   S    
C22   C23   S    
C6    C7    A    
C1    O6    A    
C26   C27   S    
C25   C26   T    
C12   C15   A    
C16   H6    S    
C39   C44   A    
C16   C17   A    
C15   C16   A    
C11   C47   S    
O14   C46   A    
C5    C6    A    
C3    C24   S    
O5    C3    A    
C17   C18   A    
C34   H12   S    
O15   C47   A    
V2    O10   S    
C30   C46   S    
C42   H14   S    
C31   C36   A    
C31   H9    S    
C44   H15   S    
O11   C46   A    
C27   C28   T    
O8    V2    S    
C15   H5    S    
O17   V4    S    
O1    V2    S    
C10   C14   A    
C4    C14   S    
O7    V1    S    
C7    H4    S    
N1    H16   S    
C38   C41   A    
C8    N1    S    
C39   C40   A    
C8    C9    A    
H1    C17   S    
O12   C45   A    
O12   V3    S    
C19   C48   S    
C5    C10   A    
C11   C12   A    
C6    H3    S    
C20   C21   S    
O4    C2    A    
V4    O20   S    
C1    C25   S    
C38   C39   A    
O18   V4    S    
C36   C40   A    
O2    C1    A    
C42   C43   A    
C28   C29   S    
O15   V3    S    
C13   C14   A    
O19   C48   A    
V3    O20   S    
O3    C4    A    
C29   C30   T    
N1    H17   S    
O6    V2    S    
O9    V2    S    
C9    C11   A    
C5    H2    S    
C23   C24   T    
O13   V3    S    
O2    V1    S    
C2    C40   S    
C32   H10   S    
C32   C33   A    
C41   H13   S    
C34   C35   A    
C21   C22   T    
O1    C2    A    
C13   C18   A    
O19   V4    S    
O17   V3    S    
O14   V3    S    
O5    V1    S    
O11   V4    S    
O8    C3    A    
C33   C34   A    
C37   C45   S    
C35   C37   A    
C12   C13   A    
C31   C32   A    
O3    V1    S    
V1    O10   S    
C37   C38   A    
C19   C20   T    
O13   C48   A    
O7    V2    S    
C41   C42   A    
C33   H11   S    
C43   C44   A    
C18   H7    S    
O4    V1    S    
C7    C8    A    
O18   C47   A    
C9    C10   A    
O9    C4    A    
C45   O16   A    
O16   V4    S    
