data_mof_unit_21441.cif
_audit_creation_date              2012-12-11T15:31:36-0500
_audit_creation_method            fapswitch 2.2
_symmetry_space_group_name_H-M    P1
_symmetry_Int_Tables_number       1
_space_group_crystal_system       triclinic
_cell_length_a                    6.936064
_cell_length_b                    14.788967
_cell_length_c                    21.310499
_cell_angle_alpha                 74.167722
_cell_angle_beta                  90.393594
_cell_angle_gamma                 90.608056
_cell_volume                      2102.90936328

loop_
_atom_site_label
_atom_site_type_symbol
_atom_type_description
_atom_site_fract_x
_atom_site_fract_y
_atom_site_fract_z
_atom_type_partial_charge
O1    O     O_R   0.648150 0.130050 0.214300 -0.538229
O2    O     O_R   0.351850 0.869950 0.785700 -0.544058
O3    O     O_R   0.320490 0.006660 0.340150 -0.539350
O4    O     O_R   0.679510 0.993340 0.659850 -0.543564
O5    O     O_R   0.146100 0.869940 0.285700 -0.537027
O6    O     O_R   0.853900 0.130060 0.714300 -0.528219
C1    C     C_R   0.489362 0.001845 0.366997 0.767367
C2    C     C_R   0.510414 0.998102 0.633018 0.757755
O7    O     O_R   0.318690 0.137980 0.218120 -0.544806
O8    O     O_R   0.681310 0.862020 0.781880 -0.540326
O9    O     O_R   0.144280 0.002190 0.162800 -0.546609
O10   O     O_R   0.855720 0.997810 0.837200 -0.544317
C3    C     C_R   0.488786 0.176070 0.204316 0.683909
C4    C     C_R   0.511888 0.823999 0.796014 0.689257
O11   O     O_R   0.649960 0.997790 0.337200 -0.535212
O12   O     O_R   0.350040 0.002210 0.662800 -0.540672
O13   O     O_3   0.479300 0.955290 0.231990 -0.370731
O14   O     O_3   0.520700 0.044710 0.768010 -0.364111
V1    V     V_3+5 0.206040 0.008290 0.253340 1.467713
V2    V     V_3+5 0.793960 0.991710 0.746660 1.457099
O15   O     O_R   0.814320 0.993320 0.159850 -0.546374
O16   O     O_R   0.185680 0.006680 0.840150 -0.540645
C5    C     C_R   0.982402 0.998402 0.132782 0.678128
C6    C     C_R   0.017509 0.001341 0.867218 0.698857
O17   O     O_R   0.816120 0.862000 0.281880 -0.521663
O18   O     O_R   0.183880 0.138000 0.718120 -0.536387
C7    C     C_R   0.985193 0.824265 0.292968 0.781512
C8    C     C_R   0.015481 0.175640 0.707007 0.705864
V3    V     V_3+5 0.705540 0.991700 0.246660 1.494696
V4    V     V_3+5 0.294460 0.008300 0.753340 1.468917
O19   O     O_3   0.982150 0.044700 0.268010 -0.375996
O20   O     O_3   0.017850 0.955300 0.731990 -0.378220
C9    C     C_R   0.001048 0.722613 0.318704 -0.054766
C10   C     C_R   0.009127 0.276381 0.676225 -0.123404
C11   C     C_R   0.152157 0.579695 0.311113 -0.151667
C12   C     C_R   0.982077 0.433192 0.688463 -0.130684
C13   C     C_R   0.104251 0.672937 0.283062 -0.223893
C14   C     C_R   0.991273 0.336791 0.715947 -0.204350
C15   C     C_R   0.942958 0.678770 0.382694 0.269352
C16   C     C_R   0.021409 0.312338 0.607576 0.289280
C17   C     C_R   0.019285 0.588910 0.415318 -0.024692
C18   C     C_R   0.028747 0.411301 0.579673 0.038589
C19   C     C_R   0.113883 0.537796 0.377101 0.102323
C20   C     C_R   0.997445 0.470806 0.620862 0.061222
C21   C     C_R   0.014106 0.549950 0.484371 0.018872
C22   C     C_R   0.059677 0.453500 0.511756 0.086422
C23   C     C_R   0.150897 0.405182 0.471594 -0.089187
C24   C     C_R   0.986703 0.606491 0.527199 -0.162268
C25   C     C_R   0.178902 0.447033 0.405689 -0.182820
C26   C     C_R   0.982091 0.567675 0.594258 -0.134549
H1    H     H_    0.255213 0.408518 0.377095 0.138089
H2    H     H_    0.963112 0.613790 0.625476 0.133156
H3    H     H_    0.980364 0.308903 0.768394 0.168900
H4    H     H_    0.149105 0.706914 0.233545 0.137852
H5    H     H_    0.229570 0.541954 0.282317 0.132508
H6    H     H_    0.962594 0.478531 0.720187 0.142664
H7    H     H_    0.217573 0.337682 0.491002 0.182441
H8    H     H_    0.980475 0.682163 0.509960 0.180663
C27   C     C_3   0.909060 0.923438 0.991268 -0.085030
C28   C     C_3   0.089756 0.076110 0.008657 -0.089624
C29   C     C_3   0.084987 0.922006 0.036818 -0.103867
C30   C     C_3   0.914239 0.077318 0.963045 -0.118829
H9    H     H_    0.154920 0.857813 0.067607 0.142336
H10   H     H_    0.844785 0.141243 0.931731 0.160470
H11   H     H_    0.830864 0.861677 0.983374 0.156526
H12   H     H_    0.161340 0.139242 0.016999 0.168648
C31   C     C_3   0.990068 0.998753 0.062146 -0.061346
C32   C     C_3   0.009267 0.000669 0.937817 -0.040935
C33   C     C_3   0.814053 0.000121 0.017384 -0.152919
C34   C     C_3   0.185270 0.999414 0.982559 -0.103753
H13   H     H_    0.660884 0.000454 0.032088 0.128431
H14   H     H_    0.338437 0.999348 0.967801 0.129439
C35   C     C_3   0.675848 0.024052 0.474078 -0.174214
C36   C     C_3   0.322639 0.976066 0.525992 -0.179884
C37   C     C_3   0.546946 0.084880 0.504916 0.027944
C38   C     C_3   0.451013 0.915147 0.495118 0.048267
H15   H     H_    0.820924 0.044265 0.452818 0.133848
H16   H     H_    0.177556 0.955997 0.547297 0.127305
C39   C     C_3   0.501434 0.999197 0.562519 -0.077966
C40   C     C_3   0.497110 0.000781 0.437504 -0.076315
C41   C     C_3   0.629413 0.937162 0.532363 -0.189477
C42   C     C_3   0.368939 0.062723 0.467634 -0.199068
H17   H     H_    0.735623 0.884854 0.559198 0.128592
H18   H     H_    0.262626 0.114974 0.440792 0.131918
C43   C     C_R   0.510600 0.278361 0.175487 -0.049806
C44   C     C_R   0.498851 0.721003 0.822385 -0.066412
C45   C     C_R   0.687401 0.418746 0.179286 -0.118660
C46   C     C_R   0.388223 0.570432 0.811426 -0.100101
C47   C     C_R   0.610787 0.330744 0.210709 -0.158727
C48   C     C_R   0.405589 0.667542 0.786451 -0.175904
C49   C     C_R   0.480292 0.317327 0.108441 -0.135010
C50   C     C_R   0.571187 0.676478 0.884610 -0.155733
C51   C     C_R   0.574154 0.402386 0.074044 0.125042
C52   C     C_R   0.560086 0.577243 0.910641 0.117633
C53   C     C_R   0.677322 0.454338 0.110665 0.047090
C54   C     C_R   0.464834 0.523690 0.873348 0.051211
C55   C     C_R   0.566494 0.437433 0.004432 -0.012907
C56   C     C_R   0.628128 0.531079 0.974754 -0.013169
C57   C     C_R   0.762294 0.573114 0.009307 -0.084972
C58   C     C_R   0.512758 0.380746 0.962752 -0.069670
C59   C     C_R   0.778088 0.537490 0.078006 -0.084128
C60   C     C_R   0.450557 0.424682 0.898115 -0.076868
H19   H     H_    0.626938 0.720935 0.913359 0.100083
H20   H     H_    0.391622 0.277660 0.083353 0.103213
H21   H     H_    0.345358 0.701203 0.738850 0.128298
H22   H     H_    0.637068 0.301550 0.262451 0.122741
H23   H     H_    0.763352 0.456295 0.209095 0.134591
H24   H     H_    0.311950 0.532656 0.781851 0.134553
C61   C     C_2   0.911678 0.582827 0.115092 0.798153
O21   O     O_2   0.873385 0.659833 0.122386 -0.555306
O22   O     O_R   0.080888 0.536995 0.141468 -0.662632
H25   H     H_    0.163140 0.575873 0.163999 0.287172
C62   C     C_2   0.375600 0.367386 0.855778 0.796698
O23   O     O_2   0.228217 0.320605 0.870899 -0.546553
O24   O     O_R   0.472363 0.368356 0.798257 -0.666632
H26   H     H_    0.407239 0.326881 0.773433 0.296140
C63   C     C_2   0.916180 0.637056 0.972184 0.745876
O25   O     O_2   0.982669 0.701139 0.991886 -0.569423
O26   O     O_R   0.986361 0.622533 0.914323 -0.653358
H27   H     H_    0.089977 0.669825 0.893405 0.298601
C64   C     C_2   0.568263 0.279328 0.981744 0.728071
O27   O     O_2   0.475496 0.220804 0.963149 -0.568334
O28   O     O_R   0.729269 0.251170 0.022000 -0.660415
H28   H     H_    0.741997 0.180467 0.037599 0.282203
O29   O     O_3   0.009159 0.253668 0.566848 -0.652672
H29   H     H_    0.000243 0.186861 0.591817 0.291213
O30   O     O_3   0.809204 0.724330 0.410466 -0.646016
H30   H     H_    0.726660 0.675711 0.439612 0.300720
C65   C     C_2   0.594062 0.182463 0.508560 0.747385
O31   O     O_2   0.641960 0.242412 0.459177 -0.556156
O32   O     O_R   0.578246 0.205122 0.567809 -0.666152
H31   H     H_    0.607708 0.273830 0.563527 0.308235
C66   C     C_2   0.396505 0.818194 0.491744 0.728118
O33   O     O_2   0.367922 0.756348 0.542167 -0.570596
O34   O     O_R   0.378268 0.798871 0.431351 -0.656228
H32   H     H_    0.341059 0.730977 0.435649 0.294391

loop_
_geom_bond_atom_site_label_1
_geom_bond_atom_site_label_2
_ccdc_geom_bond_type
C29   C34   S    
C46   C54   A    
C54   C60   A    
O13   V3    S    
C50   C52   A    
O22   H25   S    
C49   H20   S    
O4    C2    A    
V1    O19   S    
C55   C56   A    
C43   C49   A    
O28   H28   S    
C23   C25   A    
C21   C22   A    
C7    C9    S    
O9    V1    S    
C9    C15   A    
C36   C38   S    
C10   C16   A    
C11   C13   A    
C65   O31   D    
O3    C1    A    
C63   O26   S    
C46   H24   S    
C57   C63   S    
C52   C56   A    
C59   C61   S    
O24   H26   S    
C28   C30   S    
C58   C64   S    
C18   C22   A    
C5    C31   S    
C33   H13   S    
O7    C3    A    
C30   H10   S    
C50   H19   S    
O5    C7    A    
O7    V1    S    
O6    C8    A    
C28   C31   S    
O8    V2    S    
C25   H1    S    
C45   C53   A    
C47   H22   S    
C2    C39   S    
C26   H2    S    
O3    V1    S    
O14   V4    S    
C11   C19   A    
C2    O12   A    
C24   C26   A    
C28   H12   S    
C51   C53   A    
C17   C19   A    
C18   C20   A    
C36   C42   S    
C35   C41   S    
C41   H17   S    
O11   V3    S    
O17   V3    S    
C27   C29   S    
C15   O30   S    
C11   H5    S    
O34   H32   S    
C4    C44   S    
C40   C42   S    
C44   C48   A    
C39   C41   S    
C43   C47   A    
C19   C25   A    
C1    O11   A    
O15   V3    S    
C9    C13   A    
C30   C33   S    
C31   C33   S    
C12   H6    S    
C27   C32   S    
C49   C51   A    
C29   C31   S    
C28   C34   S    
O26   H27   S    
O10   V2    S    
C58   C60   A    
C52   C54   A    
C64   O27   D    
C27   C33   S    
C13   H4    S    
C57   C59   A    
C46   C48   A    
O18   V4    S    
C42   H18   S    
C36   C39   S    
O15   C5    A    
O8    C4    A    
O29   H29   S    
O16   C6    A    
C12   C20   A    
O1    C3    A    
C35   C37   S    
O30   H30   S    
C51   C55   A    
C55   C58   A    
C62   O23   D    
V2    O20   S    
C21   C24   A    
C20   C26   A    
C22   C23   A    
C35   H15   S    
O16   V4    S    
C10   C14   A    
C29   H9    S    
C38   C40   S    
C48   H21   S    
C16   C18   A    
C38   C41   S    
C38   C66   S    
C37   C42   S    
C24   H8    S    
O5    V1    S    
O17   C7    A    
O6    V2    S    
O10   C6    A    
O18   C8    A    
C30   C32   S    
O2    V4    S    
C45   C47   A    
V3    O19   S    
C60   C62   S    
C44   C50   A    
C63   O25   D    
C27   H11   S    
C12   C14   A    
V4    O20   S    
O1    V3    S    
C66   O33   D    
C14   H3    S    
C37   C39   S    
C16   O29   S    
C61   O22   S    
O9    C5    A    
O13   V1    S    
C35   C40   S    
C53   C59   A    
O14   V2    S    
O2    C4    A    
C64   O28   S    
C6    C32   S    
C8    C10   S    
O4    V2    S    
C37   C65   S    
C45   H23   S    
C15   C17   A    
C32   C34   S    
C56   C57   A    
C36   H16   S    
C3    C43   S    
C23   H7    S    
C66   O34   S    
C17   C21   A    
C34   H14   S    
C65   O32   S    
C61   O21   D    
O12   V4    S    
O32   H31   S    
C1    C40   S    
C62   O24   S    
