data_mof_unit_67689.cif
_audit_creation_date              2012-12-10T19:48:30-0500
_audit_creation_method            fapswitch 2.2
_symmetry_space_group_name_H-M    P1
_symmetry_Int_Tables_number       1
_space_group_crystal_system       triclinic
_cell_length_a                    11.010642
_cell_length_b                    10.765944
_cell_length_c                    9.69108
_cell_angle_alpha                 93.466106
_cell_angle_beta                  92.944151
_cell_angle_gamma                 92.227294
_cell_volume                      1144.14986052

loop_
_atom_site_label
_atom_site_type_symbol
_atom_type_description
_atom_site_fract_x
_atom_site_fract_y
_atom_site_fract_z
_atom_type_partial_charge
C1    C     C_R   0.497809 0.260171 0.496801 0.784684
C2    C     C_R   0.502186 0.739827 0.503196 0.784669
C3    C     C_R   0.871665 0.500777 0.509542 -0.243178
C4    C     C_R   0.128339 0.499265 0.490450 -0.243330
C5    C     C_R   0.948048 0.600950 0.569311 -0.087176
C6    C     C_R   0.051954 0.399117 0.430639 -0.087129
C7    C     C_3   0.609479 0.053651 0.543563 -0.286739
C8    C     C_3   0.390511 0.946340 0.456412 -0.286785
C9    C     C_3   0.584930 0.957292 0.419047 0.012762
C10   C     C_3   0.415056 0.042699 0.580929 0.012790
C11   C     C_3   0.503258 0.877161 0.506412 -0.081319
C12   C     C_3   0.496730 0.122833 0.493568 -0.081234
C13   C     C_3   0.526390 0.972750 0.629684 -0.074406
C14   C     C_3   0.473598 0.027243 0.370291 -0.074432
C15   C     C_3   0.446548 0.595042 0.053270 0.014829
C16   C     C_3   0.553450 0.404958 0.946732 0.014870
C17   C     C_3   0.391476 0.496804 0.944074 -0.031256
C18   C     C_3   0.608527 0.503196 0.055928 -0.031359
C19   C     C_3   0.555499 0.598260 0.960505 0.066080
C20   C     C_3   0.444499 0.401741 0.039497 0.066005
C21   C     C_R   0.262879 0.494508 0.496186 0.803592
C22   C     C_R   0.737121 0.505513 0.503814 0.803604
C23   C     C_R   0.084239 0.276656 0.068450 -0.234194
C24   C     C_R   0.915620 0.723567 0.931426 -0.234286
C25   C     C_R   0.083393 0.360193 0.184256 -0.004372
C26   C     C_R   0.916548 0.639996 0.815659 -0.004255
C27   C     C_R   0.091871 0.315031 0.317323 -0.084013
C28   C     C_R   0.908116 0.685098 0.682566 -0.083998
C29   C     C_R   0.104712 0.186352 0.333676 -0.088672
C30   C     C_R   0.895286 0.813766 0.666139 -0.088704
C31   C     C_R   0.112990 0.103642 0.215364 0.410985
C32   C     C_R   0.886940 0.896517 0.784404 0.410945
C33   C     C_R   0.101755 0.149514 0.081977 0.379431
C34   C     C_R   0.898106 0.850698 0.917822 0.379290
C35   C     C_R   0.925216 0.397760 0.444197 0.348764
C36   C     C_R   0.074790 0.602291 0.555781 0.348522
Cu1   Cu    Cu3+1 0.500030 0.499990 0.643150 0.982956
Cu2   Cu    Cu3+1 0.499970 0.500010 0.356850 0.982829
H1    H     H_    0.067667 0.309377 0.966882 0.235275
H2    H     H_    0.932123 0.690884 0.033023 0.235351
H3    H     H_    0.698219 0.099541 0.580105 0.213942
H4    H     H_    0.301778 0.900443 0.419851 0.213889
N1    N     N_3   0.500090 0.499970 0.858290 -0.266999
N2    N     N_3   0.499910 0.500030 0.141710 -0.267096
O1    O     O_R   0.500060 0.316850 0.620870 -0.533772
O2    O     O_R   0.499940 0.683150 0.379130 -0.533868
O3    O     O_R   0.500000 0.316860 0.379090 -0.612376
O4    O     O_R   0.500000 0.683140 0.620910 -0.612373
O5    O     O_R   0.319670 0.500010 0.620890 -0.531170
O6    O     O_R   0.680330 0.499990 0.379110 -0.531202
O7    O     O_R   0.319620 0.500010 0.379110 -0.626094
O8    O     O_R   0.680380 0.499990 0.620890 -0.625961
O9    O     O_3   0.109033 0.068983 0.966418 -0.690400
H5    H     H_    0.101977 0.116416 0.881982 0.363921
O10   O     O_3   0.890765 0.931274 0.033332 -0.690409
H6    H     H_    0.897837 0.883890 0.117809 0.363899
C37   C     C_2   0.266521 0.497740 0.879343 0.528094
H7    H     H_    0.224380 0.585727 0.864451 0.110697
O11   O     O_2   0.215100 0.400933 0.832937 -0.530343
C38   C     C_2   0.733490 0.502233 0.120655 0.528470
H8    H     H_    0.775622 0.414235 0.135517 0.110555
O12   O     O_2   0.784936 0.599026 0.167063 -0.530327
C39   C     C_2   0.375247 0.698693 0.113313 0.461560
H9    H     H_    0.304626 0.678950 0.183697 0.089081
O13   O     O_2   0.395178 0.805238 0.082823 -0.490581
C40   C     C_2   0.624693 0.301275 0.886668 0.461539
H10   H     H_    0.695447 0.321008 0.816456 0.089205
O14   O     O_2   0.604496 0.194684 0.916878 -0.490491
C41   C     C_2   0.626261 0.708867 0.920693 0.501224
H11   H     H_    0.661430 0.710970 0.818591 0.018802
O15   O     O_2   0.649945 0.795147 0.006320 -0.468466
C42   C     C_2   0.373711 0.291154 0.079324 0.501193
H12   H     H_    0.338550 0.289065 0.181430 0.018788
O16   O     O_2   0.349988 0.204879 0.993705 -0.468321
C43   C     C_2   0.063227 0.494277 0.167452 0.435631
H13   H     H_    0.011356 0.548179 0.239749 0.108911
O17   O     O_2   0.107946 0.548467 0.075195 -0.634250
C44   C     C_2   0.936791 0.505944 0.832527 0.436054
H14   H     H_    0.988972 0.452155 0.760455 0.108955
O18   O     O_2   0.891791 0.451661 0.924548 -0.634351
C45   C     C_2   0.102688 0.139022 0.474262 0.541233
H15   H     H_    0.087484 0.201261 0.563348 0.103421
O19   O     O_2   0.117753 0.029711 0.493409 -0.523181
C46   C     C_2   0.897400 0.861047 0.525536 0.541341
H16   H     H_    0.912653 0.798779 0.436489 0.103400
O20   O     O_2   0.882355 0.970350 0.506330 -0.523083
O21   O     O_3   0.127790 0.978374 0.232989 -0.713258
H17   H     H_    0.136735 0.932722 0.142585 0.374195
O22   O     O_3   0.872133 0.021772 0.766706 -0.713336
H18   H     H_    0.863169 0.067461 0.857084 0.374132
O23   O     O_3   0.856233 0.295616 0.385686 -0.712901
H19   H     H_    0.777933 0.288709 0.430921 0.317575
O24   O     O_3   0.143779 0.704425 0.614302 -0.712923
H20   H     H_    0.222079 0.711328 0.569074 0.317576
C47   C     C_2   0.678311 0.916694 0.320800 0.530306
H21   H     H_    0.729268 0.985955 0.267969 0.147823
O25   O     O_2   0.698288 0.806944 0.300009 -0.502573
C48   C     C_2   0.321663 0.083287 0.679166 0.530501
H22   H     H_    0.270682 0.014018 0.731964 0.147816
O26   O     O_2   0.301707 0.193038 0.699987 -0.502489
C49   C     C_2   0.553001 0.947889 0.776903 0.500331
H23   H     H_    0.645517 0.956787 0.820185 0.125662
O27   O     O_2   0.470530 0.917745 0.848862 -0.460172
C50   C     C_2   0.446982 0.052083 0.223064 0.500123
H24   H     H_    0.354465 0.043166 0.179783 0.125801
O28   O     O_2   0.529449 0.082239 0.151100 -0.460275

loop_
_geom_bond_atom_site_label_1
_geom_bond_atom_site_label_2
_ccdc_geom_bond_type
C40   O14   D    
O10   H6    S    
C4    C36   A    
O24   H20   S    
C27   C29   A    
C47   H21   S    
C9    C14   S    
C39   O13   D    
C45   H15   S    
O9    H5    S    
C2    O2    A    
C15   C19   S    
C26   C44   S    
C24   C26   A    
C15   N2    S    
C44   O18   D    
C37   O11   D    
C5    C36   A    
C17   C20   S    
C6    C35   A    
C38   O12   D    
C18   C19   S    
C41   O15   D    
C20   N2    S    
C36   O24   S    
C6    C27   S    
C23   C33   A    
C31   C33   A    
C9    C47   S    
C22   O6    A    
C23   C25   A    
C40   H10   S    
C34   O10   S    
C49   O27   D    
C1    C12   S    
C2    C11   S    
C50   O28   D    
C50   H24   S    
C45   O19   D    
C19   N1    S    
C33   O9    S    
C7    C12   S    
C31   O21   S    
C49   H23   S    
C46   H16   S    
C42   O16   D    
O23   H19   S    
Cu1   O8    S    
C44   H14   S    
C1    O3    A    
Cu2   O7    S    
C2    O4    A    
C24   C34   A    
C38   H8    S    
C25   C43   S    
C32   C34   A    
Cu1   N1    S    
C43   H13   S    
C17   N1    S    
Cu2   N2    S    
Cu1   Cu2   S    
C18   N2    S    
C5    C28   S    
Cu1   O5    S    
C14   C50   S    
C32   O22   S    
C8    H4    S    
C3    C35   A    
C16   C20   S    
C16   C18   S    
Cu1   O4    S    
C43   O17   D    
C16   N1    S    
Cu2   O3    S    
C10   C12   S    
C21   O5    A    
C4    C6    A    
C12   C14   S    
C29   C45   S    
C48   O26   D    
C9    C11   S    
C19   C41   S    
C16   C40   S    
Cu1   O1    S    
C21   O7    A    
C22   O8    A    
C18   C38   S    
C15   C17   S    
C8    C14   S    
C46   O20   D    
C42   H12   S    
C3    C5    A    
C10   C13   S    
C47   O25   D    
Cu2   O6    S    
C25   C27   A    
C10   C48   S    
C26   C28   A    
C28   C30   A    
C29   C31   A    
C30   C32   A    
C4    C21   S    
C11   C13   S    
C1    O1    A    
C37   H7    S    
C8    C11   S    
C23   H1    S    
C24   H2    S    
C7    H3    S    
C30   C46   S    
C41   H11   S    
Cu2   O2    S    
C39   H9    S    
C7    C9    S    
C7    C13   S    
O21   H17   S    
C8    C10   S    
C48   H22   S    
C15   C39   S    
C20   C42   S    
C3    C22   S    
O22   H18   S    
C13   C49   S    
C17   C37   S    
C35   O23   S    
