data_mof_unit_20920.cif
_audit_creation_date              2012-10-26T18:52:13-0400
_audit_creation_method            fapswitch 2.2
_symmetry_space_group_name_H-M    P1
_symmetry_Int_Tables_number       1
_space_group_crystal_system       triclinic
_cell_length_a                    13.871749
_cell_length_b                    14.716224
_cell_length_c                    14.695284
_cell_angle_alpha                 114.721075
_cell_angle_beta                  105.802975
_cell_angle_gamma                 72.326407
_cell_volume                      2559.46619262

loop_
_atom_site_label
_atom_site_type_symbol
_atom_type_description
_atom_site_fract_x
_atom_site_fract_y
_atom_site_fract_z
_atom_type_partial_charge
C1    C     C_R   0.517226 0.118319 0.688046 0.545062
C2    C     C_R   0.464472 0.511272 0.871971 -0.149719
C3    C     C_R   0.517699 0.386940 0.099763 -0.017187
C4    C     C_R   0.447847 0.616334 0.896747 -0.019255
C5    C     C_R   0.317765 0.305354 0.341150 -0.151630
C6    C     C_R   0.675151 0.699957 0.666800 -0.154420
C7    C     C_R   0.350458 0.218240 0.365952 0.042479
C8    C     C_R   0.645166 0.785041 0.638885 0.041143
C9    C     C_R   0.488336 0.284351 0.487250 0.045995
C10   C     C_R   0.512445 0.715037 0.511880 0.044328
C11   C     C_R   0.459628 0.375598 0.465345 0.009956
C12   C     C_R   0.483480 0.881571 0.311901 0.545480
C13   C     C_R   0.537878 0.626290 0.537516 0.006419
C14   C     C_R   0.372000 0.384829 0.389697 0.052442
C15   C     C_R   0.623373 0.618686 0.615541 0.044860
C16   C     C_R   0.686982 0.986676 0.503655 0.550183
C17   C     C_R   0.313013 0.013247 0.496234 0.551552
C18   C     C_R   0.514248 0.457192 0.515911 0.021963
C19   C     C_R   0.481947 0.545714 0.488526 0.023258
C20   C     C_R   0.393785 0.551794 0.414104 -0.126276
C21   C     C_R   0.600223 0.452857 0.592973 -0.128764
C22   C     C_R   0.339359 0.473743 0.365266 0.002848
C23   C     C_R   0.507144 0.359710 0.921914 0.021179
C24   C     C_R   0.654576 0.530979 0.641839 0.000131
C25   C     C_1   0.207717 0.021448 0.495060 -0.015858
C26   C     C_1   0.792252 0.978130 0.504372 -0.016192
C27   C     C_2   0.013528 0.036442 0.493964 -0.117979
C28   C     C_2   0.986396 0.962486 0.504653 -0.121396
C29   C     C_1   0.880941 0.970485 0.504662 -0.050822
C30   C     C_1   0.119010 0.028730 0.494352 -0.049362
C31   C     C_R   0.523705 0.185093 0.795705 -0.002092
C32   C     C_R   0.473152 0.814930 0.203971 -0.002757
C33   C     C_R   0.534520 0.213086 0.971760 -0.132581
C34   C     C_R   0.477887 0.641554 0.076472 0.021025
C35   C     C_R   0.438303 0.789505 0.025797 -0.128961
C36   C     C_R   0.534764 0.146742 0.871131 -0.140156
C37   C     C_R   0.446267 0.854949 0.127232 -0.139297
C38   C     C_R   0.514206 0.289791 0.822029 -0.130028
C39   C     C_R   0.490672 0.709255 0.178200 -0.132387
C40   C     C_1   0.533177 0.350377 0.181199 0.162383
C41   C     C_1   0.425596 0.653372 0.814512 0.169660
C42   C     C_R   0.246711 0.489639 0.289751 0.019307
C43   C     C_R   0.160454 0.566422 0.321902 -0.099399
C44   C     C_R   0.073573 0.583573 0.251001 -0.107183
C45   C     C_R   0.520165 0.319729 0.998516 0.035994
C46   C     C_R   0.072490 0.524705 0.147659 -0.099718
C47   C     C_R   0.158463 0.448764 0.114956 -0.113295
C48   C     C_R   0.245554 0.431332 0.185675 -0.098274
C49   C     C_R   0.747111 0.515349 0.717631 0.021574
C50   C     C_R   0.738137 0.507668 0.806967 -0.094556
C51   C     C_R   0.826016 0.488016 0.875977 -0.110935
C52   C     C_R   0.923157 0.475214 0.855843 -0.100514
C53   C     C_R   0.932611 0.482469 0.766982 -0.108713
C54   C     C_R   0.844992 0.502112 0.697820 -0.102499
C55   C     C_R   0.454485 0.682661 0.998987 0.038808
C56   C     C_R   0.488211 0.467687 0.947178 0.011585
C57   C     C_R   0.490115 0.534241 0.050470 0.014130
C58   C     C_R   0.501805 0.491886 0.124489 -0.136217
Cu1   Cu    Cu3+1 0.526370 0.916390 0.524860 0.939952
Cu2   Cu    Cu3+1 0.473630 0.083610 0.475140 0.941609
H1    H     H_    0.043084 0.895756 0.513448 0.134335
H2    H     H_    0.542863 0.065647 0.852390 0.134151
H3    H     H_    0.543750 0.180293 0.028037 0.130058
H4    H     H_    0.419103 0.823349 0.968645 0.130436
H5    H     H_    0.495955 0.538719 0.202846 0.106940
H6    H     H_    0.455041 0.465972 0.791897 0.108246
H7    H     H_    0.451031 0.726153 0.452017 0.118137
H8    H     H_    0.553061 0.270591 0.543370 0.117568
H9    H     H_    0.685425 0.846994 0.678521 0.127546
H10   H     H_    0.308235 0.157729 0.328405 0.126924
H11   H     H_    0.160561 0.612725 0.401805 0.112062
H12   H     H_    0.956824 0.103164 0.485183 0.139340
H13   H     H_    0.007129 0.642605 0.276162 0.112804
H14   H     H_    0.005023 0.538235 0.093117 0.104872
H15   H     H_    0.157686 0.403499 0.034841 0.106938
H16   H     H_    0.311799 0.372575 0.159518 0.124739
H17   H     H_    0.663309 0.516537 0.822820 0.117007
H18   H     H_    0.818857 0.482099 0.944728 0.110484
H19   H     H_    0.991218 0.459050 0.908650 0.101392
H20   H     H_    0.007896 0.472141 0.751350 0.113626
H21   H     H_    0.853282 0.506199 0.628513 0.112299
H22   H     H_    0.249669 0.309814 0.284504 0.107983
H23   H     H_    0.738343 0.699024 0.728957 0.110583
H24   H     H_    0.363874 0.617523 0.392042 0.094486
H25   H     H_    0.628663 0.388369 0.616971 0.092843
H26   H     H_    0.517124 0.681447 0.239589 0.123905
H27   H     H_    0.513711 0.314323 0.762544 0.117137
H28   H     H_    0.432654 0.936649 0.145490 0.132814
N1    N     N_R   0.433980 0.209250 0.437830 -0.231716
N2    N     N_R   0.566020 0.790750 0.562170 -0.231832
N3    N     N_1   0.545993 0.320961 0.246226 -0.310377
N4    N     N_1   0.407995 0.682719 0.748654 -0.306741
O1    O     O_R   0.534760 0.019630 0.662610 -0.504211
O2    O     O_R   0.465240 0.980370 0.337390 -0.502347
O3    O     O_R   0.490220 0.160840 0.620610 -0.510671
O4    O     O_R   0.509780 0.839160 0.379390 -0.512651
O5    O     O_R   0.663260 0.919400 0.523940 -0.498138
O6    O     O_R   0.336740 0.080600 0.476060 -0.498550
O7    O     O_R   0.618720 0.060610 0.481950 -0.495171
O8    O     O_R   0.381280 0.939390 0.518050 -0.494131

loop_
_geom_bond_atom_site_label_1
_geom_bond_atom_site_label_2
_ccdc_geom_bond_type
C11   C18   A    
C23   C45   A    
C18   C21   A    
C33   C45   A    
C48   H16   S    
C37   H28   S    
C19   C20   A    
Cu2   O7    S    
C7    H10   S    
C23   C56   A    
C53   C54   A    
C8    H9    S    
C28   C29   S    
C35   C37   A    
Cu2   O6    S    
C11   C14   A    
C16   O5    A    
C4    C41   S    
C49   C54   A    
C7    N1    A    
C1    C31   S    
C33   C36   A    
C56   C57   A    
C18   C19   A    
C32   C39   A    
C6    C15   A    
C34   C57   A    
C35   H4    S    
C52   H19   S    
C17   O6    A    
C33   H3    S    
C28   H1    S    
Cu1   Cu2   S    
C12   C32   S    
C27   C30   S    
Cu1   O8    S    
C12   O2    A    
C36   H2    S    
C44   C46   A    
C16   C26   S    
C21   H25   S    
C13   C19   A    
C35   C55   A    
C34   C39   A    
C53   H20   S    
C9    N1    A    
C5    C7    A    
C25   C30   T    
C6    C8    A    
Cu2   N1    S    
C3    C45   A    
C51   C52   A    
Cu1   N2    S    
C2    C4    A    
C43   C44   A    
Cu2   O3    S    
C58   H5    S    
C47   C48   A    
C1    O3    A    
C50   C51   A    
C42   C48   A    
C32   C37   A    
C9    C11   A    
C5    C14   A    
C15   C24   A    
C20   C22   A    
C3    C40   S    
C20   H24   S    
C4    C55   A    
Cu1   O5    S    
C8    N2    A    
Cu1   O4    S    
C50   H17   S    
C46   H14   S    
C52   C53   A    
C24   C49   S    
C46   C47   A    
C43   H11   S    
C6    H23   S    
C2    H6    S    
C10   C13   A    
C16   O7    A    
C23   C38   A    
C31   C38   A    
C38   H27   S    
C17   C25   S    
C14   C22   A    
C13   C15   A    
C9    H8    S    
C47   H15   S    
C2    C56   A    
C5    H22   S    
C57   C58   A    
C22   C42   S    
C40   N3    T    
C44   H13   S    
C17   O8    A    
C10   H7    S    
C51   H18   S    
C3    C58   A    
C34   C55   A    
C41   N4    T    
C10   N2    A    
C26   C29   T    
C1    O1    A    
C49   C50   A    
C42   C43   A    
C21   C24   A    
C27   C28   D    
C31   C36   A    
C12   O4    A    
Cu1   O1    S    
C39   H26   S    
C54   H21   S    
C27   H12   S    
Cu2   O2    S    
