data_mof_unit_8167.cif
_audit_creation_date              2012-12-10T17:35:44-0500
_audit_creation_method            fapswitch 2.2
_symmetry_space_group_name_H-M    P1
_symmetry_Int_Tables_number       1
_space_group_crystal_system       triclinic
_cell_length_a                    10.503399
_cell_length_b                    11.979169
_cell_length_c                    12.963819
_cell_angle_alpha                 92.725907
_cell_angle_beta                  90.01227
_cell_angle_gamma                 86.724888
_cell_volume                      1626.62166

loop_
_atom_site_label
_atom_site_type_symbol
_atom_type_description
_atom_site_fract_x
_atom_site_fract_y
_atom_site_fract_z
_atom_type_partial_charge
C1    C     C_R   0.498385 0.521666 0.699935 0.945055
C2    C     C_R   0.633751 0.159009 0.556247 0.041938
C3    C     C_R   0.571907 0.856343 0.516825 -0.044444
C4    C     C_R   0.427564 0.143654 0.484460 -0.055479
C5    C     C_R   0.556577 0.974371 0.519480 0.095747
C6    C     C_R   0.441900 0.025682 0.483969 0.095117
C7    C     C_R   0.742531 0.500670 0.499379 0.887469
C8    C     C_R   0.257450 0.499349 0.500392 0.857648
C9    C     C_3   0.962991 0.436723 0.419843 0.057883
C10   C     C_3   0.036862 0.563537 0.579438 0.057046
C11   C     C_3   0.046746 0.393343 0.508249 -0.204957
C12   C     C_R   0.500592 0.478675 0.299262 0.935218
C13   C     C_3   0.953108 0.606854 0.491043 -0.181429
C14   C     C_3   0.122794 0.498305 0.500430 -0.025642
C15   C     C_3   0.877156 0.501901 0.498875 -0.023849
C16   C     C_3   0.041010 0.540560 0.410751 -0.227170
C17   C     C_3   0.958876 0.459722 0.588495 -0.243451
C18   C     C_R   0.497340 0.467158 0.187399 -0.295626
C19   C     C_R   0.500303 0.534956 0.810356 -0.287631
C20   C     C_R   0.567039 0.633738 0.964532 -0.285217
C21   C     C_R   0.454632 0.358628 0.030993 -0.268934
C22   C     C_R   0.553526 0.629608 0.857978 0.419687
C23   C     C_R   0.456956 0.447914 0.868178 0.411269
C24   C     C_R   0.471365 0.363763 0.137161 0.390732
C25   C     C_1   0.918071 0.367806 0.332051 0.145348
C26   C     C_1   0.081200 0.633131 0.666976 0.124497
C27   C     C_3   0.412031 0.724975 0.189243 0.141730
C28   C     C_3   0.372559 0.795009 0.097338 -0.421221
C29   C     C_3   0.255771 0.872901 0.123521 -0.953187
C30   C     C_3   0.271377 0.385424 0.797906 0.111935
C31   C     C_3   0.184433 0.363451 0.888842 -0.375438
C32   C     C_3   0.044009 0.380099 0.860399 -0.940357
C33   C     C_3   0.555751 0.195502 0.187651 0.120567
C34   C     C_R   0.517823 0.561501 0.128935 0.422602
C35   C     C_3   0.514498 0.077777 0.205690 -0.356108
C36   C     C_3   0.628820 0.997029 0.224816 -0.935618
C37   C     C_3   0.553693 0.818551 0.822622 0.092129
C38   C     C_3   0.415191 0.834887 0.785556 -0.346517
C39   C     C_3   0.364503 0.956107 0.804210 -0.936666
C40   C     C_R   0.478098 0.450985 0.973575 -0.064007
C41   C     C_R   0.522541 0.548493 0.022433 -0.063235
C42   C     C_R   0.345252 0.958040 0.448063 -0.341369
C43   C     C_R   0.652385 0.042146 0.556949 -0.354742
C44   C     C_R   0.363984 0.841280 0.448408 -0.017716
H1    H     H_    0.088516 0.306676 0.514652 0.145652
H2    H     H_    0.288010 0.789755 0.422320 0.137792
H3    H     H_    0.255740 0.994956 0.420609 0.147052
H4    H     H_    0.741297 0.005261 0.585584 0.147607
H5    H     H_    0.421232 0.783343 0.257025 0.179732
H6    H     H_    0.334660 0.668900 0.207848 0.114189
H7    H     H_    0.452486 0.846005 0.075629 0.230294
H8    H     H_    0.348232 0.739136 0.030371 0.225154
H9    H     H_    0.173466 0.823415 0.142806 0.267561
H10   H     H_    0.230181 0.923151 0.055969 0.273471
H11   H     H_    0.275959 0.930911 0.190168 0.262063
H12   H     H_    0.911348 0.693553 0.484862 0.149206
H13   H     H_    0.244624 0.331481 0.730133 0.175358
H14   H     H_    0.254991 0.473573 0.774784 0.109573
H15   H     H_    0.203591 0.276154 0.912626 0.234297
H16   H     H_    0.204444 0.421785 0.955291 0.223481
H17   H     H_    0.022364 0.466952 0.836501 0.272725
H18   H     H_    0.983967 0.365475 0.928386 0.274398
H19   H     H_    0.020150 0.319734 0.796604 0.255367
H20   H     H_    0.623270 0.221072 0.249320 0.183724
H21   H     H_    0.606741 0.192348 0.111846 0.119642
H22   H     H_    0.449397 0.080271 0.273139 0.241891
H23   H     H_    0.078974 0.572239 0.338421 0.138034
H24   H     H_    0.461544 0.046937 0.136865 0.218650
H25   H     H_    0.693831 0.991134 0.156968 0.261955
H26   H     H_    0.595519 0.912598 0.237829 0.283305
H27   H     H_    0.681705 0.025734 0.294482 0.270709
H28   H     H_    0.611919 0.877174 0.781599 0.167252
H29   H     H_    0.561209 0.843234 0.905891 0.113352
H30   H     H_    0.409917 0.812494 0.701665 0.257678
H31   H     H_    0.353438 0.779775 0.827420 0.216726
H32   H     H_    0.367756 0.980795 0.887829 0.260521
H33   H     H_    0.264093 0.965119 0.777654 0.271877
H34   H     H_    0.918994 0.428312 0.660077 0.149401
H35   H     H_    0.422117 0.012883 0.760425 0.275215
H36   H     H_    0.614621 0.702183 0.002321 0.196039
H37   H     H_    0.425467 0.281181 0.994047 0.202718
H38   H     H_    0.341255 0.184209 0.454920 0.134092
H39   H     H_    0.658559 0.815684 0.545633 0.138614
H40   H     H_    0.708789 0.210759 0.583905 0.138318
N1    N     N_R   0.523490 0.207800 0.519350 -0.097932
N2    N     N_R   0.476510 0.792200 0.480650 -0.106352
N3    N     N_1   0.882492 0.313557 0.262862 -0.233701
N4    N     N_1   0.116257 0.688002 0.735941 -0.230425
O1    O     O_R   0.506270 0.421700 0.658830 -0.585641
O2    O     O_3   0.400547 0.356407 0.821365 -0.629699
O3    O     O_3   0.446804 0.270796 0.191522 -0.623014
O4    O     O_3   0.606411 0.708766 0.798236 -0.620352
O5    O     O_R   0.493730 0.578300 0.341170 -0.600483
O6    O     O_R   0.491200 0.609310 0.646410 -0.594397
O7    O     O_R   0.508800 0.390690 0.353590 -0.586810
O8    O     O_R   0.693580 0.406210 0.506230 -0.644184
O9    O     O_R   0.306420 0.593790 0.493770 -0.643818
O10   O     O_R   0.678510 0.593830 0.493810 -0.622190
O11   O     O_R   0.321490 0.406170 0.506190 -0.637167
O12   O     O_3   0.533219 0.667176 0.174444 -0.631200
Zn1   Zn    Zn3+2 0.510060 0.374730 0.508290 0.964532
Zn2   Zn    Zn3+2 0.489940 0.625270 0.491710 0.954540

loop_
_geom_bond_atom_site_label_1
_geom_bond_atom_site_label_2
_ccdc_geom_bond_type
C7    O10   A    
C2    H40   S    
C35   C36   S    
C30   O2    S    
C20   C41   A    
C9    C25   S    
C7    O8    A    
C18   C24   A    
C39   H33   S    
C28   C29   S    
C9    C16   S    
C32   H17   S    
C33   O3    S    
C38   C39   S    
C11   C14   S    
C29   H10   S    
C10   C17   S    
C23   C40   A    
C30   H13   S    
C25   N3    T    
C2    N1    A    
C31   H15   S    
C33   C35   S    
C44   H2    S    
C1    O6    A    
C34   O12   S    
C12   O7    A    
C43   H4    S    
O9    Zn2   S    
C27   H6    S    
C13   H12   S    
C10   C26   S    
C7    C15   S    
C5    C43   A    
O8    Zn1   S    
C3    N2    A    
C34   C41   A    
C42   C44   A    
C44   N2    A    
C36   H26   S    
C38   H31   S    
C27   O12   S    
C1    C19   S    
C20   H36   S    
C33   H21   S    
C19   C22   A    
C4    C6    A    
C10   C14   S    
C4    N1    A    
C8    C14   S    
C35   H22   S    
O10   Zn2   S    
C39   H35   S    
C31   H16   S    
C19   C23   A    
C8    O9    A    
C37   C38   S    
C18   C34   A    
C31   C32   S    
C2    C43   A    
C23   O2    S    
C16   H23   S    
C39   H32   S    
C9    C11   S    
C40   C41   A    
O11   Zn1   S    
C21   H37   S    
C13   C15   S    
C3    H39   S    
C14   C16   S    
C12   O5    A    
C13   C16   S    
C21   C24   A    
N2    Zn2   S    
C24   O3    S    
N1    Zn1   S    
C36   H25   S    
C38   H30   S    
C15   C17   S    
C37   H29   S    
C11   C17   S    
C1    O1    A    
C37   O4    S    
O1    Zn1   S    
C8    O11   A    
C32   H19   S    
C20   C22   A    
C3    C5    A    
C10   C13   S    
O5    Zn2   S    
C36   H27   S    
C29   H11   S    
C9    C15   S    
C32   H18   S    
C28   H8    S    
C30   C31   S    
C5    C6    A    
C21   C40   A    
C29   H9    S    
C35   H24   S    
C33   H20   S    
C30   H14   S    
C17   H34   S    
C28   H7    S    
C42   H3    S    
C11   H1    S    
C27   H5    S    
C4    H38   S    
O6    Zn2   S    
C26   N4    T    
C6    C42   A    
C37   H28   S    
C12   C18   S    
C27   C28   S    
C22   O4    S    
O7    Zn1   S    
