data_mof_unit_54510.cif
_audit_creation_date              2012-12-10T21:28:14-0500
_audit_creation_method            fapswitch 2.2
_symmetry_space_group_name_H-M    P1
_symmetry_Int_Tables_number       1
_space_group_crystal_system       triclinic
_cell_length_a                    12.805501
_cell_length_b                    16.098309
_cell_length_c                    16.6699
_cell_angle_alpha                 85.964184
_cell_angle_beta                  90.969943
_cell_angle_gamma                 100.186383
_cell_volume                      3373.85960611

loop_
_atom_site_label
_atom_site_type_symbol
_atom_type_description
_atom_site_fract_x
_atom_site_fract_y
_atom_site_fract_z
_atom_type_partial_charge
C1    C     C_R   0.502180 0.487776 0.653258 1.046552
C2    C     C_R   0.586592 0.587021 0.225170 0.291905
C3    C     C_R   0.447314 0.758397 0.462420 -0.038055
C4    C     C_R   0.550655 0.241204 0.539134 -0.053156
C5    C     C_R   0.451181 0.845835 0.464550 -0.360809
C6    C     C_R   0.546922 0.153823 0.536848 -0.382620
C7    C     C_R   0.523230 0.892962 0.516553 0.237302
C8    C     C_R   0.477697 0.107266 0.482713 0.249148
C9    C     C_R   0.589414 0.849652 0.566027 0.426518
C10   C     C_R   0.413850 0.150979 0.431431 0.426843
C11   C     C_R   0.583870 0.761404 0.560016 -0.144514
C12   C     C_R   0.501391 0.512730 0.346963 1.038521
C13   C     C_R   0.418900 0.239188 0.437824 -0.158955
C14   C     C_R   0.703127 0.516951 0.499912 0.956461
C15   C     C_R   0.296882 0.482863 0.499913 0.957547
C16   C     C_R   0.183555 0.469813 0.499231 -0.253177
C17   C     C_R   0.816154 0.528229 0.495060 -0.249615
C18   C     C_R   0.981384 0.597044 0.434504 0.391778
C19   C     C_R   0.013623 0.390814 0.542608 0.413469
C20   C     C_R   0.875204 0.598143 0.451300 0.414645
C21   C     C_R   0.123465 0.397070 0.538445 0.429769
C22   C     C_R   0.862798 0.461938 0.527525 -0.326360
C23   C     C_R   0.606104 0.542424 0.856559 0.325685
C24   C     C_R   0.136141 0.532754 0.460544 -0.321667
C25   C     C_R   0.967749 0.460200 0.512454 -0.069443
C26   C     C_R   0.028516 0.529822 0.467974 -0.054467
C27   C     C_R   0.522037 0.479296 0.739062 -0.408703
C28   C     C_R   0.505445 0.525754 0.260546 -0.412882
C29   C     C_R   0.598934 0.540268 0.772949 0.299750
C30   C     C_R   0.427845 0.478578 0.213476 0.358501
C31   C     C_3   0.668970 0.855461 0.691902 -0.324119
C32   C     C_3   0.334451 0.148067 0.304958 -0.293186
C33   C     C_3   0.173026 0.267110 0.539562 -0.189942
C34   C     C_R   0.434970 0.489514 0.129943 0.334772
C35   C     C_3   0.848700 0.731498 0.467331 -0.217448
C36   C     C_3   0.028072 0.643315 0.306325 0.110960
C37   C     C_3   0.096245 0.712768 0.254201 -0.836810
C38   C     C_3   0.900052 0.266941 0.527035 0.053666
C39   C     C_3   0.845557 0.185295 0.571147 -0.777838
C40   C     C_3   0.263871 0.456734 0.269891 -0.302322
C41   C     C_3   0.758194 0.571336 0.710557 -0.268484
C42   C     C_3   0.296175 0.491108 0.042130 0.145266
C43   C     C_3   0.198944 0.434677 0.009840 -0.770288
C44   C     C_3   0.631179 0.683541 0.878385 0.187889
C45   C     C_R   0.548872 0.474235 0.904990 -0.052233
C46   C     C_3   0.707414 0.756352 0.912051 -0.844666
C47   C     C_3   0.490799 0.287082 0.952428 0.140890
C48   C     C_3   0.421751 0.209635 0.993357 -0.803840
C49   C     C_3   0.772187 0.595435 0.111073 0.187453
C50   C     C_3   0.872576 0.651003 0.077549 -0.852200
C51   C     C_3   0.430100 0.276910 0.741718 -0.165435
C52   C     C_3   0.643367 0.717531 0.269828 -0.146814
C53   C     C_R   0.523644 0.543979 0.094582 -0.070394
C54   C     C_R   0.485507 0.405546 0.869776 0.311491
C55   C     C_R   0.599387 0.592026 0.141775 0.312134
C56   C     C_R   0.468489 0.409784 0.786548 0.348322
H1    H     H_    0.184711 0.586376 0.428262 0.214663
H2    H     H_    0.589218 0.826232 0.715916 0.152052
H3    H     H_    0.704778 0.903096 0.733965 0.196451
H4    H     H_    0.412767 0.181910 0.281778 0.165986
H5    H     H_    0.277446 0.192336 0.308056 0.175869
H6    H     H_    0.302154 0.101477 0.260904 0.193468
H7    H     H_    0.176913 0.280839 0.473005 0.106695
H8    H     H_    0.102493 0.218654 0.555964 0.174243
H9    H     H_    0.243920 0.239342 0.557701 0.180496
H10   H     H_    0.934360 0.760096 0.465820 0.186301
H11   H     H_    0.822996 0.712582 0.530485 0.138975
H12   H     H_    0.815703 0.411005 0.564181 0.207868
H13   H     H_    0.803494 0.780946 0.444156 0.170293
H14   H     H_    0.944021 0.639236 0.286142 0.184984
H15   H     H_    0.054734 0.582408 0.297007 0.112034
H16   H     H_    0.180850 0.717830 0.272452 0.246721
H17   H     H_    0.088172 0.697807 0.190129 0.201207
H18   H     H_    0.070484 0.774272 0.260840 0.268890
H19   H     H_    0.955435 0.250829 0.482135 0.117501
H20   H     H_    0.838197 0.296366 0.494021 0.152553
H21   H     H_    0.788417 0.199374 0.615485 0.245151
H22   H     H_    0.801976 0.142634 0.527504 0.217048
H23   H     H_    0.636596 0.727213 0.594728 0.174920
H24   H     H_    0.905381 0.152850 0.603181 0.259061
H25   H     H_    0.289510 0.508816 0.310266 0.123597
H26   H     H_    0.204254 0.408780 0.303097 0.176823
H27   H     H_    0.224192 0.480771 0.215541 0.160986
H28   H     H_    0.808142 0.618148 0.668888 0.171574
H29   H     H_    0.742819 0.510032 0.681631 0.134395
H30   H     H_    0.803773 0.565141 0.767444 0.187934
H31   H     H_    0.339373 0.527809 0.990154 0.151488
H32   H     H_    0.268587 0.535885 0.081665 0.087066
H33   H     H_    0.152983 0.397665 0.060400 0.244290
H34   H     H_    0.368040 0.273927 0.401720 0.164546
H35   H     H_    0.147570 0.474071 0.976272 0.192722
H36   H     H_    0.223566 0.390419 0.968650 0.293550
H37   H     H_    0.553360 0.677576 0.908945 0.127467
H38   H     H_    0.619873 0.700924 0.813606 0.160115
H39   H     H_    0.786973 0.761843 0.884589 0.253549
H40   H     H_    0.677504 0.816461 0.898145 0.192816
H41   H     H_    0.714109 0.745947 0.978215 0.299856
H42   H     H_    0.543777 0.318716 0.998879 0.158228
H43   H     H_    0.540439 0.265459 0.906525 0.092894
H44   H     H_    0.368573 0.175435 0.948521 0.247972
H45   H     H_    0.604242 0.276499 0.580504 0.141041
H46   H     H_    0.472593 0.166421 0.021591 0.194955
H47   H     H_    0.372827 0.229137 0.040674 0.276921
H48   H     H_    0.753478 0.538874 0.075086 0.151242
H49   H     H_    0.788830 0.574671 0.174478 0.144096
H50   H     H_    0.891537 0.709273 0.110786 0.259036
H51   H     H_    0.939941 0.616027 0.084251 0.194542
H52   H     H_    0.861850 0.668635 0.012759 0.277769
H53   H     H_    0.418620 0.234093 0.797115 0.163534
H54   H     H_    0.515059 0.288694 0.723250 0.105653
H55   H     H_    0.383685 0.243545 0.693087 0.181445
H56   H     H_    0.391948 0.722733 0.422422 0.145248
H57   H     H_    0.560805 0.720569 0.287792 0.127638
H58   H     H_    0.660657 0.749881 0.209166 0.164942
H59   H     H_    0.697775 0.752915 0.313023 0.189700
H60   H     H_    0.597675 0.123250 0.577286 0.193451
H61   H     H_    0.398152 0.875919 0.425745 0.199212
H62   H     H_    0.721785 0.807711 0.691277 0.182258
N1    N     N_2   0.544051 0.475732 0.989120 -0.089129
N2    N     N_2   0.540455 0.547095 0.011617 -0.089959
N3    N     N_R   0.512890 0.717880 0.509760 -0.104250
N4    N     N_R   0.487110 0.282120 0.490240 -0.102397
N5    N     N_2   0.531229 0.982734 0.522083 -0.140362
N6    N     N_2   0.469865 0.017517 0.477112 -0.137121
O1    O     O_R   0.495390 0.422190 0.612650 -0.611329
O2    O     O_3   0.343066 0.104028 0.380412 -0.608049
O3    O     O_3   0.173518 0.339408 0.582948 -0.552783
O4    O     O_3   0.826773 0.662809 0.417937 -0.570623
O5    O     O_3   0.039458 0.662984 0.387618 -0.607881
O6    O     O_3   0.954121 0.320953 0.583588 -0.585426
O7    O     O_3   0.348862 0.417659 0.248707 -0.559755
O8    O     O_3   0.663182 0.600830 0.724165 -0.602316
O9    O     O_3   0.360850 0.439808 0.084084 -0.534708
O10   O     O_3   0.673258 0.607848 0.891074 -0.566581
O11   O     O_3   0.424731 0.341376 0.917116 -0.543962
O12   O     O_R   0.504610 0.577810 0.387350 -0.615886
O13   O     O_3   0.688022 0.641822 0.106396 -0.587010
O14   O     O_3   0.390435 0.351775 0.752507 -0.536205
O15   O     O_3   0.661529 0.633437 0.272947 -0.559902
O16   O     O_R   0.503660 0.562120 0.618910 -0.588005
O17   O     O_R   0.496340 0.437880 0.381090 -0.596279
O18   O     O_R   0.650190 0.441600 0.497400 -0.646154
O19   O     O_R   0.349810 0.558400 0.502600 -0.636549
O20   O     O_R   0.658460 0.581530 0.503670 -0.575261
O21   O     O_R   0.341540 0.418470 0.496330 -0.593181
O22   O     O_3   0.663185 0.896746 0.614772 -0.603431
Zn1   Zn    Zn3+2 0.494480 0.406570 0.495820 0.963051
Zn2   Zn    Zn3+2 0.505520 0.593430 0.504180 0.976665

loop_
_geom_bond_atom_site_label_1
_geom_bond_atom_site_label_2
_ccdc_geom_bond_type
C37   H18   S    
C14   O18   A    
C16   C21   A    
C23   C45   A    
C49   O13   S    
C13   H34   S    
C27   C29   A    
C18   C26   A    
O20   Zn2   S    
O16   Zn2   S    
C49   H48   S    
C53   N2    S    
C33   H9    S    
N5    N6    D    
C38   H20   S    
C52   H57   S    
C41   H30   S    
C43   H33   S    
C47   H42   S    
C12   C28   S    
C42   O9    S    
C2    O15   S    
C23   C29   A    
C31   H2    S    
C36   C37   S    
C19   C21   A    
C1    O1    A    
C32   H5    S    
C20   O4    S    
C2    C55   A    
C38   C39   S    
C29   O8    S    
C32   O2    S    
C15   C16   S    
C9    O22   S    
C33   O3    S    
C17   C20   A    
C47   H43   S    
C12   O17   A    
C31   H3    S    
C44   H37   S    
C22   H12   S    
C31   O22   S    
C46   H39   S    
C44   C46   S    
C24   H1    S    
C22   C25   A    
C21   O3    S    
C36   H15   S    
C1    C27   S    
C45   N1    S    
C19   O6    S    
C16   C24   A    
C50   H52   S    
C40   H27   S    
C11   N3    A    
C40   H25   S    
O21   Zn1   S    
C36   H14   S    
C54   C56   A    
C38   H19   S    
C53   C55   A    
C44   O10   S    
O19   Zn2   S    
C48   H44   S    
C14   O20   A    
C30   C34   A    
C39   H22   S    
C40   H26   S    
C4    C6    A    
O1    Zn1   S    
C5    C7    A    
C27   C56   A    
C8    N6    S    
C6    C8    A    
C34   O9    S    
C25   C26   A    
C48   H47   S    
C43   H35   S    
C5    H61   S    
C31   H62   S    
C56   O14   S    
C47   C48   S    
C35   H11   S    
C3    H56   S    
C33   H7    S    
C48   H46   S    
C4    H45   S    
N3    Zn2   S    
C4    N4    A    
N4    Zn1   S    
C9    C11   A    
C6    H60   S    
O12   Zn2   S    
C1    O16   A    
C11   H23   S    
C15   O19   A    
C8    C10   A    
C46   H41   S    
C45   C54   A    
C51   H54   S    
C50   H51   S    
C42   H32   S    
C42   C43   S    
C32   H4    S    
C38   O6    S    
C15   O21   A    
C52   H59   S    
C7    C9    A    
C37   H17   S    
C51   H55   S    
C23   O10   S    
C47   O11   S    
O18   Zn1   S    
C40   O7    S    
C17   C22   A    
C7    N5    S    
C3    C5    A    
C10   C13   A    
C55   O13   S    
C41   O8    S    
C49   H49   S    
N1    N2    D    
C52   H58   S    
C41   H29   S    
C43   H36   S    
C35   H10   S    
C39   H24   S    
C28   C30   A    
C32   H6    S    
C52   O15   S    
C36   O5    S    
C13   N4    A    
C41   H28   S    
C24   C26   A    
C33   H8    S    
C54   O11   S    
C18   C20   A    
C35   O4    S    
C19   C25   A    
C44   H38   S    
O17   Zn1   S    
C51   O14   S    
C3    N3    A    
C46   H40   S    
C35   H13   S    
C34   C53   A    
C51   H53   S    
C49   C50   S    
C12   O12   A    
C37   H16   S    
C39   H21   S    
C50   H50   S    
C18   O5    S    
C2    C28   A    
C42   H31   S    
C10   O2    S    
C30   O7    S    
C14   C17   S    
