data_mof_unit_13665.cif
_audit_creation_date              2012-12-10T17:19:21-0500
_audit_creation_method            fapswitch 2.2
_symmetry_space_group_name_H-M    P1
_symmetry_Int_Tables_number       1
_space_group_crystal_system       triclinic
_cell_length_a                    18.286464
_cell_length_b                    18.282798
_cell_length_c                    34.535695
_cell_angle_alpha                 90.022587
_cell_angle_beta                  90.00402
_cell_angle_gamma                 90.216439
_cell_volume                      11546.1571156

loop_
_atom_site_label
_atom_site_type_symbol
_atom_type_description
_atom_site_fract_x
_atom_site_fract_y
_atom_site_fract_z
_atom_type_partial_charge
C1    C     C_R   0.534446 0.871127 0.519816 0.366065
C2    C     C_R   0.962572 0.628329 0.979238 0.365215
C3    C     C_R   0.566100 0.990783 0.959897 -0.161323
C4    C     C_R   0.984400 0.564725 0.040001 -0.158126
C5    C     C_R   0.024084 0.437381 0.958598 -0.157185
C6    C     C_R   0.564541 0.982397 0.041217 -0.136830
C7    C     C_R   0.434438 0.012041 0.959944 -0.152773
C8    C     C_R   0.999999 0.500002 0.644227 0.988355
C9    C     C_R   0.999999 0.500024 0.356149 0.919137
C10   C     C_R   0.500005 0.999989 0.643865 0.928751
C11   C     C_R   0.500007 0.000013 0.355806 0.980840
C12   C     C_R   0.500036 0.000235 0.144185 0.954214
C13   C     C_R   0.369725 0.029865 0.020870 0.293856
C14   C     C_R   0.500016 0.000112 0.856128 0.930847
C15   C     C_R   0.000010 0.499988 0.143848 0.919035
C16   C     C_R   0.000003 0.500012 0.855773 0.988505
C17   C     C_R   0.860161 0.639832 0.750007 0.783848
C18   C     C_R   0.139903 0.360153 0.249981 0.785244
C19   C     C_R   0.360231 0.860204 0.749999 0.780872
C20   C     C_R   0.639785 0.139791 0.250006 0.773030
C21   C     C_R   0.139822 0.360162 0.749995 0.783623
C22   C     C_R   0.860181 0.639909 0.250027 0.785029
C23   C     C_R   0.639776 0.139787 0.749997 0.781050
C24   C     C_R   0.629724 0.969129 0.980126 0.360658
C25   C     C_R   0.360324 0.860077 0.249923 0.775919
C26   C     C_R   0.860213 0.360207 0.249993 0.778471
C27   C     C_R   0.139776 0.639810 0.749996 0.776044
C28   C     C_R   0.360141 0.139809 0.250019 0.786096
C29   C     C_R   0.639880 0.860121 0.749993 0.784368
C30   C     C_R   0.139620 0.639921 0.250107 0.778632
C31   C     C_R   0.860225 0.360197 0.749988 0.775900
C32   C     C_R   0.639785 0.860111 0.249978 0.801147
C33   C     C_R   0.360135 0.139888 0.750006 0.784252
C34   C     C_R   0.140966 0.751401 0.691631 -0.414202
C35   C     C_R   0.957601 0.626305 0.019832 0.364739
C36   C     C_R   0.749791 0.358035 0.191211 -0.451845
C37   C     C_R   0.395914 0.289017 0.769327 -0.370909
C38   C     C_R   0.605219 0.712503 0.227654 -0.341119
C39   C     C_R   0.859133 0.248410 0.691681 -0.414423
C40   C     C_R   0.141492 0.750958 0.308594 -0.452221
C41   C     C_R   0.604105 0.711098 0.769406 -0.370883
C42   C     C_R   0.394505 0.286810 0.226873 -0.390406
C43   C     C_R   0.287657 0.394655 0.227639 -0.369494
C44   C     C_R   0.711751 0.604160 0.770066 -0.388437
C45   C     C_R   0.251602 0.856486 0.309717 -0.410609
C46   C     C_R   0.037628 0.371741 0.979176 0.366304
C47   C     C_R   0.753865 0.138064 0.693303 -0.456315
C48   C     C_R   0.712578 0.605173 0.227728 -0.367235
C49   C     C_R   0.288191 0.395874 0.770098 -0.388270
C50   C     C_R   0.644283 0.247913 0.189930 -0.409452
C51   C     C_R   0.246254 0.861731 0.693241 -0.456116
C52   C     C_R   0.747944 0.144345 0.310084 -0.410441
C53   C     C_R   0.361955 0.746013 0.806629 -0.454734
C54   C     C_R   0.894652 0.787705 0.272376 -0.368643
C55   C     C_R   0.104212 0.211727 0.729850 -0.388251
C56   C     C_R   0.357561 0.749449 0.190913 -0.422465
C57   C     C_R   0.631114 0.973961 0.020753 0.364799
C58   C     C_R   0.637702 0.254460 0.806398 -0.456216
C59   C     C_R   0.105433 0.212602 0.272614 -0.368408
C60   C     C_R   0.895785 0.788208 0.729839 -0.388294
C61   C     C_R   0.788869 0.895881 0.730517 -0.370414
C62   C     C_R   0.213031 0.105496 0.273082 -0.389028
C63   C     C_R   0.748396 0.359344 0.808215 -0.414533
C64   C     C_R   0.250312 0.641000 0.191663 -0.452329
C65   C     C_R   0.211162 0.104088 0.730505 -0.370318
C66   C     C_R   0.786862 0.894611 0.272991 -0.390430
C67   C     C_R   0.251432 0.640940 0.808329 -0.413974
C68   C     C_R   0.370934 0.034034 0.980189 0.367374
C69   C     C_R   0.858113 0.249798 0.308760 -0.451574
C70   C     C_R   0.139636 0.806837 0.663424 0.541739
C71   C     C_R   0.697370 0.356847 0.161477 0.537184
C72   C     C_R   0.414844 0.361723 0.778028 0.528417
C73   C     C_R   0.586708 0.640374 0.217505 0.527381
C74   C     C_R   0.860508 0.192885 0.663503 0.541770
C75   C     C_R   0.142565 0.803664 0.338198 0.537282
C76   C     C_R   0.585147 0.638422 0.778122 0.528484
C77   C     C_R   0.413105 0.358771 0.216509 0.529108
C78   C     C_R   0.359649 0.412879 0.217068 0.528114
C79   C     C_R   0.248936 0.805621 0.721362 0.047877
C80   C     C_R   0.639121 0.584897 0.778579 0.531568
C81   C     C_R   0.197952 0.856342 0.338875 0.536712
C82   C     C_R   0.808015 0.137358 0.664465 0.532383
C83   C     C_R   0.640500 0.586603 0.217526 0.525744
C84   C     C_R   0.360821 0.415195 0.778577 0.531677
C85   C     C_R   0.644729 0.301424 0.160710 0.537242
C86   C     C_R   0.192133 0.862360 0.664384 0.532163
C87   C     C_R   0.801492 0.144802 0.339293 0.537192
C88   C     C_R   0.362671 0.691796 0.835430 0.529249
C89   C     C_R   0.912864 0.859712 0.282966 0.528314
C90   C     C_R   0.696844 0.248597 0.220028 0.043781
C91   C     C_R   0.084992 0.139098 0.721252 0.531410
C92   C     C_R   0.357624 0.694927 0.162163 0.532050
C93   C     C_R   0.636925 0.308780 0.835168 0.530222
C94   C     C_R   0.087148 0.140664 0.283255 0.528369
C95   C     C_R   0.915021 0.860817 0.721240 0.531489
C96   C     C_R   0.861513 0.914813 0.721725 0.528764
C97   C     C_R   0.141097 0.087038 0.283571 0.529745
C98   C     C_R   0.692673 0.361023 0.836258 0.542364
C99   C     C_R   0.303697 0.640794 0.162452 0.537999
C100  C     C_R   0.138522 0.085124 0.721713 0.528782
C101  C     C_R   0.268799 0.323400 0.759550 0.044380
C102  C     C_R   0.858800 0.913219 0.283401 0.530660
C103  C     C_R   0.307020 0.639444 0.836454 0.542277
C104  C     C_R   0.856927 0.197424 0.338510 0.536574
C105  C     C_R   0.500023 0.999999 0.519633 -0.054343
C106  C     C_R   0.500032 0.000015 0.479068 -0.054588
C107  C     C_R   0.000037 0.500214 0.521037 -0.054404
C108  C     C_R   0.000039 0.500239 0.480450 -0.055410
C109  C     C_R   0.000065 0.500015 0.019543 -0.054887
C110  C     C_R   0.000061 0.500024 0.978955 -0.054488
C111  C     C_R   0.500418 0.001928 0.020899 -0.048385
C112  C     C_R   0.470021 0.130297 0.479232 0.364175
C113  C     C_R   0.731583 0.677194 0.239259 0.040174
C114  C     C_R   0.500328 0.001661 0.980337 -0.055555
C115  C     C_R   0.751133 0.194268 0.721393 0.047720
C116  C     C_R   0.251121 0.803548 0.279789 0.043995
C117  C     C_R   0.731180 0.676624 0.759549 0.044349
C118  C     C_R   0.268487 0.322677 0.239122 0.043508
C119  C     C_R   0.322736 0.268155 0.238925 0.043826
C120  C     C_R   0.676708 0.730912 0.759364 0.043613
C121  C     C_R   0.195922 0.749699 0.279514 0.044331
C122  C     C_R   0.804953 0.249493 0.720949 0.043379
C123  C     C_R   0.677175 0.731559 0.239231 0.042281
C124  C     C_R   0.871756 0.537734 0.520789 0.366582
C125  C     C_R   0.323294 0.269134 0.759343 0.043658
C126  C     C_R   0.750737 0.303750 0.220370 0.044527
C127  C     C_R   0.195103 0.750410 0.720927 0.043359
C128  C     C_R   0.803792 0.250737 0.279613 0.044948
C129  C     C_R   0.250425 0.695091 0.779048 0.043143
C130  C     C_R   0.768179 0.822775 0.261014 0.041734
C131  C     C_R   0.230942 0.176700 0.740596 0.043569
C132  C     C_R   0.249465 0.695636 0.220663 0.044949
C133  C     C_R   0.749466 0.305080 0.778970 0.043239
C134  C     C_R   0.231788 0.177278 0.261088 0.043997
C135  C     C_R   0.126336 0.457878 0.480172 0.367006
C136  C     C_R   0.769069 0.823284 0.740593 0.043548
C137  C     C_R   0.823353 0.768808 0.740417 0.044460
C138  C     C_R   0.177346 0.231609 0.260951 0.043685
C139  C     C_R   0.694141 0.251370 0.778477 0.049197
C140  C     C_R   0.303839 0.750325 0.220418 0.048645
C141  C     C_R   0.176646 0.231165 0.740417 0.044400
C142  C     C_R   0.822699 0.768522 0.260851 0.044967
C143  C     C_R   0.305708 0.748847 0.778583 0.049263
C144  C     C_R   0.748610 0.196876 0.279978 0.043722
C145  C     C_R   0.304091 0.804029 0.749984 -0.029290
C146  C     C_R   0.465611 0.128874 0.519886 0.366160
C147  C     C_R   0.695918 0.195946 0.250009 -0.032703
C148  C     C_R   0.195940 0.304047 0.749998 -0.028644
C149  C     C_R   0.804000 0.696074 0.250009 -0.026426
C150  C     C_R   0.695908 0.195978 0.749972 -0.029176
C151  C     C_R   0.304193 0.803869 0.250000 -0.033558
C152  C     C_R   0.804047 0.695949 0.750004 -0.028733
C153  C     C_R   0.196082 0.303970 0.250006 -0.028850
C154  C     C_R   0.304027 0.195932 0.250005 -0.028453
C155  C     C_R   0.696057 0.803936 0.749985 -0.030671
C156  C     C_R   0.195781 0.696045 0.250062 -0.031470
C157  C     C_R   0.530066 0.869738 0.479159 0.364174
C158  C     C_R   0.804070 0.304052 0.749984 -0.032852
C159  C     C_R   0.695907 0.803970 0.250047 -0.026117
C160  C     C_R   0.303952 0.196075 0.749990 -0.030619
C161  C     C_R   0.804061 0.304029 0.249987 -0.031508
C162  C     C_R   0.195919 0.695969 0.750002 -0.033056
C163  C     C_R   0.506064 0.066466 0.579823 0.405256
C164  C     C_R   0.534812 0.943100 0.418709 0.403711
C165  C     C_R   0.055313 0.462728 0.581408 0.400265
C166  C     C_R   0.933280 0.498218 0.420288 0.406042
C167  C     C_R   0.493988 0.933502 0.579790 0.405245
C168  C     C_R   0.128339 0.462781 0.520773 0.366582
C169  C     C_R   0.465280 0.056983 0.418735 0.403348
C170  C     C_R   0.944724 0.537507 0.581448 0.400241
C171  C     C_R   0.066724 0.502208 0.420272 0.406088
C172  C     C_R   0.001991 0.566726 0.079733 0.403802
C173  C     C_R   0.037446 0.444738 0.918549 0.399718
C174  C     C_R   0.557916 0.967690 0.081134 0.327646
C175  C     C_R   0.433769 0.994019 0.920235 0.401329
C176  C     C_R   0.998180 0.433243 0.079693 0.405257
C177  C     C_R   0.962650 0.555327 0.918579 0.399789
C178  C     C_R   0.442980 0.035382 0.081331 0.412501
C179  C     C_R   0.873794 0.542720 0.480197 0.367240
C180  C     C_R   0.566550 0.007826 0.920096 0.406871
C181  C     C_R   0.500022 0.999981 0.600874 -0.287877
C182  C     C_R   0.500035 0.000037 0.398251 -0.284013
C183  C     C_R   0.000002 0.500065 0.601829 -0.281855
C184  C     C_R   0.999996 0.500132 0.399163 -0.289231
C185  C     C_R   0.000048 0.499978 0.100831 -0.288596
C186  C     C_R   0.000035 0.500031 0.898165 -0.281799
C187  C     C_R   0.500262 0.001065 0.101721 -0.323490
C188  C     C_R   0.500104 0.000630 0.899112 -0.287336
C189  C     C_R   0.511568 0.934333 0.540040 -0.158176
C190  C     C_R   0.042649 0.373778 0.019765 0.365571
C191  C     C_R   0.479448 0.063825 0.458732 -0.156941
C192  C     C_R   0.937385 0.524194 0.541386 -0.157182
C193  C     C_R   0.064750 0.484645 0.460003 -0.158576
C194  C     C_R   0.488474 0.065653 0.540075 -0.158195
C195  C     C_R   0.520635 0.936225 0.458699 -0.156899
C196  C     C_R   0.062681 0.476195 0.541368 -0.157118
C197  C     C_R   0.935325 0.515857 0.460016 -0.158562
C198  C     C_R   0.015762 0.435300 0.039964 -0.158372
C199  C     C_R   0.976041 0.562676 0.958631 -0.156606
C200  C     C_R   0.436357 0.021488 0.041296 -0.180755
H1    H     H_    0.098926 0.709624 0.690534 0.154141
H2    H     H_    0.752495 0.561652 0.771987 0.149663
H3    H     H_    0.293267 0.898644 0.310655 0.153822
H4    H     H_    0.714155 0.094028 0.693536 0.157221
H5    H     H_    0.753281 0.562540 0.226299 0.150406
H6    H     H_    0.247416 0.438348 0.772065 0.149584
H7    H     H_    0.602109 0.206269 0.188944 0.154127
H8    H     H_    0.285963 0.905766 0.693471 0.157292
H9    H     H_    0.706282 0.102193 0.311084 0.153738
H10   H     H_    0.406062 0.785641 0.806361 0.157063
H11   H     H_    0.937474 0.747173 0.273555 0.149764
H12   H     H_    0.789544 0.402028 0.191294 0.158111
H13   H     H_    0.061704 0.252472 0.727939 0.149618
H14   H     H_    0.400350 0.790485 0.190123 0.146458
H15   H     H_    0.593507 0.214934 0.806065 0.157530
H16   H     H_    0.062697 0.253221 0.273850 0.149753
H17   H     H_    0.938279 0.747447 0.727921 0.149598
H18   H     H_    0.748438 0.938743 0.729108 0.152661
H19   H     H_    0.253862 0.062993 0.274668 0.148853
H20   H     H_    0.790311 0.401239 0.809383 0.154204
H21   H     H_    0.209892 0.597626 0.191540 0.158804
H22   H     H_    0.251606 0.061239 0.729083 0.152681
H23   H     H_    0.438806 0.248618 0.770712 0.152881
H24   H     H_    0.745957 0.937030 0.274663 0.146582
H25   H     H_    0.209573 0.598987 0.809463 0.154149
H26   H     H_    0.902129 0.289523 0.308660 0.157962
H27   H     H_    0.266636 0.553283 0.861625 0.357547
H28   H     H_    0.945402 0.236069 0.362358 0.349511
H29   H     H_    0.161080 0.981816 0.717123 0.322437
H30   H     H_    0.834270 0.015262 0.292022 0.320999
H31   H     H_    0.733081 0.447192 0.861449 0.357467
H32   H     H_    0.264134 0.552822 0.138461 0.348986
H33   H     H_    0.839013 0.018135 0.717212 0.322432
H34   H     H_    0.562585 0.753202 0.226174 0.156531
H35   H     H_    0.165358 0.984883 0.291899 0.321089
H36   H     H_    0.984577 0.164242 0.290488 0.321946
H37   H     H_    0.017775 0.837178 0.714818 0.320306
H38   H     H_    0.447041 0.731495 0.138737 0.337799
H39   H     H_    0.546122 0.272561 0.857561 0.347995
H40   H     H_    0.015561 0.836413 0.289907 0.322081
H41   H     H_    0.982214 0.162676 0.714898 0.320290
H42   H     H_    0.759324 0.060242 0.365225 0.357748
H43   H     H_    0.453309 0.728226 0.857936 0.347717
H44   H     H_    0.560142 0.259227 0.134789 0.357942
H45   H     H_    0.901162 0.290197 0.690581 0.153932
H46   H     H_    0.228972 0.952646 0.641681 0.348286
H47   H     H_    0.664261 0.484060 0.210216 0.321894
H48   H     H_    0.337167 0.517981 0.784925 0.320201
H49   H     H_    0.239942 0.941269 0.364584 0.357353
H50   H     H_    0.771191 0.047018 0.641776 0.348246
H51   H     H_    0.336553 0.515724 0.210614 0.322015
H52   H     H_    0.662664 0.482065 0.784754 0.320156
H53   H     H_    0.481830 0.660916 0.782578 0.322426
H54   H     H_    0.515078 0.334203 0.207779 0.320975
H55   H     H_    0.946773 0.233135 0.638374 0.357434
H56   H     H_    0.097515 0.711187 0.308567 0.157513
H57   H     H_    0.054099 0.765176 0.362104 0.349397
H58   H     H_    0.518223 0.339396 0.782215 0.322425
H59   H     H_    0.484131 0.663990 0.210363 0.321770
H60   H     H_    0.053413 0.766513 0.638269 0.357720
H61   H     H_    0.736010 0.445295 0.137616 0.350083
H62   H     H_    0.656007 0.154397 0.631928 0.391089
H63   H     H_    0.690800 0.924017 0.353364 0.373984
H64   H     H_    0.069705 0.309984 0.649005 0.369582
H65   H     H_    0.834033 0.357690 0.366096 0.391041
H66   H     H_    0.344086 0.845519 0.631851 0.391111
H67   H     H_    0.561250 0.751534 0.770828 0.152728
H68   H     H_    0.309265 0.076251 0.353408 0.374146
H69   H     H_    0.930378 0.690043 0.649252 0.369536
H70   H     H_    0.165313 0.643258 0.366191 0.390921
H71   H     H_    0.143153 0.665534 0.133676 0.390791
H72   H     H_    0.189955 0.430336 0.850790 0.369585
H73   H     H_    0.502419 0.840199 0.116692 0.329236
H74   H     H_    0.348546 0.841357 0.869234 0.391840
H75   H     H_    0.857916 0.333841 0.133935 0.391223
H76   H     H_    0.810163 0.569778 0.850815 0.369459
H77   H     H_    0.422801 0.191270 0.146708 0.373155
H78   H     H_    0.436899 0.245882 0.225163 0.148953
H79   H     H_    0.651800 0.159509 0.868468 0.391308
H80   H     H_    0.686701 0.743782 0.529318 0.422971
H81   H     H_    0.545131 0.315457 0.473040 0.405948
H82   H     H_    0.682888 0.472472 0.525584 0.405916
H83   H     H_    0.233754 0.291697 0.469863 0.419158
H84   H     H_    0.313208 0.256028 0.529469 0.422785
H85   H     H_    0.455083 0.684533 0.472811 0.405937
H86   H     H_    0.317100 0.528331 0.525733 0.405946
H87   H     H_    0.767446 0.709536 0.469993 0.419057
H88   H     H_    0.209421 0.267271 0.029822 0.418933
H89   H     H_    0.247150 0.437505 0.226514 0.150308
H90   H     H_    0.027947 0.817187 0.974426 0.411652
H91   H     H_    0.322559 0.914091 0.075001 0.347021
H92   H     H_    0.761001 0.819992 0.971512 0.422721
H93   H     H_    0.791700 0.734357 0.029887 0.419527
H94   H     H_    0.972217 0.182893 0.974318 0.407849
H95   H     H_    0.814711 0.052666 0.027097 0.407584
H96   H     H_    0.238749 0.182150 0.970897 0.423568
O1    O     O_3   1.000000 0.500000 0.750000 -0.541758
O2    O     O_R   0.060740 0.500000 0.337440 -0.575790
O3    O     O_2   0.336607 0.127411 0.428234 -0.208361
O4    O     O_2   0.414777 0.168287 0.374584 -0.193969
O5    O     O_3   0.345196 0.045472 0.367301 -0.617392
O6    O     O_2   0.880039 0.669469 0.572847 -0.199381
O7    O     O_2   0.835040 0.591403 0.625627 -0.197181
O8    O     O_3   0.960460 0.655476 0.634007 -0.619345
O9    O     O_2   0.191983 0.576919 0.434538 -0.210853
O10   O     O_2   0.190285 0.497725 0.377202 -0.188207
O11   O     O_3   0.119071 0.620126 0.374838 -0.573298
O12   O     O_2   0.076489 0.692116 0.065481 -0.208030
O13   O     O_R   0.500000 0.939260 0.662560 -0.576059
O14   O     O_2   0.997396 0.690304 0.122830 -0.185053
O15   O     O_3   0.119891 0.619256 0.125153 -0.574732
O16   O     O_2   0.169359 0.380005 0.927197 -0.198610
O17   O     O_2   0.091333 0.335017 0.874372 -0.196937
O18   O     O_3   0.155439 0.460446 0.866050 -0.619356
O19   O     O_2   0.630737 0.840189 0.070963 -0.208323
O20   O     O_2   0.669496 0.917614 0.125224 -0.147773
O21   O     O_3   0.548273 0.845782 0.131676 -0.579986
O22   O     O_2   0.315761 0.908693 0.934679 -0.229483
O23   O     O_2   0.309993 0.987575 0.877302 -0.180439
O24   O     O_R   0.500000 0.060740 0.337440 -0.589462
O25   O     O_3   0.391873 0.872236 0.874782 -0.579620
O26   O     O_2   0.924160 0.307539 0.065427 -0.209990
O27   O     O_2   0.003346 0.309701 0.122743 -0.187271
O28   O     O_3   0.880559 0.380223 0.125135 -0.572854
O29   O     O_2   0.830780 0.620132 0.927273 -0.198009
O30   O     O_2   0.908775 0.665045 0.874441 -0.197074
O31   O     O_3   0.844593 0.539642 0.866105 -0.619064
O32   O     O_2   0.371718 0.163596 0.072040 -0.206485
O33   O     O_2   0.331354 0.084906 0.125586 -0.182279
O34   O     O_3   0.453702 0.155239 0.132953 -0.611900
O35   O     O_R   0.560740 0.000000 0.162560 -0.574660
O36   O     O_2   0.684909 0.093109 0.933863 -0.213690
O37   O     O_2   0.690123 0.012995 0.876932 -0.182138
O38   O     O_3   0.608537 0.128482 0.873897 -0.580343
O39   O     O_2   0.621282 0.835028 0.580067 -0.263603
O40   O     O_2   0.544572 0.737318 0.552955 -0.146351
O41   O     O_3   0.658220 0.779726 0.514136 -0.477622
O42   O     O_2   0.533728 0.204064 0.420361 -0.252787
O43   O     O_2   0.419874 0.254843 0.446600 -0.158177
O44   O     O_3   0.538893 0.268314 0.486795 -0.459230
O45   O     O_2   0.793686 0.476821 0.578925 -0.247953
O46   O     O_R   0.439260 0.000000 0.837440 -0.575812
O47   O     O_2   0.749480 0.593773 0.553057 -0.170783
O48   O     O_3   0.730598 0.476340 0.512148 -0.459796
O49   O     O_2   0.155891 0.368399 0.419995 -0.272420
O50   O     O_2   0.259241 0.436781 0.447463 -0.139008
O51   O     O_3   0.206951 0.327129 0.486219 -0.481012
O52   O     O_2   0.378771 0.164942 0.580149 -0.263827
O53   O     O_2   0.455456 0.262675 0.553087 -0.146230
O54   O     O_3   0.341819 0.220243 0.514237 -0.477723
O55   O     O_2   0.466442 0.795996 0.420217 -0.252955
O56   O     O_2   0.580314 0.745262 0.446443 -0.157889
O57   O     O_R   1.000000 0.560740 0.162560 -0.575512
O58   O     O_3   0.461282 0.731665 0.486602 -0.459289
O59   O     O_2   0.206242 0.523641 0.579018 -0.248117
O60   O     O_2   0.250665 0.406837 0.553030 -0.170540
O61   O     O_3   0.269417 0.524414 0.512268 -0.459815
O62   O     O_2   0.844535 0.632370 0.420089 -0.272681
O63   O     O_2   0.740930 0.564407 0.447543 -0.138719
O64   O     O_3   0.793753 0.673783 0.486366 -0.481350
O65   O     O_2   0.132431 0.344571 0.079834 -0.272577
O66   O     O_2   0.064506 0.240902 0.052363 -0.133852
O67   O     O_3   0.173743 0.293839 0.013520 -0.480514
O68   O     O_R   1.000000 0.439260 0.837440 -0.589582
O69   O     O_2   0.023557 0.706286 0.921082 -0.247717
O70   O     O_2   0.906685 0.750665 0.946959 -0.172123
O71   O     O_3   0.024108 0.769461 0.987851 -0.451911
O72   O     O_2   0.245517 0.078532 0.054446 -0.110864
O73   O     O_2   0.236956 0.965730 0.016977 -0.191756
O74   O     O_3   0.298390 0.959345 0.084111 -0.488329
O75   O     O_2   0.667318 0.882275 0.920086 -0.261722
O76   O     O_2   0.763703 0.960788 0.947102 -0.146644
O77   O     O_3   0.722962 0.846765 0.986134 -0.477857
O78   O     O_2   0.867953 0.655773 0.079927 -0.269009
O79   O     O_R   0.439260 0.000000 0.162560 -0.596589
O80   O     O_2   0.936355 0.759194 0.052580 -0.133736
O81   O     O_3   0.826854 0.706892 0.013676 -0.480153
O82   O     O_2   0.976650 0.293691 0.921017 -0.247580
O83   O     O_2   0.093573 0.249417 0.946878 -0.171007
O84   O     O_3   0.976194 0.230588 0.987784 -0.458231
O85   O     O_2   0.703750 0.038545 0.079791 -0.250307
O86   O     O_2   0.756656 0.925926 0.053254 -0.156297
O87   O     O_3   0.767725 0.045473 0.013314 -0.458282
O88   O     O_2   0.332519 0.119490 0.919777 -0.260736
O89   O     O_2   0.236832 0.040656 0.947210 -0.146518
O90   O     O_R   0.560740 0.000000 0.837440 -0.576070
O91   O     O_3   0.276697 0.155661 0.985720 -0.476249
O92   O     O_R   1.000000 0.439260 0.162560 -0.576007
O93   O     O_3   1.000000 0.500000 0.250000 -0.542326
O94   O     O_R   1.000000 0.560740 0.837440 -0.589784
O95   O     O_R   0.853850 0.585450 0.727070 -0.614613
O96   O     O_R   0.146150 0.414550 0.272930 -0.620461
O97   O     O_R   0.414550 0.853850 0.727070 -0.618838
O98   O     O_R   0.585450 0.146150 0.272930 -0.626484
O99   O     O_R   0.146150 0.414550 0.727070 -0.614712
O100  O     O_R   0.853850 0.585450 0.272930 -0.621015
O101  O     O_R   0.585450 0.146150 0.727070 -0.618864
O102  O     O_R   0.414550 0.853850 0.272930 -0.626459
O103  O     O_R   0.853850 0.414550 0.272930 -0.621381
O104  O     O_3   0.500000 0.000000 0.750000 -0.543925
O105  O     O_R   0.146150 0.585450 0.727070 -0.626334
O106  O     O_R   0.414550 0.146150 0.272930 -0.613389
O107  O     O_R   0.585450 0.853850 0.727070 -0.622438
O108  O     O_R   0.146150 0.585450 0.272930 -0.621325
O109  O     O_R   0.853850 0.414550 0.727070 -0.626477
O110  O     O_R   0.585450 0.853850 0.272930 -0.621161
O111  O     O_R   0.414550 0.146150 0.727070 -0.622474
O112  O     O_R   0.353850 0.085450 0.227070 -0.611344
O113  O     O_R   0.646150 0.914550 0.772930 -0.622587
O114  O     O_R   0.914550 0.353850 0.227070 -0.621140
O115  O     O_3   0.500000 0.000000 0.250000 -0.542632
O116  O     O_R   0.085450 0.646150 0.772930 -0.626195
O117  O     O_R   0.646150 0.914550 0.227070 -0.601918
O118  O     O_R   0.353850 0.085450 0.772930 -0.622550
O119  O     O_R   0.085450 0.646150 0.227070 -0.620852
O120  O     O_R   0.914550 0.353850 0.772930 -0.626152
O121  O     O_R   0.353850 0.914550 0.772930 -0.617258
O122  O     O_R   0.646150 0.085450 0.227070 -0.627576
O123  O     O_R   0.914550 0.646150 0.772930 -0.614673
O124  O     O_R   0.085450 0.353850 0.227070 -0.619781
O125  O     O_R   0.646150 0.085450 0.772930 -0.616747
O126  O     O_R   0.060740 0.500000 0.662560 -0.589691
O127  O     O_R   0.353850 0.914550 0.227070 -0.627485
O128  O     O_R   0.085450 0.353850 0.772930 -0.614549
O129  O     O_R   0.914550 0.646150 0.227070 -0.619208
O130  O     O_3   0.308946 0.586664 0.864993 -0.630144
O131  O     O_3   0.909636 0.196172 0.367131 -0.627239
O132  O     O_3   0.118281 0.014064 0.713341 -0.630351
O133  O     O_3   0.877823 0.983456 0.294220 -0.632238
O134  O     O_3   0.690695 0.413897 0.864770 -0.629153
O135  O     O_3   0.305073 0.587574 0.134081 -0.629373
O136  O     O_3   0.881779 0.985862 0.713378 -0.630354
O137  O     O_R   0.939260 0.500000 0.337440 -0.575781
O138  O     O_3   0.121960 0.016829 0.294343 -0.631576
O139  O     O_3   0.016821 0.121238 0.293634 -0.631806
O140  O     O_3   0.985924 0.880610 0.712242 -0.630569
O141  O     O_3   0.410528 0.692517 0.133711 -0.641968
O142  O     O_3   0.581969 0.312313 0.862516 -0.628047
O143  O     O_3   0.983224 0.879309 0.293202 -0.631885
O144  O     O_3   0.014086 0.119266 0.712274 -0.630574
O145  O     O_3   0.801495 0.093786 0.368749 -0.631225
O146  O     O_3   0.417483 0.688453 0.862868 -0.630063
O147  O     O_3   0.593682 0.301400 0.131260 -0.630807
O148  O     O_R   0.500000 0.060740 0.662560 -0.575972
O149  O     O_3   0.189026 0.916967 0.636829 -0.627927
O150  O     O_3   0.621068 0.516143 0.207354 -0.631449
O151  O     O_3   0.380616 0.486156 0.787495 -0.630650
O152  O     O_3   0.197822 0.907699 0.368184 -0.630989
O153  O     O_3   0.811153 0.082675 0.636932 -0.627825
O154  O     O_3   0.379288 0.483306 0.206997 -0.630763
O155  O     O_3   0.619284 0.513944 0.787455 -0.630616
O156  O     O_3   0.514085 0.618133 0.786401 -0.630221
O157  O     O_3   0.483303 0.377796 0.205668 -0.631631
O158  O     O_3   0.913274 0.190928 0.634952 -0.629227
O159  O     O_R   0.500000 0.939260 0.337440 -0.589468
O160  O     O_3   0.089788 0.805193 0.366776 -0.627142
O161  O     O_3   0.485926 0.382093 0.786209 -0.630275
O162  O     O_3   0.516276 0.620870 0.207360 -0.629759
O163  O     O_3   0.086909 0.808715 0.634850 -0.629286
O164  O     O_3   0.696094 0.409538 0.132855 -0.626525
O165  O     O_2   0.589467 0.186030 0.565713 -0.213450
O166  O     O_2   0.510012 0.190197 0.622904 -0.184009
O167  O     O_3   0.626757 0.110326 0.625589 -0.578317
O168  O     O_2   0.663536 0.872771 0.428197 -0.208331
O169  O     O_2   0.585442 0.831878 0.374497 -0.195074
O170  O     O_R   0.939260 0.500000 0.662560 -0.589657
O171  O     O_3   0.654916 0.954769 0.367318 -0.617966
O172  O     O_2   0.120141 0.330866 0.572631 -0.199496
O173  O     O_2   0.164982 0.408763 0.625554 -0.197330
O174  O     O_3   0.039603 0.344530 0.633770 -0.618814
O175  O     O_2   0.807691 0.424060 0.434547 -0.210590
O176  O     O_2   0.809736 0.503181 0.377219 -0.188653
O177  O     O_3   0.880387 0.380455 0.374854 -0.573086
O178  O     O_2   0.410633 0.813903 0.565630 -0.213433
O179  O     O_2   0.490095 0.809782 0.622826 -0.184020
O180  O     O_3   0.373317 0.889602 0.625531 -0.578385
S1    S     S_3+6 0.557592 0.141891 0.598383 0.117471
S2    S     S_3+6 0.114797 0.401601 0.896759 0.104544
S3    S     S_3+6 0.604950 0.891721 0.101976 0.115416
S4    S     S_3+6 0.359198 0.941061 0.901877 0.112795
S5    S     S_3+6 0.952292 0.354110 0.098124 0.119477
S6    S     S_3+6 0.885298 0.598488 0.896818 0.104875
S7    S     S_3+6 0.396403 0.110995 0.102785 0.113247
S8    S     S_3+6 0.641176 0.060158 0.901319 0.117842
S9    S     S_3+6 0.589162 0.804110 0.543447 0.156426
S10   S     S_3+6 0.489505 0.215705 0.456522 0.153973
S11   S     S_3+6 0.785096 0.522325 0.542978 0.153930
S12   S     S_3+6 0.610929 0.897113 0.397377 0.103599
S13   S     S_3+6 0.188890 0.397889 0.456732 0.154627
S14   S     S_3+6 0.410881 0.195874 0.543545 0.156347
S15   S     S_3+6 0.510651 0.784342 0.456379 0.153893
S16   S     S_3+6 0.214950 0.478256 0.543018 0.153923
S17   S     S_3+6 0.811461 0.602984 0.456816 0.154544
S18   S     S_3+6 0.103004 0.311480 0.043105 0.155576
S19   S     S_3+6 0.978073 0.714970 0.957036 0.154806
S20   S     S_3+6 0.284799 0.009338 0.043877 0.170169
S21   S     S_3+6 0.697602 0.915209 0.956651 0.155477
S22   S     S_3+6 0.897522 0.688823 0.043237 0.156812
S23   S     S_3+6 0.098462 0.385321 0.603123 0.104479
S24   S     S_3+6 0.022166 0.285074 0.956965 0.155004
S25   S     S_3+6 0.716165 0.994867 0.043506 0.157405
S26   S     S_3+6 0.302575 0.086968 0.956506 0.159400
S27   S     S_3+6 0.854207 0.452206 0.401852 0.118685
S28   S     S_3+6 0.442493 0.858061 0.598318 0.117471
S29   S     S_3+6 0.389216 0.103054 0.397412 0.104169
S30   S     S_3+6 0.901616 0.614866 0.603265 0.104440
S31   S     S_3+6 0.145590 0.548532 0.401836 0.118675
S32   S     S_3+6 0.048224 0.645675 0.098177 0.119822
Zn1   Zn    Zn3+2 1.000000 0.586740 0.782740 1.045827
Zn2   Zn    Zn3+2 0.500000 0.913260 0.717260 1.043217
Zn3   Zn    Zn3+2 0.913260 0.500000 0.282740 1.039009
Zn4   Zn    Zn3+2 0.086740 0.500000 0.717260 1.045566
Zn5   Zn    Zn3+2 0.500000 0.913260 0.282740 1.046581
Zn6   Zn    Zn3+2 0.500000 0.086740 0.717260 1.043232
Zn7   Zn    Zn3+2 0.086740 0.500000 0.282740 1.039336
Zn8   Zn    Zn3+2 0.913260 0.500000 0.717260 1.045540
Zn9   Zn    Zn3+2 1.000000 0.413260 0.217260 1.039859
Zn10  Zn    Zn3+2 0.413260 0.000000 0.782740 1.044463
Zn11  Zn    Zn3+2 0.586740 0.000000 0.217260 1.060513
Zn12  Zn    Zn3+2 1.000000 0.413260 0.782740 1.045806
Zn13  Zn    Zn3+2 1.000000 0.586740 0.217260 1.040752
Zn14  Zn    Zn3+2 0.586740 0.000000 0.782740 1.044808
Zn15  Zn    Zn3+2 0.413260 0.000000 0.217260 1.041757
Zn16  Zn    Zn3+2 0.500000 0.086740 0.282740 1.045918

loop_
_geom_bond_atom_site_label_1
_geom_bond_atom_site_label_2
_ccdc_geom_bond_type
H51   O154  S    
C13   C200  A    
C12   O79   A    
C93   O142  S    
O62   S17   D    
O85   S25   D    
O40   S9    D    
C20   O122  A    
C164  C195  A    
C24   S21   S    
C101  C148  A    
C15   C185  S    
O95   Zn8   S    
C52   C144  A    
C63   C133  A    
O9    S31   D    
C63   C98   A    
O110  Zn5   S    
C56   C140  A    
H44   O147  S    
C42   C119  A    
O27   S5    D    
C34   H1    S    
C118  C153  A    
C32   O117  A    
C39   C74   A    
C70   O163  S    
O123  Zn1   S    
C7    C68   A    
O172  S23   D    
C50   C90   A    
O58   S15   S    
H36   O139  S    
C34   C127  A    
C107  C192  A    
O65   S18   D    
C91   C100  A    
C146  C194  A    
C37   C125  A    
C38   C123  A    
C36   C71   A    
C94   O139  S    
C30   C156  S    
O86   S25   D    
C90   C126  A    
C67   C129  A    
H58   O161  S    
O137  Zn3   S    
O83   S24   D    
O81   S22   S    
C11   O159  A    
H95   O87   S    
C116  C121  A    
C165  C183  A    
C105  C189  A    
C166  C184  A    
C65   C100  A    
O30   S6    D    
O24   Zn16  S    
O28   S5    S    
C6    C174  A    
C94   C97   A    
C77   O157  S    
H77   O34   S    
C120  C155  A    
C177  C186  A    
O174  S23   S    
C43   C78   A    
O169  S12   D    
C47   C115  A    
C17   O95   A    
O34   S7    S    
C10   O148  A    
C46   S24   S    
C45   H3    S    
O96   Zn7   S    
C178  S7    S    
C87   O145  S    
O80   S22   D    
C25   O127  A    
C128  C144  A    
H62   O167  S    
C72   C84   A    
O19   S3    D    
C36   H12   S    
C129  C143  A    
C166  S27   S    
O57   Zn13  S    
C133  C139  A    
C135  C168  A    
C92   O141  S    
C31   O109  A    
C41   H67   S    
C22   O100  A    
C112  S10   S    
C170  S30   S    
C20   O98   A    
C79   C127  A    
C26   C161  S    
C157  C195  A    
O23   S4    D    
C36   C126  A    
H68   O5    S    
H69   O8    S    
H32   O135  S    
C5    C46   A    
C139  C150  A    
C31   O120  A    
C163  C194  A    
O88   S26   D    
C62   H19   S    
H49   O152  S    
O113  Zn14  S    
C27   C162  S    
C9    C184  S    
C112  C191  A    
C123  C159  A    
O47   S11   D    
C47   H4    S    
O68   Zn12  S    
C41   C120  A    
O8    S30   S    
C169  C182  A    
H41   O144  S    
C43   C118  A    
C40   H56   S    
C60   C95   A    
C49   H6    S    
H82   O48   S    
C11   O24   A    
H27   O130  S    
C109  C110  A    
C73   C83   A    
O10   S31   D    
C41   C76   A    
H33   O136  S    
C17   O123  A    
C4    C109  A    
C121  C156  A    
C163  C181  A    
C6    C111  A    
C171  C193  A    
C69   H26   S    
H61   O164  S    
O18   S2    S    
C61   C96   A    
H66   O180  S    
O176  S27   D    
O1    Zn4   S    
C39   C122  A    
C8    O126  A    
C49   C84   A    
H84   O54   S    
C28   O112  A    
C174  C187  A    
C8    O170  A    
C26   O114  A    
O159  Zn5   S    
C5    C110  A    
C170  C183  A    
H91   O74   S    
C108  C197  A    
C80   O155  S    
O6    S30   D    
O7    S30   D    
C96   O136  S    
H53   O156  S    
O75   S21   D    
O121  Zn10  S    
C64   C99   A    
C69   C128  A    
C53   H10   S    
C29   O107  A    
H81   O44   S    
O126  Zn4   S    
C107  C108  A    
H76   O31   S    
C30   O108  A    
O87   S25   S    
O84   S24   S    
O11   S31   S    
C73   O162  S    
C56   H14   S    
O115  Zn16  S    
C131  C141  A    
C33   C160  S    
C175  C188  A    
C179  S17   S    
O41   S9    S    
C44   H2    S    
H90   O71   S    
C3    C24   A    
O55   S15   D    
C144  C147  A    
H54   O157  S    
C107  C196  A    
O112  Zn15  S    
O38   S8    S    
C105  C194  A    
C167  C189  A    
O35   Zn11  S    
C124  S11   S    
O171  S12   S    
C16   O68   A    
C2    C199  A    
C21   C148  S    
C1    S9    S    
O173  S23   D    
C37   H23   S    
C35   S22   S    
O33   S7    D    
C136  C155  A    
O70   S19   D    
C59   C138  A    
O72   S20   D    
C12   C187  S    
O71   S19   S    
C48   C113  A    
C3    C180  A    
O21   S3    S    
O109  Zn8   S    
C90   C147  A    
C111  C200  A    
C62   C97   A    
O128  Zn12  S    
C172  C185  A    
O63   S17   D    
O124  Zn9   S    
C137  C152  A    
C75   O160  S    
C176  S5    S    
C18   C153  S    
O37   S8    D    
H93   O81   S    
C8    C183  S    
C127  C162  A    
C98   O134  S    
C169  C191  A    
O108  Zn7   S    
O74   S20   S    
H59   O162  S    
C4    C172  A    
C5    C173  A    
O104  Zn14  S    
C76   C80   A    
C176  C198  A    
C136  C137  A    
C3    C114  A    
C55   H13   S    
C103  O130  S    
C175  S4    S    
C135  S13   S    
O93   Zn13  S    
O43   S10   D    
O119  Zn13  S    
O107  Zn2   S    
O129  Zn13  S    
C48   C83   A    
C29   C155  S    
C25   C151  S    
C88   O146  S    
C45   C116  A    
H42   O145  S    
C173  S2    S    
C43   H89   S    
O26   S5    D    
O52   S14   D    
C132  C156  A    
C172  S32   S    
C13   S20   S    
C163  S1    S    
C130  C142  A    
C51   C79   A    
C4    C35   A    
O90   Zn14  S    
H38   O141  S    
C42   C77   A    
C57   S25   S    
C177  C199  A    
O120  Zn12  S    
O179  S28   D    
C157  S15   S    
C68   S26   S    
O46   Zn10  S    
O25   S4    S    
C92   C99   A    
C13   C68   A    
C1    C189  A    
C2    C35   A    
C81   O152  S    
O175  S27   D    
C55   C141  A    
O36   S8    D    
C27   O105  A    
O104  Zn10  S    
C176  C185  A    
C77   C78   A    
H74   O25   S    
O93   Zn9   S    
O89   S26   D    
C7    C114  A    
C58   C93   A    
H64   O174  S    
C49   C101  A    
C42   H78   S    
C67   H25   S    
O166  S1    D    
O170  Zn8   S    
C52   C87   A    
O1    Zn1   S    
C9    O137  A    
C33   O118  A    
C29   O113  A    
O49   S13   D    
C27   O116  A    
O39   S9    D    
C124  C179  A    
C55   C91   A    
C180  C188  A    
C50   C85   A    
H73   O21   S    
H39   O142  S    
C64   C132  A    
O118  Zn10  S    
O32   S7    D    
C48   H5    S    
O105  Zn4   S    
C59   C94   A    
O22   S4    D    
C126  C161  A    
O44   S10   S    
C34   C70   A    
C164  S12   S    
C32   C159  S    
C58   H15   S    
C22   C149  S    
C142  C149  A    
O103  Zn3   S    
C6    C57   A    
C109  C198  A    
C11   C182  S    
C74   C82   A    
C51   C86   A    
O69   S19   D    
H35   O138  S    
O67   S18   S    
C23   O101  A    
C125  C160  A    
C67   C103  A    
H55   O158  S    
C171  C184  A    
C44   C80   A    
C61   H18   S    
C117  C120  A    
C59   H16   S    
O54   S14   S    
H60   O163  S    
O104  Zn2   S    
O50   S13   D    
C72   O161  S    
H28   O131  S    
O102  Zn5   S    
H71   O15   S    
C63   H20   S    
O1    Zn8   S    
C146  S14   S    
O2    Zn7   S    
C100  O132  S    
C14   C188  S    
C25   O102  A    
C113  C123  A    
C16   O94   A    
C99   O135  S    
H75   O28   S    
H72   O18   S    
O106  Zn16  S    
H92   O77   S    
C140  C151  A    
O168  S12   D    
C178  C187  A    
H52   O155  S    
C54   C142  A    
H96   O91   S    
C119  C154  A    
O125  Zn14  S    
C52   H9    S    
C2    S19   S    
O60   S16   D    
C17   C152  S    
O13   Zn2   S    
C165  C196  A    
C171  S31   S    
C124  C192  A    
C190  C198  A    
C24   C57   A    
C169  S29   S    
C178  C200  A    
C177  S6    S    
C15   O92   A    
O177  S27   S    
O94   Zn1   S    
C38   H34   S    
H63   O171  S    
C18   O96   A    
C106  C195  A    
C165  S23   S    
O53   S14   D    
C132  C140  A    
C105  C106  A    
O51   S13   S    
C40   C75   A    
C168  S16   S    
H87   O64   S    
O99   Zn4   S    
C166  C197  A    
O114  Zn9   S    
C91   O144  S    
O59   S16   D    
C134  C154  A    
C15   O57   A    
O115  Zn5   S    
C128  C161  A    
O56   S15   D    
C112  C146  A    
C111  C114  A    
C45   C81   A    
H46   O149  S    
C31   C158  S    
C164  C182  A    
C87   C104  A    
O4    S29   D    
H29   O132  S    
C33   O111  A    
C37   C72   A    
O148  Zn6   S    
C10   C181  S    
O14   S32   D    
O15   S32   S    
C130  C159  A    
O115  Zn15  S    
C61   C136  A    
O92   Zn9   S    
C58   C139  A    
C89   C102  A    
C66   C102  A    
C95   C96   A    
O45   S11   D    
C19   O97   A    
O29   S6    D    
O93   Zn3   S    
C79   C145  A    
C40   C121  A    
C19   C145  S    
H85   O58   S    
C104  O131  S    
O122  Zn11  S    
H40   O143  S    
H48   O151  S    
C21   O99   A    
C26   O103  A    
C170  C192  A    
C115  C150  A    
C14   O90   A    
C47   C82   A    
O165  S1    D    
H43   O146  S    
C118  C119  A    
C141  C148  A    
O5    S29   S    
C39   H45   S    
O73   S20   D    
C174  S3    S    
C86   O149  S    
H88   O67   S    
C7    C175  A    
C22   O129  A    
C129  C162  A    
O101  Zn6   S    
H83   O51   S    
C117  C152  A    
O104  Zn6   S    
C28   O106  A    
O97   Zn2   S    
C60   C137  A    
O115  Zn11  S    
C50   H7    S    
O42   S10   D    
O79   Zn15  S    
C115  C122  A    
C71   C85   A    
C28   C154  S    
C97   O138  S    
C131  C160  A    
C106  C191  A    
C46   C190  A    
C65   C131  A    
O127  Zn15  S    
O17   S2    D    
H31   O134  S    
C122  C158  A    
O64   S17   S    
C173  C186  A    
H50   O153  S    
C65   H22   S    
C113  C149  A    
C95   O140  S    
C32   O110  A    
C54   C89   A    
C66   H24   S    
C12   O35   A    
C51   H8    S    
C75   C81   A    
O82   S24   D    
C179  C197  A    
C53   C143  A    
O178  S28   D    
C85   O147  S    
H80   O41   S    
O91   S26   S    
C135  C193  A    
O3    S29   D    
C83   O150  S    
C101  C125  A    
H70   O11   S    
C190  S18   S    
O93   Zn7   S    
O61   S16   S    
C19   O121  A    
C9    O2    A    
C20   C147  S    
O100  Zn3   S    
H94   O84   S    
C102  O133  S    
O12   S32   D    
H37   O140  S    
C21   O128  A    
C89   O143  S    
C54   H11   S    
O117  Zn11  S    
O167  S1    S    
C168  C196  A    
O31   S6    S    
C167  S28   S    
C70   C86   A    
O20   S3    D    
C88   C103  A    
O116  Zn1   S    
C138  C153  A    
C84   O151  S    
C78   O154  S    
C69   C104  A    
H65   O177  S    
C143  C145  A    
C10   O13   A    
O76   S21   D    
C82   O153  S    
C76   O156  S    
C110  C199  A    
C23   O125  A    
C18   O124  A    
C30   O119  A    
C23   C150  S    
O1    Zn12  S    
C74   O158  S    
C134  C138  A    
H47   O150  S    
C62   C134  A    
C1    C157  A    
C16   C186  S    
C60   H17   S    
H30   O133  S    
O16   S2    D    
C167  C181  A    
O98   Zn16  S    
C44   C117  A    
H86   O61   S    
C64   H21   S    
C53   C88   A    
C116  C151  A    
H79   O38   S    
O180  S28   S    
C71   O164  S    
C133  C158  A    
H57   O160  S    
C56   C92   A    
O48   S11   S    
C14   O46   A    
O66   S18   D    
C108  C193  A    
C93   C98   A    
C180  S8    S    
O78   S22   D    
O111  Zn6   S    
O77   S21   S    
C66   C130  A    
C38   C73   A    
