data_mof_unit_49623.cif
_audit_creation_date              2013-03-05T16:35:51-0500
_audit_creation_method            fapswitch 2.2
_symmetry_space_group_name_H-M    P1
_symmetry_Int_Tables_number       1
_space_group_crystal_system       triclinic
_cell_length_a                    23.553517
_cell_length_b                    9.106198
_cell_length_c                    7.785041
_cell_angle_alpha                 89.928995
_cell_angle_beta                  90.000482
_cell_angle_gamma                 89.994944
_cell_volume                      1669.75757751

loop_
_atom_site_label
_atom_site_type_symbol
_atom_site_description
_atom_site_fract_x
_atom_site_fract_y
_atom_site_fract_z
_atom_type_partial_charge
O1    O     O_R   0.500000 0.288390 0.642760 -0.574320
O2    O     O_R   0.500000 0.711610 0.357240 -0.574330
O3    O     O_R   0.500000 0.711610 0.642760 -0.574386
O4    O     O_R   0.500000 0.288390 0.357240 -0.574362
H1    H     H_    0.948254 0.130077 0.524293 0.184812
H2    H     H_    0.051602 0.871154 0.485783 0.184723
H3    H     H_    0.948321 0.871027 0.475977 0.184769
H4    H     H_    0.051531 0.129769 0.514377 0.184665
C1    C     C_R   0.500000 0.219998 0.500065 0.850613
C2    C     C_R   0.500000 0.780002 0.499935 0.850557
O5    O     O_R   0.417880 0.500000 0.642820 -0.581497
O6    O     O_R   0.582120 0.500000 0.357180 -0.581296
O7    O     O_R   0.582120 0.500000 0.642820 -0.581347
O8    O     O_R   0.417880 0.500000 0.357180 -0.581498
C3    C     C_R   0.208843 0.500306 0.500031 0.170502
C4    C     C_R   0.791064 0.500642 0.500081 0.172512
C5    C     C_R   0.390679 0.500015 0.499999 0.813604
C6    C     C_R   0.609316 0.500018 0.500003 0.813264
Cu1   Cu    Cu3+1 0.500000 0.500000 0.669080 1.028868
Cu2   Cu    Cu3+1 0.500000 0.500000 0.330920 1.028891
C7    C     C_R   0.298384 0.544936 0.353587 -0.155451
C8    C     C_R   0.701640 0.454311 0.354197 -0.154476
C9    C     C_R   0.298372 0.455352 0.646429 -0.155438
C10   C     C_R   0.701574 0.546200 0.645908 -0.154769
H5    H     H_    0.321621 0.579557 0.240419 0.198166
H6    H     H_    0.678441 0.418592 0.241527 0.197971
H7    H     H_    0.321599 0.420657 0.759590 0.198157
H8    H     H_    0.678316 0.581750 0.758539 0.198141
C11   C     C_R   0.328242 0.500089 0.500000 -0.126045
C12   C     C_R   0.671745 0.500162 0.500032 -0.125901
C13   C     C_R   0.880560 0.631387 0.486778 0.513440
C14   C     C_R   0.119214 0.369173 0.497591 0.513134
C15   C     C_R   0.880541 0.369827 0.513543 0.513896
C16   C     C_R   0.119242 0.631627 0.502498 0.513118
N1    N     N_R   0.852130 0.500629 0.500170 -0.496069
N2    N     N_R   0.147713 0.500373 0.500034 -0.494567
C17   C     C_R   0.940058 0.366883 0.510122 -0.012318
C18   C     C_R   0.059731 0.634325 0.497493 -0.011992
C19   C     C_R   0.940080 0.634237 0.490159 -0.012221
C20   C     C_R   0.059704 0.366584 0.502658 -0.011989
C21   C     C_R   0.969938 0.500535 0.500127 -0.020894
C22   C     C_R   0.029844 0.500482 0.500093 -0.020227
C23   C     C_R   0.970279 0.234071 0.516287 -0.157120
C24   C     C_R   0.029532 0.767094 0.489590 -0.157294
C25   C     C_R   0.970327 0.766996 0.483963 -0.157202
C26   C     C_R   0.029482 0.233868 0.510595 -0.157308
C27   C     C_1   0.500000 0.065345 0.500089 -0.150789
C28   C     C_1   0.500000 0.934655 0.499911 -0.150786
C29   C     C_R   0.238895 0.546225 0.351949 0.047758
C30   C     C_R   0.761129 0.453243 0.352707 0.047070
C31   C     C_R   0.238883 0.454281 0.648096 0.047757
C32   C     C_R   0.761064 0.547740 0.647473 0.047275
N3    N     N_1   0.500000 0.500000 0.076820 -0.040801
N4    N     N_1   0.500000 0.500000 0.923180 -0.040805
O9    O     O_2   0.851230 0.758007 0.471094 -0.496385
O10   O     O_2   0.148462 0.241852 0.491214 -0.496970
O11   O     O_2   0.851194 0.243248 0.529244 -0.496119
O12   O     O_2   0.148517 0.758892 0.508841 -0.496961
C33   C     C_2   0.208455 0.594584 0.194770 0.491359
H9    H     H_    0.163266 0.575270 0.180651 0.058190
O13   O     O_2   0.233523 0.657545 0.078759 -0.531540
C34   C     C_2   0.791774 0.403342 0.196690 0.487735
H10   H     H_    0.837118 0.421267 0.183671 0.059127
O14   O     O_2   0.766732 0.340483 0.080570 -0.528416
C35   C     C_2   0.208429 0.406035 0.805290 0.491456
H11   H     H_    0.163256 0.425571 0.819458 0.058140
O15   O     O_2   0.233467 0.342921 0.921253 -0.531473
C36   C     C_2   0.791625 0.597684 0.803641 0.485731
H12   H     H_    0.837080 0.581702 0.815894 0.059917
O16   O     O_2   0.766369 0.658225 0.920898 -0.529954

loop_
_geom_bond_atom_site_label_1
_geom_bond_atom_site_label_2
_geom_bond_distance
_ccdc_geom_bond_type
C10   C32   1.401311 A    
C15   O11   1.349497 S    
C14   N2    1.370595 A    
C18   C24   1.403955 A    
C34   H10   1.085149 S    
C6    C12   1.470423 S    
C4    C30   1.414575 A    
C3    C31   1.415528 A    
C5    C11   1.470628 S    
C21   C22   1.411021 A    
C9    C31   1.401282 A    
C27   C28   1.190085 T    
C29   C33   1.484538 S    
C19   C25   1.404070 A    
C8    C30   1.401268 A    
O6    Cu2   1.944987 S    
C20   C22   1.407663 A    
H1    C23   1.081544 S    
C36   H12   1.084640 S    
C33   H9    1.084419 S    
C19   C21   1.408031 A    
O3    C2    1.273763 A    
H2    C24   1.081223 S    
N3    N4    1.196094 T    
H3    C25   1.081540 S    
O3    Cu1   1.937574 S    
O8    C5    1.283235 A    
O5    Cu1   1.944989 S    
C8    H6    1.083728 S    
C7    H5    1.083740 S    
O7    C6    1.283167 A    
C17   C21   1.408012 A    
C9    C11   1.399757 A    
Cu1   N4    1.978178 S    
C7    C29   1.401288 A    
C15   N1    1.370011 A    
C13   C19   1.402395 A    
C1    C27   1.408300 S    
C16   N2    1.370603 A    
C9    H7    1.083740 S    
C3    C29   1.415526 A    
C4    N1    1.438307 S    
C2    C28   1.408300 S    
C30   C34   1.484606 S    
C23   C26   1.395135 A    
H4    C26   1.081220 S    
C17   C23   1.404060 A    
O1    Cu1   1.938079 S    
C10   C12   1.400109 A    
C33   O13   1.221397 D    
C20   C26   1.403941 A    
O2    Cu2   1.938079 S    
O4    Cu2   1.937574 S    
C18   C22   1.407656 A    
C4    C32   1.414594 A    
C3    N2    1.439834 S    
C14   C20   1.402418 A    
O1    C1    1.274228 A    
C24   C25   1.395169 A    
O8    Cu2   1.944993 S    
C36   O16   1.221596 D    
C35   H11   1.084403 S    
C31   C35   1.484531 S    
O6    C6    1.283201 A    
C16   O12   1.349536 S    
C13   N1    1.370004 A    
O7    Cu1   1.944990 S    
O5    C5    1.283231 A    
C34   O14   1.222328 D    
C8    C12   1.400080 A    
C13   O9    1.349484 S    
O4    C1    1.273763 A    
C16   C18   1.402447 A    
C7    C11   1.399767 A    
C14   O10   1.349541 S    
O2    C2    1.274229 A    
C15   C17   1.402340 A    
Cu1   Cu2   2.632590 S    
C10   H8    1.083706 S    
Cu2   N3    1.978178 S    
C35   O15   1.221376 D    
C32   C36   1.484756 S    
