data_mof_unit_41351.cif
_audit_creation_date              2012-12-10T17:31:03-0500
_audit_creation_method            fapswitch 2.2
_symmetry_space_group_name_H-M    P1
_symmetry_Int_Tables_number       1
_space_group_crystal_system       triclinic
_cell_length_a                    12.023449
_cell_length_b                    12.745289
_cell_length_c                    15.538691
_cell_angle_alpha                 86.642425
_cell_angle_beta                  115.330996
_cell_angle_gamma                 94.682948
_cell_volume                      2144.31390634

loop_
_atom_site_label
_atom_site_type_symbol
_atom_type_description
_atom_site_fract_x
_atom_site_fract_y
_atom_site_fract_z
_atom_type_partial_charge
C1    C     C_R   0.475665 0.299326 0.498369 0.947419
C2    C     C_R   0.514819 0.960356 0.382944 0.408854
C3    C     C_R   0.407551 0.136044 0.555949 0.295350
C4    C     C_R   0.548937 0.857065 0.412859 0.261836
C5    C     C_R   0.484797 0.131278 0.433390 0.424123
C6    C     C_R   0.496749 0.870045 0.547661 0.405290
C7    C     C_R   0.484429 0.021441 0.442593 -0.163244
C8    C     C_R   0.459244 0.971416 0.517368 -0.216805
C9    C     C_R   0.028394 0.627446 0.446267 0.493817
C10   C     C_R   0.973710 0.374053 0.556967 0.452599
C11   C     C_R   0.143108 0.610413 0.445917 -0.078641
C12   C     C_R   0.523578 0.700511 0.500708 0.961174
C13   C     C_R   0.857153 0.389786 0.554536 -0.066878
C14   C     C_R   0.146758 0.441780 0.518986 0.085632
C15   C     C_R   0.855089 0.559558 0.483862 0.137991
C16   C     C_R   0.575837 0.495377 0.679737 0.895605
C17   C     C_R   0.424114 0.506059 0.320067 0.911394
C18   C     C_R   0.030906 0.453663 0.520013 -0.019564
C19   C     C_R   0.971513 0.548042 0.483655 -0.021518
C20   C     C_R   0.620838 0.484685 0.782261 -0.098042
C21   C     C_R   0.379738 0.525031 0.217920 -0.099016
C22   C     C_R   0.742429 0.395610 0.931513 0.491079
C23   C     C_R   0.645904 0.490343 0.111060 0.340039
C24   C     C_R   0.255049 0.621604 0.073449 0.555601
C25   C     C_R   0.712201 0.416024 0.834616 -0.268141
C26   C     C_R   0.283102 0.590158 0.168338 -0.300209
C27   C     C_R   0.557266 0.531079 0.824800 -0.114631
C28   C     C_R   0.448363 0.491303 0.173762 -0.090702
C29   C     C_R   0.570673 0.498939 0.915530 0.029947
C30   C     C_R   0.435922 0.534476 0.085961 -0.024532
C31   C     C_R   0.675845 0.442997 0.973936 -0.090701
C32   C     C_R   0.330751 0.591261 0.030747 -0.006710
C33   C     C_R   0.485784 0.525692 0.950892 -0.103567
C34   C     C_R   0.364826 0.559769 0.891614 0.276130
C35   C     C_R   0.523110 0.517094 0.050497 -0.178034
C36   C     C_R   0.715368 0.442539 0.073275 0.406278
C37   C     C_R   0.300275 0.609882 0.933480 0.401911
C38   C     C_R   0.534771 0.812682 0.492246 -0.287375
C39   C     C_R   0.453980 0.187005 0.494692 -0.291317
C40   C     C_R   0.401754 0.026015 0.562420 0.339832
H1    H     H_    0.812239 0.328766 0.582004 0.145376
H2    H     H_    0.205797 0.692532 0.820112 0.398047
H3    H     H_    0.020366 0.765052 0.383543 0.338550
H4    H     H_    0.979564 0.235078 0.616966 0.351947
H5    H     H_    0.867428 0.300516 0.942796 0.347126
H6    H     H_    0.113761 0.695225 0.063421 0.336539
H7    H     H_    0.654696 0.692422 0.204090 0.375906
H8    H     H_    0.302614 0.597786 0.658659 0.385132
H9    H     H_    0.555475 0.769961 0.656289 0.315311
H10   H     H_    0.487926 0.249368 0.349122 0.333126
H11   H     H_    0.634338 0.841438 0.333665 0.390923
H12   H     H_    0.187266 0.670833 0.417275 0.139879
H13   H     H_    0.383725 0.155698 0.670212 0.390333
H14   H     H_    0.215213 0.855418 0.494293 0.327619
H15   H     H_    0.362748 0.109580 0.158601 0.394773
H16   H     H_    0.515660 0.434007 0.210571 0.202097
H17   H     H_    0.493640 0.589812 0.784973 0.178482
H18   H     H_    0.230785 0.617586 0.203717 0.166477
H19   H     H_    0.757993 0.377033 0.799764 0.160670
H20   H     H_    0.806969 0.630518 0.454795 0.220061
H21   H     H_    0.195246 0.371096 0.548538 0.235260
H22   H     H_    0.890413 0.438921 0.114407 0.367017
N1    N     N_R   0.799120 0.480200 0.517090 -0.136985
N2    N     N_R   0.200880 0.519800 0.482910 -0.158017
O1    O     O_R   0.580150 0.341050 0.504560 -0.626524
O2    O     O_3   0.197966 0.664975 0.878305 -0.626196
O3    O     O_3   0.970827 0.719981 0.410148 -0.707359
O4    O     O_3   0.031916 0.282034 0.594224 -0.689637
O5    O     O_3   0.830781 0.325708 0.983541 -0.715254
O6    O     O_3   0.156142 0.682360 0.022882 -0.658811
O7    O     O_2   0.744984 0.449072 0.298543 -0.263680
O8    O     O_2   0.854362 0.582821 0.239742 -0.290622
O9    O     O_3   0.657808 0.635032 0.250740 -0.506583
O10   O     O_2   0.326555 0.422700 0.751095 -0.277738
O11   O     O_2   0.146879 0.477623 0.766076 -0.246035
O12   O     O_R   0.419850 0.658950 0.495440 -0.627879
O13   O     O_3   0.256456 0.614549 0.694980 -0.546795
O14   O     O_3   0.502322 0.830429 0.634305 -0.655162
O15   O     O_3   0.530752 0.183440 0.373785 -0.653645
O16   O     O_3   0.589037 0.795132 0.363001 -0.681500
O17   O     O_3   0.374566 0.196354 0.611553 -0.690338
O18   O     O_2   0.380298 0.943990 0.718249 -0.196825
O19   O     O_2   0.198529 0.022759 0.595866 -0.230403
O20   O     O_3   0.251727 0.840704 0.563871 -0.463034
O21   O     O_2   0.595190 0.056426 0.259683 -0.223365
O22   O     O_2   0.444320 0.906564 0.199946 -0.264059
O23   O     O_R   0.388090 0.353760 0.493600 -0.564375
O24   O     O_3   0.365150 0.081505 0.220138 -0.517772
O25   O     O_R   0.611910 0.646240 0.506400 -0.577974
O26   O     O_R   0.650890 0.490020 0.640860 -0.622280
O27   O     O_R   0.349110 0.509980 0.359140 -0.625690
O28   O     O_R   0.458830 0.502730 0.629890 -0.598462
O29   O     O_R   0.541170 0.497270 0.370110 -0.549968
O30   O     O_3   0.827981 0.406949 0.135573 -0.624078
S1    S     S_3+6 0.728973 0.539052 0.228179 0.042909
S2    S     S_3+6 0.272937 0.513948 0.773959 0.023439
S3    S     S_3+6 0.306231 0.959043 0.612765 0.120611
S4    S     S_3+6 0.481832 0.000540 0.262735 0.087653
Zn1   Zn    Zn3+2 0.628240 0.491510 0.507320 1.032991
Zn2   Zn    Zn3+2 0.371760 0.508490 0.492680 1.006524

loop_
_geom_bond_atom_site_label_1
_geom_bond_atom_site_label_2
_ccdc_geom_bond_type
C1    O23   A    
C21   C26   A    
C16   O26   A    
C27   C29   A    
C34   C37   A    
C15   H20   S    
C14   C18   A    
C2    C7    A    
C17   O27   A    
H10   O15   S    
C13   H1    S    
C28   H16   S    
C24   O6    S    
C7    C8    A    
C15   C19   A    
C30   C35   A    
O25   Zn1   S    
O20   S3    S    
C34   S2    S    
C4    O16   S    
C6    O14   S    
O7    S1    D    
C20   C25   A    
C29   C33   A    
H9    O14   S    
H13   O17   S    
C18   C19   A    
H15   O24   S    
H11   O16   S    
N1    Zn1   S    
C11   H12   S    
O8    S1    D    
C9    C19   A    
C22   C25   A    
C3    O17   S    
C1    O1    A    
C6    C38   A    
O21   S4    D    
O27   Zn2   S    
C5    O15   S    
O29   Zn1   S    
C22   O5    S    
C3    C39   A    
H14   O20   S    
O11   S2    D    
C22   C31   A    
H5    O5    S    
O10   S2    D    
C12   O25   A    
H7    O9    S    
C11   N2    A    
C27   H17   S    
C40   S3    S    
C5    C7    A    
C6    C8    A    
C14   H21   S    
C17   C21   S    
H8    O13   S    
C2    C4    A    
C24   C32   A    
C26   H18   S    
C13   N1    A    
C16   C20   S    
C14   N2    A    
C37   O2    S    
C33   C34   A    
C32   C37   A    
C9    C11   A    
O1    Zn1   S    
C21   C28   A    
C4    C38   A    
C3    C40   A    
C16   O28   A    
C23   C35   A    
H22   O30   S    
C12   O12   A    
O18   S3    D    
H4    O4    S    
C17   O29   A    
O9    S1    S    
O26   Zn1   S    
O28   Zn2   S    
O23   Zn2   S    
C24   C26   A    
C10   C13   A    
C20   C27   A    
C10   O4    S    
O12   Zn2   S    
C8    C40   A    
O13   S2    S    
C5    C39   A    
C29   C31   A    
C30   C32   A    
C10   C18   A    
C28   C30   A    
C33   C35   A    
C23   S1    S    
C12   C38   S    
O22   S4    D    
H6    O6    S    
C1    C39   S    
C36   O30   S    
N2    Zn2   S    
C2    S4    S    
H3    O3    S    
C23   C36   A    
O19   S3    D    
H2    O2    S    
C15   N1    A    
C31   C36   A    
C25   H19   S    
C9    O3    S    
O24   S4    S    
