data_mof_unit_49325.cif
_audit_creation_date              2012-12-10T17:47:04-0500
_audit_creation_method            fapswitch 2.2
_symmetry_space_group_name_H-M    P1
_symmetry_Int_Tables_number       1
_space_group_crystal_system       triclinic
_cell_length_a                    9.988384
_cell_length_b                    10.666718
_cell_length_c                    13.590187
_cell_angle_alpha                 91.386896
_cell_angle_beta                  82.817359
_cell_angle_gamma                 91.501994
_cell_volume                      1435.76721436

loop_
_atom_site_label
_atom_site_type_symbol
_atom_type_description
_atom_site_fract_x
_atom_site_fract_y
_atom_site_fract_z
_atom_type_partial_charge
C1    C     C_R   0.501043 0.739144 0.498838 0.894878
C2    C     C_R   0.488968 0.937499 0.587614 0.107589
C3    C     C_R   0.490174 0.067300 0.588019 0.119030
C4    C     C_R   0.475594 0.501083 0.685495 0.918827
C5    C     C_R   0.495874 0.128311 0.497499 -0.161725
C6    C     C_R   0.846082 0.652862 0.639139 -0.034577
C7    C     C_R   0.892839 0.672382 0.731471 0.094274
C8    C     C_R   0.031815 0.667253 0.735830 0.136749
C9    C     C_R   0.115940 0.629621 0.651162 -0.225197
C10   C     C_R   0.061879 0.567023 0.572352 0.097731
C11   C     C_R   0.918933 0.571032 0.570243 0.070337
C12   C     C_1   0.456898 0.501119 0.789594 -0.087987
C13   C     C_R   0.937434 0.431169 0.433234 -0.114932
C14   C     C_R   0.080124 0.431370 0.432741 0.024786
C15   C     C_R   0.498615 0.260898 0.499776 0.904517
C16   C     C_R   0.524485 0.499034 0.314497 0.850370
C17   C     C_1   0.543473 0.495279 0.210408 -0.135710
C18   C     C_2   0.558411 0.488445 0.018215 -0.095726
C19   C     C_2   0.442281 0.498323 0.981544 -0.093881
C20   C     C_1   0.445333 0.500114 0.877581 0.095750
C21   C     C_1   0.555531 0.491689 0.122343 0.073383
C22   C     C_1   0.811613 0.769976 0.599514 0.283306
C23   C     C_R   0.498162 0.864656 0.314839 -0.229939
C24   C     C_1   0.157847 0.352632 0.360953 0.253762
C25   C     C_R   0.491378 0.926916 0.226444 0.194706
C26   C     C_R   0.492004 0.058134 0.226552 0.198168
C27   C     C_R   0.497016 0.125479 0.315421 -0.228707
C28   C     C_R   0.498171 0.063089 0.405975 0.029351
C29   C     C_R   0.500428 0.932048 0.405539 0.038839
C30   C     C_R   0.500992 0.871812 0.496621 -0.152150
H1    H     H_    0.346713 0.507493 0.028860 0.179053
H2    H     H_    0.220989 0.649969 0.649683 0.232219
H3    H     H_    0.654079 0.479734 0.970988 0.180694
H4    H     H_    0.498207 0.763352 0.312061 0.148907
H5    H     H_    0.497118 0.226697 0.313039 0.149676
H6    H     H_    0.890747 0.374606 0.379065 0.151672
I1    I     I_    0.761216 0.746268 0.852503 -0.211641
I2    I     I_    0.120883 0.721804 0.864577 -0.216901
I3    I     I_    0.461810 0.839578 0.724175 -0.235263
I4    I     I_    0.474728 0.818031 0.096136 -0.232354
I5    I     I_    0.481900 0.159435 0.095571 -0.248395
I6    I     I_    0.483224 0.171726 0.725185 -0.220260
N1    N     N_R   0.857120 0.501200 0.500900 -0.108005
N2    N     N_R   0.142720 0.501280 0.500940 -0.120930
N3    N     N_1   0.789015 0.866036 0.568181 -0.170958
N4    N     N_1   0.219360 0.288781 0.302883 -0.179902
O1    O     O_R   0.385310 0.683220 0.500000 -0.624636
O2    O     O_R   0.614640 0.683250 0.500010 -0.611465
O3    O     O_R   0.368830 0.499960 0.640340 -0.625737
O4    O     O_R   0.598160 0.499980 0.640350 -0.594862
O5    O     O_R   0.385360 0.316750 0.499990 -0.604120
O6    O     O_R   0.614690 0.316780 0.500000 -0.601171
O7    O     O_R   0.401840 0.500020 0.359650 -0.608457
O8    O     O_R   0.631170 0.500040 0.359660 -0.610736
Zn1   Zn    Zn3+2 0.346870 0.499980 0.499990 0.973802
Zn2   Zn    Zn3+2 0.653130 0.500020 0.500010 0.983947

loop_
_geom_bond_atom_site_label_1
_geom_bond_atom_site_label_2
_ccdc_geom_bond_type
C17   C21   T    
C3    I6    S    
C11   N1    A    
C29   C30   A    
C15   O5    A    
C4    C12   S    
C18   C21   S    
C9    C10   A    
C1    O1    A    
C19   C20   S    
C6    C11   A    
C4    O3    A    
C2    C30   A    
C23   H4    S    
C24   N4    T    
C12   C20   T    
O7    Zn1   S    
C2    C3    A    
C7    I1    S    
C19   H1    S    
C7    C8    A    
C1    O2    A    
O3    Zn1   S    
C13   C14   A    
N2    Zn1   S    
C26   C27   A    
C6    C7    A    
C8    I2    S    
C23   C29   A    
O1    Zn1   S    
C28   C29   A    
O5    Zn1   S    
O8    Zn2   S    
C23   C25   A    
C25   I4    S    
C18   H3    S    
C16   O8    A    
C5    C15   S    
C16   C17   S    
C10   C11   A    
C10   N2    A    
C5    C28   A    
N1    Zn2   S    
C13   N1    A    
C22   N3    T    
C13   H6    S    
C14   N2    A    
C18   C19   D    
C14   C24   S    
C27   C28   A    
O2    Zn2   S    
C16   O7    A    
C1    C30   S    
C9    H2    S    
C27   H5    S    
C25   C26   A    
C15   O6    A    
C2    I3    S    
O4    Zn2   S    
O6    Zn2   S    
C26   I5    S    
C4    O4    A    
C8    C9    A    
C3    C5    A    
C6    C22   S    
