data_mof_unit_17383.cif
_audit_creation_date              2012-12-11T16:37:26-0500
_audit_creation_method            fapswitch 2.2
_symmetry_space_group_name_H-M    P1
_symmetry_Int_Tables_number       1
_space_group_crystal_system       triclinic
_cell_length_a                    19.510394
_cell_length_b                    6.941019
_cell_length_c                    17.70537
_cell_angle_alpha                 90.011809
_cell_angle_beta                  109.027276
_cell_angle_gamma                 90.025034
_cell_volume                      2266.69470471

loop_
_atom_site_label
_atom_site_type_symbol
_atom_type_description
_atom_site_fract_x
_atom_site_fract_y
_atom_site_fract_z
_atom_type_partial_charge
O1    O     O_R   0.561710 0.369960 0.440200 -0.539372
O2    O     O_R   0.061710 0.630040 0.940200 -0.538868
O3    O     O_R   0.412630 0.033330 0.406330 -0.541181
O4    O     O_R   0.912630 0.966670 0.906330 -0.541573
O5    O     O_R   0.438290 0.869790 0.559800 -0.539918
O6    O     O_R   0.938290 0.130210 0.059800 -0.540225
C1    C     C_R   0.385008 0.203099 0.382955 0.696863
C2    C     C_R   0.884584 0.796863 0.883585 0.697648
O7    O     O_R   0.559570 0.039810 0.430640 -0.543448
O8    O     O_R   0.059570 0.960190 0.930640 -0.542583
O9    O     O_R   0.586280 0.876320 0.584290 -0.538352
O10   O     O_R   0.086280 0.123680 0.084290 -0.538110
C3    C     C_R   0.581098 0.209015 0.415622 0.685559
C4    C     C_R   0.081130 0.791015 0.915663 0.690130
O11   O     O_R   0.413720 0.363440 0.415710 -0.538072
O12   O     O_R   0.913720 0.636560 0.915710 -0.537782
O13   O     O_3   0.508590 0.205630 0.550380 -0.367665
O14   O     O_3   0.008590 0.794370 0.050380 -0.369722
V1    V     V_3+5 0.498410 0.928130 0.490650 1.390962
V2    V     V_3+5 0.998410 0.071870 0.990650 1.391412
O15   O     O_R   0.587370 0.546990 0.593670 -0.539344
O16   O     O_R   0.087370 0.453010 0.093670 -0.539374
C5    C     C_R   0.615592 0.716819 0.616435 0.697669
C6    C     C_R   0.114928 0.283189 0.117318 0.697493
O17   O     O_R   0.440430 0.540520 0.569360 -0.542028
O18   O     O_R   0.940430 0.459480 0.069360 -0.542394
C7    C     C_R   0.419037 0.709278 0.584591 0.687656
C8    C     C_R   0.918984 0.290708 0.084526 0.686378
V3    V     V_3+5 0.501590 0.428960 0.509350 1.396461
V4    V     V_3+5 0.001590 0.571040 0.009350 1.395923
O19   O     O_3   0.491410 0.701330 0.449620 -0.369538
O20   O     O_3   0.991410 0.298670 0.949620 -0.369680
C9    C     C_R   0.314064 0.906536 0.714885 -0.144751
C10   C     C_R   0.814043 0.093668 0.214899 -0.144844
H1    H     H_    0.309544 0.042994 0.742455 0.101520
H2    H     H_    0.809667 0.957414 0.242683 0.101149
C11   C     C_R   0.360464 0.895166 0.669114 -0.162304
C12   C     C_R   0.860492 0.105014 0.169183 -0.162773
H3    H     H_    0.389255 0.023678 0.661969 0.123629
H4    H     H_    0.889464 0.976681 0.162289 0.122650
C13   C     C_R   0.370320 0.720093 0.633969 -0.053719
C14   C     C_R   0.870184 0.279876 0.133798 -0.053369
C15   C     C_R   0.332266 0.556775 0.645496 -0.163885
C16   C     C_R   0.831884 0.442971 0.144973 -0.164046
H5    H     H_    0.338020 0.420014 0.618714 0.118229
H6    H     H_    0.837492 0.579533 0.117965 0.118464
C17   C     C_R   0.284976 0.568731 0.690277 -0.141557
C18   C     C_R   0.784544 0.431023 0.189696 -0.141366
H7    H     H_    0.255215 0.440800 0.695724 0.098639
H8    H     H_    0.754607 0.558761 0.194889 0.099032
C19   C     C_R   0.275209 0.743776 0.725913 0.090498
C20   C     C_R   0.774971 0.256223 0.225617 0.090504
C21   C     C_R   0.215001 0.597439 0.819083 -0.145344
C22   C     C_R   0.714562 0.402977 0.318511 -0.145640
H9    H     H_    0.244313 0.464420 0.820538 0.102976
H10   H     H_    0.743681 0.536286 0.319703 0.102394
C23   C     C_R   0.167985 0.608599 0.864097 -0.160656
C24   C     C_R   0.667601 0.391818 0.363592 -0.161543
H11   H     H_    0.162011 0.483206 0.897822 0.121544
H12   H     H_    0.661466 0.517500 0.397087 0.120674
C25   C     C_R   0.130287 0.779837 0.866759 -0.054269
C26   C     C_R   0.630171 0.220235 0.366617 -0.053827
C27   C     C_R   0.140554 0.939440 0.822744 -0.165398
C28   C     C_R   0.640617 0.060317 0.322854 -0.165463
H13   H     H_    0.112155 0.073323 0.823045 0.122222
H14   H     H_    0.612417 0.926162 0.323420 0.122693
C29   C     C_R   0.186838 0.927494 0.776741 -0.142329
C30   C     C_R   0.686843 0.072248 0.276784 -0.142292
H15   H     H_    0.191754 0.052198 0.742190 0.100409
H16   H     H_    0.691911 0.947251 0.242450 0.100710
C31   C     C_R   0.225058 0.756408 0.774375 0.090030
C32   C     C_R   0.724825 0.243652 0.274090 0.090118
C33   C     C_R   0.768135 0.623586 0.811489 0.105751
C34   C     C_R   0.304628 0.378163 0.261603 0.107057
C35   C     C_R   0.814251 0.782731 0.817859 -0.112261
C36   C     C_R   0.318232 0.217152 0.312393 -0.111454
C37   C     C_R   0.790565 0.927835 0.759783 -0.182838
C38   C     C_R   0.265219 0.071493 0.294285 -0.181976
H17   H     H_    0.823949 0.053304 0.761976 0.133688
H18   H     H_    0.272848 0.945421 0.331865 0.131826
C39   C     C_R   0.725997 0.905520 0.694800 -0.172578
C40   C     C_R   0.199224 0.094287 0.231220 -0.174720
H19   H     H_    0.711279 0.016715 0.649543 0.127178
H20   H     H_    0.158633 0.982280 0.221020 0.129850
C41   C     C_R   0.683224 0.736990 0.685636 -0.111251
C42   C     C_R   0.183903 0.264300 0.184782 -0.109099
C43   C     C_R   0.704304 0.601378 0.747239 0.102020
C44   C     C_R   0.239392 0.400825 0.199293 0.098580
C45   C     C_3   0.715361 0.389907 0.743088 -0.419386
C46   C     C_3   0.237353 0.611542 0.214015 -0.426117
C47   C     C_3   0.784656 0.413600 0.813516 -0.389759
C48   C     C_3   0.308698 0.587317 0.281539 -0.386073
H21   H     H_    0.725191 0.347587 0.686960 0.167264
H22   H     H_    0.242411 0.698527 0.163390 0.176692
H23   H     H_    0.673022 0.305215 0.757784 0.179398
H24   H     H_    0.191475 0.651442 0.235079 0.171368
H25   H     H_    0.782162 0.343517 0.869017 0.167458
H26   H     H_    0.304306 0.614720 0.341662 0.168517
H27   H     H_    0.834643 0.383502 0.798446 0.173201
H28   H     H_    0.355035 0.659515 0.269702 0.174033

loop_
_geom_bond_atom_site_label_1
_geom_bond_atom_site_label_2
_ccdc_geom_bond_type
C24   C26   A    
V4    O20   S    
C27   H13   S    
O11   V3    S    
C38   C40   A    
O13   V3    S    
O4    C2    A    
V1    O19   S    
C48   H26   S    
C17   H7    S    
O9    V1    S    
C19   C31   S    
C28   C30   A    
C36   C38   A    
C12   C14   A    
O3    C1    A    
V2    O20   S    
C38   H18   S    
C23   H11   S    
O12   V4    S    
C42   C44   A    
O9    C5    A    
C25   C27   A    
O7    C3    A    
C33   C43   A    
C26   C28   A    
O13   V1    S    
O5    C7    A    
O7    V1    S    
O6    C8    A    
C3    C26   S    
O8    V2    S    
O3    V1    S    
O14   V4    S    
C45   C47   S    
C13   C15   A    
C29   C31   A    
C37   H17   S    
C34   C48   S    
C2    O12   A    
C11   C13   A    
C33   C35   A    
C14   C16   A    
C39   H19   S    
C16   H6    S    
C46   H22   S    
C24   H12   S    
C27   C29   A    
C21   H9    S    
O17   V3    S    
C22   H10   S    
C41   C43   A    
C33   C47   S    
O8    C4    A    
C21   C23   A    
C17   C19   A    
C1    O11   A    
C40   C42   A    
C4    C25   S    
O15   V3    S    
C2    C35   S    
C9    C11   A    
C9    C19   A    
C29   H15   S    
C28   H14   S    
C45   H23   S    
C20   C32   S    
C15   H5    S    
C7    C13   S    
C46   C48   S    
C37   C39   A    
C30   C32   A    
O10   V2    S    
O1    V3    S    
C47   H25   S    
C46   H24   S    
C35   C37   A    
C34   C36   A    
C30   H16   S    
C44   C46   S    
O18   V4    S    
C40   H20   S    
O15   C5    A    
O16   C6    A    
O1    C3    A    
C21   C31   A    
C48   H28   S    
C22   C24   A    
O16   V4    S    
C10   C12   A    
C10   C20   A    
C23   C25   A    
C1    C36   S    
O5    V1    S    
O17   C7    A    
O6    V2    S    
O10   C6    A    
O18   C8    A    
O2    V4    S    
C47   H27   S    
C43   C45   S    
C11   H3    S    
C12   H4    S    
C15   C17   A    
C18   H8    S    
C9    H1    S    
C10   H2    S    
O14   V2    S    
C45   H21   S    
O2    C4    A    
O4    V2    S    
C18   C20   A    
C22   C32   A    
V3    O19   S    
C5    C41   S    
C34   C44   A    
C6    C42   S    
C39   C41   A    
C16   C18   A    
C8    C14   S    
