data_mof_unit_28002.cif
_audit_creation_date              2012-12-11T17:01:36-0500
_audit_creation_method            fapswitch 2.2
_symmetry_space_group_name_H-M    P1
_symmetry_Int_Tables_number       1
_space_group_crystal_system       triclinic
_cell_length_a                    14.964522
_cell_length_b                    14.890835
_cell_length_c                    15.010578
_cell_angle_alpha                 109.899782
_cell_angle_beta                  109.226285
_cell_angle_gamma                 109.32203
_cell_volume                      2573.70953557

loop_
_atom_site_label
_atom_site_type_symbol
_atom_type_description
_atom_site_fract_x
_atom_site_fract_y
_atom_site_fract_z
_atom_type_partial_charge
C1    C     C_R   0.932044 0.747741 0.027046 -0.151085
C2    C     C_R   0.673950 0.213166 0.673432 0.072507
C3    C     C_R   0.990650 0.502599 0.675537 0.073443
C4    C     C_R   0.699603 0.499891 0.068044 0.000897
C5    C     C_R   0.995179 0.593049 0.298139 -0.146333
C6    C     C_R   0.222725 0.407742 0.975450 -0.136199
C7    C     C_R   0.297854 0.804135 0.207221 -0.160545
C8    C     C_R   0.906500 0.197666 0.997795 -0.143940
C9    C     C_R   0.997442 0.194976 0.906454 -0.137787
C10   C     C_R   0.209815 0.803495 0.301362 -0.124796
C11   C     C_R   0.906954 0.409667 0.209926 -0.121159
C12   C     C_R   0.776777 0.242107 0.685464 -0.140005
C13   C     C_R   0.314098 0.592250 0.067632 -0.136844
C14   C     C_R   0.935844 0.502912 0.301654 0.079020
C15   C     C_R   0.325268 0.500006 0.052232 -0.006992
C16   C     C_R   0.301665 0.867168 0.301594 0.078062
C17   C     C_R   0.935831 0.132930 0.937375 0.075029
C18   C     C_3   0.531714 0.396891 0.072402 -0.405510
C19   C     C_3   0.427570 0.396942 0.068292 -0.396700
C20   C     C_3   0.633822 0.604008 0.174828 -0.403683
C21   C     C_3   0.536670 0.499376 0.968226 -0.393433
C22   C     C_3   0.603058 0.500048 0.072293 0.397038
C23   C     C_R   0.054743 0.593075 0.778985 -0.148186
C24   C     C_3   0.427170 0.500069 0.065138 0.391534
C25   C     C_3   0.529644 0.603696 0.170998 -0.398033
C26   C     C_3   0.433963 0.499640 0.964078 -0.391896
C27   C     C_R   0.572833 0.116767 0.470431 0.164038
C28   C     C_R   0.573431 0.157535 0.569820 0.034887
C29   C     C_R   0.472368 0.130546 0.566238 -0.202560
C30   C     C_R   0.376438 0.042543 0.470700 -0.205202
C31   C     C_R   0.382470 0.982945 0.379436 0.031797
C32   C     C_R   0.478142 0.030979 0.376075 0.162477
C33   C     C_3   0.537901 0.980955 0.334075 -0.524819
C34   C     C_R   0.700105 0.408447 0.004268 -0.148949
C35   C     C_3   0.641261 0.074066 0.437374 -0.527309
C36   C     C_R   0.958714 0.607311 0.482634 0.151620
C37   C     C_R   0.905160 0.507706 0.384312 0.025445
C38   C     C_R   0.843433 0.409695 0.379240 -0.211880
C39   C     C_R   0.863900 0.408531 0.476237 -0.197569
C40   C     C_R   0.944258 0.505744 0.576345 0.042940
C41   C     C_R   0.977806 0.605993 0.578008 0.162948
C42   C     C_3   0.087251 0.708028 0.643497 -0.530208
C43   C     C_3   0.067527 0.709571 0.539280 -0.515170
C44   C     C_R   0.846971 0.879750 0.954611 0.161049
C45   C     C_R   0.964715 0.409783 0.685613 -0.139217
C46   C     C_R   0.902517 0.835897 0.911702 0.035997
C47   C     C_R   0.925572 0.862513 0.837467 -0.204048
C48   C     C_R   0.922481 0.953726 0.832906 -0.205955
C49   C     C_R   0.895217 0.016419 0.901771 0.034391
C50   C     C_R   0.843281 0.969158 0.949588 0.156102
C51   C     C_3   0.854669 0.018916 0.060660 -0.516919
C52   C     C_3   0.858987 0.921324 0.066253 -0.525616
C53   C     C_R   0.791126 0.591336 0.096597 -0.154188
C54   C     C_R   0.684774 0.244534 0.776529 -0.129969
C55   C     C_R   0.031784 0.759813 0.944434 -0.121724
C56   C     C_R   0.952128 0.781558 0.957452 0.073282
H1    H     H_    0.873175 0.749351 0.052714 0.108613
H2    H     H_    0.201276 0.322246 0.938627 0.092542
H3    H     H_    0.344068 0.832964 0.171113 0.102007
H4    H     H_    0.843608 0.170938 0.018287 0.099931
H5    H     H_    0.020105 0.164925 0.845921 0.084037
H6    H     H_    0.179140 0.831075 0.354885 0.084207
H7    H     H_    0.849085 0.325188 0.179405 0.082958
H8    H     H_    0.377172 0.677769 0.116255 0.091708
H9    H     H_    0.578882 0.396269 0.146834 0.157643
H10   H     H_    0.506510 0.319747 0.000149 0.145770
H11   H     H_    0.356143 0.319603 0.994564 0.146236
H12   H     H_    0.797180 0.226359 0.622444 0.100945
H13   H     H_    0.423360 0.396618 0.140828 0.158607
H14   H     H_    0.682557 0.606018 0.250452 0.156606
H15   H     H_    0.526294 0.604469 0.244199 0.158283
H16   H     H_    0.586585 0.572993 0.966943 0.155829
H17   H     H_    0.513399 0.425045 0.893779 0.155662
H18   H     H_    0.361397 0.425665 0.887289 0.155588
H19   H     H_    0.434640 0.573510 0.960901 0.155931
H20   H     H_    0.683975 0.680566 0.178233 0.146737
H21   H     H_    0.534332 0.680811 0.174255 0.147029
H22   H     H_    0.467846 0.166852 0.639311 0.123816
H23   H     H_    0.100808 0.677456 0.802512 0.097444
H24   H     H_    0.301706 0.013627 0.473899 0.123965
H25   H     H_    0.518834 0.899769 0.328542 0.199960
H26   H     H_    0.534110 0.984015 0.260002 0.187624
H27   H     H_    0.679172 0.044436 0.489535 0.199580
H28   H     H_    0.697340 0.130191 0.422611 0.185886
H29   H     H_    0.792519 0.331855 0.303169 0.124013
H30   H     H_    0.825962 0.330266 0.471830 0.121919
H31   H     H_    0.089256 0.778337 0.704056 0.185372
H32   H     H_    0.155959 0.693092 0.675760 0.198971
H33   H     H_    0.645493 0.323209 0.974513 0.083292
H34   H     H_    0.126119 0.696154 0.513973 0.204936
H35   H     H_    0.959548 0.823395 0.794441 0.125547
H36   H     H_    0.954581 0.982036 0.786867 0.123810
H37   H     H_    0.932810 0.097503 0.122218 0.204044
H38   H     H_    0.780052 0.020878 0.057359 0.186435
H39   H     H_    0.939713 0.945197 0.130968 0.201186
H40   H     H_    0.786988 0.867264 0.066340 0.187107
H41   H     H_    0.930635 0.326934 0.621664 0.084417
H42   H     H_    0.821434 0.676365 0.153392 0.084219
H43   H     H_    0.621258 0.233910 0.797731 0.090345
H44   H     H_    0.072727 0.785984 0.903747 0.084349
H45   H     H_    0.013989 0.676762 0.344496 0.099086
N1    N     N_R   0.995640 0.706130 0.053910 -0.040262
N2    N     N_R   0.153680 0.443190 0.946090 -0.038062
N3    N     N_R   0.208920 0.706140 0.152110 -0.037589
N4    N     N_R   0.947120 0.293870 0.002870 -0.039354
N5    N     N_R   0.004360 0.293870 0.946090 -0.038236
N6    N     N_R   0.151690 0.706140 0.208890 -0.039243
N7    N     N_R   0.945990 0.443210 0.152110 -0.038948
N8    N     N_R   0.210060 0.556810 0.002870 -0.037705
N9    N     N_R   0.848310 0.293860 0.791110 -0.039749
N10   N     N_R   0.054010 0.556790 0.847890 -0.038392
N11   N     N_R   0.789940 0.443190 0.997130 -0.031258
N12   N     N_R   0.997630 0.443170 0.791110 -0.038182
N13   N     N_R   0.846320 0.556810 0.053910 -0.031425
N14   N     N_R   0.791080 0.293860 0.847890 -0.040478
N15   N     N_R   0.052880 0.706130 0.997130 -0.039463
N16   N     N_R   0.002370 0.556830 0.208890 -0.038080
Ni1   Ni    Ni4+2 0.999010 0.630300 0.130220 0.205355
Ni2   Ni    Ni4+2 0.000990 0.369700 0.869780 0.207968
Ni3   Ni    Ni4+2 0.130280 0.630280 0.000000 0.206711
Ni4   Ni    Ni4+2 0.869720 0.369720 0.000000 0.206659
H46   H     H_    0.059207 0.781307 0.540153 0.185468

loop_
_geom_bond_atom_site_label_1
_geom_bond_atom_site_label_2
_ccdc_geom_bond_type
C21   C26   S    
N14   Ni4   S    
N5    Ni2   S    
C34   N11   A    
C41   C42   S    
C6    H2    S    
C3    C23   A    
N7    Ni4   S    
C55   C56   A    
C2    C12   A    
C8    N4    A    
C12   N9    A    
C10   N6    A    
C18   H9    S    
C12   H12   S    
C29   C30   A    
C25   H21   S    
C55   N15   A    
C28   C29   A    
C1    C56   A    
C24   C26   S    
C11   H7    S    
C38   C39   A    
C4    C53   A    
C11   C14   A    
C20   C25   S    
C21   H17   S    
C20   H20   S    
C52   H39   S    
C18   C19   S    
C7    H3    S    
C13   N8    A    
C26   H18   S    
C6    C15   A    
N12   Ni2   S    
C29   H22   S    
C31   C32   A    
C55   H44   S    
C19   H11   S    
C25   H15   S    
C33   H26   S    
N6    Ni1   S    
N1    Ni1   S    
C30   H24   S    
C44   C52   S    
C21   C22   S    
C20   H14   S    
C36   C41   A    
C10   H6    S    
N11   N13   A    
C44   C46   A    
C50   C51   S    
C4    C34   A    
C5    H45   S    
C43   H34   S    
C38   H29   S    
C51   C52   S    
C24   C25   S    
C2    C54   A    
C17   C49   S    
C39   C40   A    
C35   H27   S    
C21   H16   S    
C27   C35   S    
C9    N5    A    
C3    C45   A    
N15   Ni3   S    
C5    N16   A    
N10   Ni3   S    
C16   C31   S    
C37   C38   A    
C1    H1    S    
C4    C22   S    
C47   C48   A    
C54   N14   A    
C26   H19   S    
N4    Ni4   S    
N10   N12   A    
C6    N2    A    
C43   H46   S    
C5    C14   A    
N13   Ni1   S    
C51   H37   S    
C9    C17   A    
C40   C41   A    
C20   C22   S    
C3    C40   S    
C7    N3    A    
C13   C15   A    
C7    C16   A    
C9    H5    S    
C54   H43   S    
C19   H13   S    
C42   H32   S    
C42   C43   S    
C11   N7    A    
C53   N13   A    
C44   C50   A    
C46   C47   A    
C15   C24   S    
C27   C32   A    
C18   C22   S    
C47   H35   S    
N7    N16   A    
N2    Ni2   S    
N9    Ni2   S    
C2    C28   S    
C35   H28   S    
C53   H42   S    
C18   H10   S    
C23   N10   A    
N4    N5    A    
C8    C17   A    
N2    N8    A    
C32   C33   S    
C19   C24   S    
C34   H33   S    
N11   Ni4   S    
C10   C16   A    
N16   Ni1   S    
C8    H4    S    
C14   C37   S    
C30   C31   A    
C13   H8    S    
C48   C49   A    
C1    N1    A    
C33   C35   S    
C52   H40   S    
N1    N15   A    
C51   H38   S    
C45   N12   A    
C36   C37   A    
C49   C50   A    
C48   H36   S    
C46   C56   S    
C27   C28   A    
C36   C43   S    
C45   H41   S    
C42   H31   S    
C39   H30   S    
C23   H23   S    
C33   H25   S    
N9    N14   A    
N3    N6    A    
N8    Ni3   S    
N3    Ni3   S    
