data_mof_unit_26168.cif
_audit_creation_date              2013-03-05T15:48:00-0500
_audit_creation_method            fapswitch 2.2
_symmetry_space_group_name_H-M    P1
_symmetry_Int_Tables_number       1
_space_group_crystal_system       triclinic
_cell_length_a                    8.260696
_cell_length_b                    19.168007
_cell_length_c                    26.942834
_cell_angle_alpha                 95.450034
_cell_angle_beta                  92.711553
_cell_angle_gamma                 84.998973
_cell_volume                      4227.42693903

loop_
_atom_site_label
_atom_site_type_symbol
_atom_site_description
_atom_site_fract_x
_atom_site_fract_y
_atom_site_fract_z
_atom_type_partial_charge
P1    P     P_3+3 0.082480 0.557670 0.610090 0.488740
O1    O     O_2   0.913240 0.537010 0.617740 -0.367534
O2    O     O_3   0.145240 0.536960 0.557560 -0.409406
O3    O     O_3   0.669960 0.410470 0.588880 -0.400068
O4    O     O_2   0.837987 0.441456 0.672498 -0.298815
O5    O     O_3   0.061396 0.649339 0.621878 -0.548913
O6    O     O_3   0.642577 0.342487 0.676769 -0.498564
H1    H     H_    0.800020 0.300825 0.620584 0.184826
C1    C     C_3   0.763064 0.223898 0.671371 -0.003483
H2    H     H_    0.850006 0.242138 0.701405 0.156009
P2    P     P_3+3 0.635220 0.340300 0.462910 0.469534
P3    P     P_3+3 0.112002 0.284075 0.566706 0.495212
O7    O     O_2   0.812980 0.329910 0.477500 -0.374693
O8    O     O_3   0.078660 0.374870 0.564770 -0.363575
O9    O     O_2   0.970233 0.251343 0.535969 -0.343402
O10   O     O_3   0.627853 0.317932 0.398465 -0.561276
O11   O     O_3   0.086782 0.265691 0.628158 -0.521843
C2    C     C_3   0.236877 0.265641 0.655041 0.074778
C3    C     C_3   0.213314 0.244077 0.707715 0.344810
H3    H     H_    0.144260 0.196439 0.703334 0.113103
C4    C     C_3   0.188871 0.318845 0.418798 0.407035
H4    H     H_    0.310396 0.336670 0.429094 0.094339
H5    H     H_    0.107769 0.331086 0.450708 0.124821
C5    C     C_3   0.204406 0.239672 0.405581 -0.920511
H6    H     H_    0.288241 0.226042 0.374439 0.273861
H7    H     H_    0.253001 0.212202 0.438069 0.213781
H8    H     H_    0.083212 0.221233 0.394139 0.269406
Ba1   Ba    Ba6+2 0.854000 0.466860 0.523710 1.596565
C6    C     C_3   0.005339 0.679974 0.578579 0.376606
H9    H     H_    0.887419 0.660547 0.565634 0.090492
C7    C     C_3   0.984347 0.759326 0.590726 -0.808846
H10   H     H_    0.889175 0.773097 0.618593 0.267811
H11   H     H_    0.100919 0.778779 0.606124 0.288264
C8    C     C_3   0.689975 0.369971 0.373932 0.407246
H12   H     H_    0.805707 0.385749 0.392070 0.104312
H13   H     H_    0.599166 0.416108 0.373682 0.094187
C9    C     C_3   0.722240 0.339970 0.320591 -0.921307
H14   H     H_    0.804593 0.290979 0.320840 0.283239
P4    P     P_3+3 0.107220 0.442270 0.389900 0.475869
O12   O     O_2   0.276450 0.462960 0.382230 -0.365839
O13   O     O_3   0.044470 0.462980 0.442430 -0.411402
O14   O     O_3   0.519740 0.589470 0.411120 -0.401313
O15   O     O_3   0.124848 0.350809 0.376892 -0.555548
P5    P     P_3+3 0.086234 0.716899 0.432271 0.505012
O16   O     O_3   0.632420 0.583650 0.524140 -0.393758
O17   O     O_3   0.111040 0.625070 0.435230 -0.360975
O18   O     O_2   0.209182 0.747208 0.471400 -0.320367
O19   O     O_3   0.161166 0.740235 0.376704 -0.557639
Ba2   Ba    Ba6+2 0.335820 0.533080 0.476290 1.605294
P6    P     P_3+3 0.665047 0.423704 0.653850 0.564515
C10   C     C_3   0.699874 0.286659 0.642509 0.264393
H15   H     H_    0.598393 0.271396 0.616352 0.052742
H16   H     H_    0.661081 0.203683 0.689223 0.194833
O20   O     O_3   0.557280 0.416300 0.475860 -0.395738
C11   C     C_3   0.508688 0.644923 0.626301 0.379516
H17   H     H_    0.385808 0.633679 0.610839 0.104646
H18   H     H_    0.591423 0.595974 0.623686 0.087966
C12   C     C_3   0.492995 0.672358 0.680888 -0.804968
H19   H     H_    0.430139 0.635421 0.700991 0.202746
H20   H     H_    0.615428 0.678520 0.698800 0.266682
P7    P     P_3+3 0.561946 0.672238 0.536953 0.497993
O21   O     O_2   0.376710 0.670070 0.522470 -0.347201
O22   O     O_3   0.573392 0.696231 0.601238 -0.522040
C13   C     C_3   0.036090 0.749811 0.339876 0.517161
C14   C     C_3   0.079017 0.808719 0.308277 0.256896
H21   H     H_    0.204658 0.794936 0.295476 0.091302
P8    P     P_3+3 0.521813 0.579870 0.346050 0.550718
C15   C     C_3   0.569657 0.710842 0.364046 0.459151
O23   O     O_2   0.355850 0.553620 0.327648 -0.328677
O24   O     O_3   0.514078 0.663911 0.324969 -0.445085
H22   H     H_    0.491258 0.713811 0.396739 0.129205
C16   C     C_3   0.563096 0.784296 0.346918 -0.811172
H23   H     H_    0.629223 0.819316 0.374389 0.209174
H24   H     H_    0.435482 0.806405 0.343770 0.270926
C17   C     C_R   0.017484 0.447063 0.179005 0.511004
O25   O     O_2   0.052437 0.394504 0.200939 -0.585217
N1    N     N_R   0.935306 0.505590 0.203419 -0.173685
C18   C     C_R   0.893132 0.564638 0.177998 0.596544
C19   C     C_2   0.736418 0.521120 0.269502 -0.088859
C20   C     C_3   0.693855 0.517000 0.323305 0.075889
C21   C     C_1   0.980437 0.487944 0.342853 0.260473
C22   C     C_2   0.019647 0.485868 0.295238 -0.096231
C23   C     C_2   0.892286 0.504648 0.255465 0.143363
C24   C     C_R   0.015447 0.506419 0.102306 -0.061004
C25   C     C_R   0.059173 0.446951 0.128534 -0.051200
C26   C     C_R   0.143318 0.388297 0.103737 -0.067854
C27   C     C_R   0.931495 0.565527 0.127357 -0.107913
C28   C     C_2   0.842825 0.521378 0.357904 -0.368209
H25   H     H_    0.144174 0.471422 0.284865 0.170124
H26   H     H_    0.179948 0.341884 0.122874 0.177778
C29   C     C_2   0.352877 0.484865 0.642311 -0.461470
C30   C     C_R   0.175962 0.446233 0.974747 0.047551
C31   C     C_R   0.055138 0.568263 0.974337 -0.002276
C32   C     C_R   0.135730 0.507565 0.949170 0.105543
C33   C     C_R   0.252224 0.386448 0.947679 -0.187991
C34   C     C_R   0.290632 0.387195 0.898088 -0.000637
C35   C     C_R   0.254786 0.447418 0.872712 -0.080916
C36   C     C_R   0.176807 0.508042 0.897946 -0.072623
C37   C     C_R   0.140420 0.568794 0.871988 -0.227097
C38   C     C_R   0.178620 0.566070 0.820576 0.651737
N2    N     N_R   0.258698 0.506527 0.796874 -0.164002
C39   C     C_R   0.295949 0.447669 0.822468 0.676742
C40   C     C_2   0.462486 0.494148 0.731456 0.301249
C41   C     C_3   0.502885 0.492342 0.676115 0.013543
C42   C     C_1   0.212508 0.514820 0.657353 0.274591
C43   C     C_2   0.173382 0.515983 0.704638 -0.130377
C44   C     C_2   0.303486 0.505418 0.744799 -0.011552
O26   O     O_2   0.364818 0.395030 0.801305 -0.489625
C45   C     C_R   0.138709 0.446331 0.026155 0.041189
C46   C     C_R   0.055450 0.506740 0.051027 0.088428
C47   C     C_R   0.011642 0.567433 0.025205 0.064937
C48   C     C_R   0.182537 0.387921 0.053981 -0.188945
H27   H     H_    0.349200 0.339642 0.879509 0.194831
H28   H     H_    0.283284 0.337308 0.963431 0.141757
H29   H     H_    0.249112 0.340641 0.038713 0.139681
O27   O     O_2   0.823110 0.616840 0.199521 -0.489729
C49   C     C_R   0.886718 0.624438 0.101246 -0.037059
C50   C     C_R   0.023257 0.628534 0.947862 -0.267935
C51   C     C_R   0.065817 0.629841 0.898290 0.427598
O28   O     O_2   0.140615 0.616541 0.796831 -0.517466
C52   C     C_R   0.924812 0.625372 0.051491 -0.174433
H30   H     H_    0.969841 0.677461 0.965208 0.169543
H31   H     H_    0.047323 0.525653 0.714735 0.196683
H32   H     H_    0.838477 0.553120 0.393489 0.155877
H33   H     H_    0.361231 0.456801 0.605422 0.178221
C53   C     C_R   0.401920 0.299519 0.523171 -0.512511
C54   C     C_R   0.541210 0.276882 0.497338 0.318028
C55   C     C_R   0.594513 0.204926 0.492412 -0.200939
C56   C     C_R   0.504405 0.155078 0.511961 0.094958
C57   C     C_R   0.355673 0.178884 0.533980 -0.209530
C58   C     C_R   0.306376 0.250928 0.539900 0.186982
C59   C     C_R   0.558303 0.034324 0.546334 0.371090
C60   C     C_R   0.613314 0.962850 0.538347 -0.156399
C61   C     C_R   0.659810 0.932063 0.491262 0.122601
C62   C     C_R   0.662633 0.975488 0.452369 -0.070827
C63   C     C_R   0.615849 0.047647 0.460140 -0.180411
C64   C     C_R   0.561189 0.078367 0.506707 -0.004044
C65   C     C_R   0.842436 0.827017 0.458966 -0.273925
C66   C     C_R   0.886072 0.754342 0.454011 0.205598
C67   C     C_R   0.652294 0.734383 0.500230 0.159408
C68   C     C_R   0.600690 0.806931 0.502918 0.225813
C69   C     C_R   0.698896 0.854203 0.482978 -0.098217
C70   C     C_R   0.789282 0.708864 0.473936 -0.556545
H34   H     H_    0.617283 0.930502 0.569285 0.186440
H35   H     H_    0.704483 0.187893 0.472788 0.161083
H36   H     H_    0.696914 0.953294 0.415561 0.183462
H37   H     H_    0.616752 0.079219 0.428899 0.157314
H38   H     H_    0.278028 0.141760 0.546294 0.181322
H39   H     H_    0.827735 0.653279 0.472247 0.174707
H40   H     H_    0.361083 0.354886 0.526894 0.168540
H41   H     H_    0.093466 0.667853 0.548609 0.138689
H42   H     H_    0.948025 0.785809 0.556705 0.213204
N3    N     N_R   0.843946 0.165981 0.639938 0.268565
O29   O     O_R   0.914108 0.112088 0.660712 -0.299725
O30   O     O_R   0.831480 0.163378 0.591505 -0.349247
H43   H     H_    0.781191 0.377771 0.300284 0.212015
H44   H     H_    0.606007 0.327865 0.300543 0.262645
H45   H     H_    0.420493 0.724079 0.683794 0.288142
N4    N     N_R   0.370261 0.226227 0.732580 0.220398
O31   O     O_R   0.410007 0.162093 0.743399 -0.302761
O32   O     O_R   0.467255 0.274876 0.746634 -0.311027
N5    N     N_R   0.025652 0.683900 0.308497 0.247148
O33   O     O_R   0.890549 0.653639 0.304725 -0.396485
O34   O     O_R   0.147980 0.656831 0.282377 -0.332778
H46   H     H_    0.916252 0.766652 0.356134 -0.023526
N6    N     N_R   0.972990 0.816393 0.263483 0.248215
O35   O     O_R   0.006275 0.860384 0.232239 -0.298386
O36   O     O_R   0.847394 0.780221 0.253777 -0.337186
N7    N     N_R   0.073472 0.875919 0.339045 0.242000
O37   O     O_R   0.205167 0.908080 0.348983 -0.350226
O38   O     O_R   0.934973 0.906221 0.354015 -0.410526
H47   H     H_    0.697105 0.694287 0.375175 0.047270
H48   H     H_    0.618154 0.782768 0.310181 0.308138
H49   H     H_    0.285369 0.318309 0.657236 0.120105
N8    N     N_R   0.591430 0.496203 0.769339 0.242080
O39   O     O_R   0.713443 0.448511 0.767807 -0.276072
O40   O     O_R   0.584829 0.544910 0.806457 -0.390263
H50   H     H_    0.640048 0.532580 0.241930 0.149210
H51   H     H_    0.820569 0.670546 0.119249 0.192575
H52   H     H_    0.326276 0.226075 0.636812 0.105580
N9    N     N_R   0.037503 0.695335 0.876323 0.268887
O41   O     O_R   0.160685 0.727859 0.864992 -0.285806
O42   O     O_R   0.894051 0.729209 0.877793 -0.316939
H53   H     H_    0.881962 0.672615 0.034694 0.149599
N10   N     N_R   0.448214 0.832526 0.524382 0.249767
O43   O     O_R   0.345347 0.873880 0.500432 -0.349059
O44   O     O_R   0.419230 0.821416 0.569871 -0.344827
N11   N     N_R   0.498388 0.059678 0.594586 0.243834
O45   O     O_R   0.425556 0.018290 0.620201 -0.299754
O46   O     O_R   0.529647 0.121122 0.615438 -0.409618
N12   N     N_R   0.120604 0.298834 0.738937 0.249721
O47   O     O_R   0.080234 0.360784 0.724012 -0.349048
O48   O     O_R   0.078914 0.285581 0.782826 -0.322290
H54   H     H_    0.923339 0.862334 0.446074 0.211440

loop_
_geom_bond_atom_site_label_1
_geom_bond_atom_site_label_2
_geom_bond_distance
_ccdc_geom_bond_type
C18   C27   1.417232 A    
N2    C44   1.465571 S    
C11   H17   1.109712 S    
C16   H24   1.103893 S    
P6    C41   1.871919 S    
C31   C32   1.419310 A    
P3    C58   1.829789 S    
C47   C52   1.417464 A    
C8    C9    1.523051 S    
P2    O7    1.503236 D    
N7    O37   1.301248 A    
C29   C42   1.312502 D    
C26   C48   1.393201 A    
C3    H3    1.112238 S    
C1    C10   1.534332 S    
C5    H8    1.110874 S    
C29   C41   1.511614 S    
C28   H32   1.085969 S    
C12   H45   1.110798 S    
C55   C56   1.414612 A    
C59   N11   1.438828 S    
C21   C22   1.334018 D    
O2    Ba2   2.748343 S    
O14   P8    1.746067 S    
C62   C63   1.402053 A    
P4    O13   1.534990 S    
N1    C18   1.388330 Am   
O17   Ba2   2.717746 S    
C53   C54   1.388540 A    
C22   H25   1.084351 S    
C53   C58   1.391110 A    
O2    Ba1   2.923793 S    
C9    H14   1.110883 S    
C5    H7    1.105468 S    
C8    H12   1.105612 S    
N4    O31   1.301023 A    
C50   H30   1.075527 S    
C55   H35   1.082749 S    
O19   C13   1.410785 S    
C6    H41   1.107458 S    
C43   C44   1.503521 S    
C32   C36   1.437775 A    
C33   H28   1.075477 S    
C12   H20   1.110661 S    
O12   Ba2   2.796374 S    
C36   C37   1.417503 A    
Ba1   O13   2.748011 S    
N11   O46   1.297325 A    
P1    O1    1.514304 D    
C51   N9    1.434533 S    
C9    H44   1.110625 S    
P7    O22   1.749623 S    
C49   C52   1.393500 A    
C50   C51   1.400140 A    
O10   C8    1.393486 S    
C46   C47   1.423007 A    
C66   C70   1.392262 A    
C17   C25   1.418241 A    
C7    H10   1.110636 S    
C59   C60   1.405153 A    
C11   O22   1.400295 S    
C43   H31   1.084576 S    
P1    Ba1   3.375828 S    
C67   C70   1.391124 A    
O7    Ba1   2.837284 S    
C39   O26   1.219909 D    
C38   O28   1.220424 D    
N3    O30   1.300657 A    
C6    H9    1.102546 S    
C1    H2    1.108107 S    
C35   C39   1.411826 A    
P5    O18   1.538077 D    
N9    O42   1.301083 A    
C1    N3    1.463465 S    
Ba2   O20   2.764166 S    
C4    O15   1.395825 S    
C4    H4    1.103140 S    
N6    O36   1.300331 A    
N7    O38   1.300885 A    
C9    H43   1.106131 S    
C30   C32   1.425312 A    
O3    Ba1   2.731711 S    
P5    O17   1.763177 S    
C35   C36   1.410102 A    
N5    O34   1.300818 A    
C65   H54   1.082157 S    
C67   C68   1.414617 A    
Ba1   O16   2.764900 S    
C40   N8    1.440386 S    
C57   H38   1.082775 S    
P1    O5    1.750571 S    
C21   C28   1.317055 D    
N2    C39   1.382090 Am   
C24   C25   1.409328 A    
P4    C21   1.842673 S    
N8    O40   1.301412 A    
C65   C69   1.413128 A    
C45   C48   1.417658 A    
P4    O12   1.514540 D    
Ba1   O20   2.913260 S    
C2    C3    1.540937 S    
P4    O15   1.749606 S    
C12   H19   1.108057 S    
N9    O41   1.301323 A    
C37   C51   1.417490 A    
C14   N6    1.468539 S    
C30   C33   1.414507 A    
C24   C46   1.436388 A    
C10   H15   1.110274 S    
O3    P6    1.746642 S    
N11   O45   1.301586 A    
P1    O2    1.535015 S    
P3    O11   1.750769 S    
P2    C54   1.840672 S    
C17   O25   1.222209 D    
N12   O48   1.300881 A    
C13   H46   1.111095 S    
C61   C69   1.496972 S    
Ba1   Ba2   4.555790 S    
N8    O39   1.299773 A    
P3    O9    1.545519 D    
O16   Ba2   2.912490 S    
C15   C16   1.518561 S    
C62   H36   1.081687 S    
C34   C35   1.399586 A    
C7    H11   1.110803 S    
O11   C2    1.406014 S    
C19   H50   1.085542 S    
C56   C64   1.499539 S    
O4    P6    1.547090 D    
C16   H48   1.105521 S    
C5    H6    1.110691 S    
C17   N1    1.386134 Am   
H1    C10   1.105863 S    
C25   C26   1.399476 A    
P2    O20   1.555515 S    
P1    C42   1.834481 S    
C31   C47   1.435076 A    
C52   H53   1.075604 S    
C2    H49   1.113581 S    
C13   N5    1.458612 S    
P4    Ba2   3.376561 S    
P3    O8    1.743486 S    
C14   H21   1.111174 S    
P5    C66   1.843114 S    
C11   H18   1.110219 S    
C26   H26   1.083649 S    
C60   C61   1.403393 A    
C34   H27   1.083894 S    
C11   C12   1.521702 S    
C1    H16   1.105380 S    
C31   C50   1.413694 A    
C54   C55   1.406672 A    
C56   C57   1.410500 A    
P8    O23   1.545019 D    
N12   O47   1.300753 A    
C53   H40   1.081993 S    
C60   H34   1.082791 S    
Ba2   O21   2.837500 S    
C29   H33   1.086474 S    
P2    O10   1.748000 S    
C18   O27   1.221770 D    
P8    C20   1.868440 S    
O6    P6    1.755888 S    
C16   H23   1.108207 S    
O1    Ba1   2.795734 S    
P7    C67   1.844908 S    
C27   C49   1.400119 A    
C61   C62   1.401006 A    
C24   C27   1.407899 A    
N5    O33   1.297411 A    
O13   Ba2   2.924622 S    
C42   C43   1.326789 D    
C37   C38   1.430298 A    
P8    O24   1.753305 S    
C3    N4    1.459714 S    
C13   C14   1.551298 S    
C4    H5    1.109872 S    
N4    O32   1.299772 A    
C59   C64   1.424870 A    
O6    C10   1.409473 S    
C20   C28   1.511619 S    
C45   C46   1.421356 A    
C19   C23   1.361290 D    
C7    H42   1.106225 S    
C15   H47   1.108589 S    
N10   O43   1.301773 A    
N6    O35   1.300899 A    
P2    Ba1   3.400604 S    
C15   H22   1.111992 S    
O16   P7    1.754072 S    
C38   N2    1.384889 Am   
C57   C58   1.401606 A    
C8    H13   1.108982 S    
P7    O21   1.564267 D    
C30   C45   1.432779 A    
C63   H37   1.083003 S    
N10   O44   1.300401 A    
C65   C66   1.403555 A    
O14   Ba2   2.731098 S    
C2    H52   1.108007 S    
C19   C20   1.518569 S    
P5    O19   1.757215 S    
C70   H39   1.082275 S    
O5    C6    1.397069 S    
C68   N10   1.438366 S    
C6    C7    1.521680 S    
C22   C23   1.511743 S    
C4    C5    1.521208 S    
C14   N7    1.462510 S    
C40   C41   1.539824 S    
C15   O24   1.405303 S    
N1    C23   1.464945 S    
C63   C64   1.411269 A    
C40   C44   1.371689 D    
O8    Ba1   2.717144 S    
N3    O29   1.300405 A    
C68   C69   1.424660 A    
C48   H29   1.075496 S    
C33   C34   1.389453 A    
C49   H51   1.083709 S    
C3    N12   1.465901 S    
