data_mof_unit_44397.cif
_audit_creation_date              2012-12-10T18:13:30-0500
_audit_creation_method            fapswitch 2.2
_symmetry_space_group_name_H-M    P1
_symmetry_Int_Tables_number       1
_space_group_crystal_system       triclinic
_cell_length_a                    12.591809
_cell_length_b                    13.123203
_cell_length_c                    16.707783
_cell_angle_alpha                 91.072757
_cell_angle_beta                  98.305385
_cell_angle_gamma                 97.578825
_cell_volume                      2706.04598374

loop_
_atom_site_label
_atom_site_type_symbol
_atom_type_description
_atom_site_fract_x
_atom_site_fract_y
_atom_site_fract_z
_atom_type_partial_charge
C1    C     C_R   0.560654 0.691374 0.506518 0.853398
C2    C     C_R   0.623296 0.514557 0.236274 -0.195503
C3    C     C_R   0.575761 0.525270 0.874616 -0.163950
C4    C     C_R   0.574325 0.501910 0.793323 -0.238982
C5    C     C_R   0.392438 0.547544 0.764162 -0.304947
C6    C     C_R   0.392435 0.569096 0.846339 0.489253
C7    C     C_R   0.486967 0.562980 0.900850 0.122735
C8    C     C_2   0.574660 0.632957 0.035807 0.432053
C9    C     C_2   0.487920 0.584722 0.986781 -0.258534
C10   C     C_R   0.483661 0.515214 0.737417 -0.098502
C11   C     C_R   0.311417 0.062732 0.376596 -0.288822
C12   C     C_R   0.515211 0.503711 0.349716 0.856132
C13   C     C_R   0.404682 0.199363 0.470330 -0.189267
C14   C     C_R   0.693602 0.838369 0.564686 -0.186960
C15   C     C_R   0.720073 0.943262 0.582090 -0.152301
C16   C     C_R   0.649792 0.010620 0.550201 -0.192721
C17   C     C_R   0.553897 0.973821 0.496508 0.107638
C18   C     C_R   0.537152 0.870015 0.469280 0.090317
C19   C     C_R   0.473835 0.036209 0.468953 0.091469
C20   C     C_R   0.389030 0.999764 0.405451 0.106885
C21   C     C_R   0.383882 0.901546 0.370835 -0.227486
C22   C     C_R   0.457060 0.837223 0.402444 -0.204308
C23   C     C_R   0.439667 0.308464 0.489104 0.899936
C24   C     C_R   0.475044 0.133405 0.503883 -0.330352
C25   C     C_R   0.318112 0.162736 0.408820 0.490248
C26   C     C_R   0.600137 0.801081 0.510528 -0.116456
C27   C     C_R   0.900733 0.347480 0.610660 -0.321701
C28   C     C_R   0.208825 0.626425 0.403735 0.033936
C29   C     C_R   0.106257 0.654753 0.384022 -0.253627
C30   C     C_R   0.021711 0.607698 0.421235 -0.196098
C31   C     C_R   0.039810 0.531451 0.478518 0.014390
C32   C     C_R   0.146120 0.505881 0.496795 0.225822
C33   C     C_R   0.956964 0.478924 0.517471 -0.016274
C34   C     C_R   0.487042 0.503309 0.651055 0.882912
C35   C     C_R   0.981766 0.401673 0.573069 0.207593
C36   C     C_R   0.086966 0.378721 0.590257 -0.307194
C37   C     C_R   0.167830 0.430177 0.552589 -0.252697
C38   C     C_R   0.849518 0.499113 0.503211 -0.059053
C39   C     C_R   0.796157 0.371018 0.593707 0.014489
C40   C     C_R   0.532819 0.537532 0.269624 -0.025796
C41   C     C_R   0.465987 0.604828 0.230611 -0.175894
C42   C     C_R   0.486913 0.645576 0.157824 -0.218513
C43   C     C_R   0.573388 0.617738 0.122324 0.052644
C44   C     C_R   0.643036 0.554072 0.162364 -0.177876
H1    H     H_    0.397584 0.626423 0.256293 0.140454
H2    H     H_    0.321870 0.873570 0.320492 0.136730
H3    H     H_    0.247544 0.035631 0.327241 0.150085
H4    H     H_    0.533706 0.161890 0.555683 0.161946
H5    H     H_    0.744177 0.786228 0.595599 0.159526
H6    H     H_    0.673833 0.091039 0.566938 0.131537
H7    H     H_    0.792816 0.972071 0.623273 0.140947
H8    H     H_    0.451241 0.761805 0.373670 0.145597
H9    H     H_    0.644951 0.475355 0.774242 0.170813
H10   H     H_    0.106716 0.319759 0.632346 0.149794
H11   H     H_    0.918175 0.287882 0.652705 0.138532
H12   H     H_    0.274724 0.662080 0.374665 0.120843
H13   H     H_    0.246052 0.406604 0.566478 0.211039
H14   H     H_    0.322201 0.558678 0.721359 0.176903
H15   H     H_    0.415749 0.553234 0.011626 0.137287
H16   H     H_    0.708863 0.530743 0.134328 0.142380
H17   H     H_    0.646061 0.513002 0.917042 0.183207
H18   H     H_    0.677208 0.464717 0.266447 0.153309
N1    N     N_R   0.774070 0.445420 0.541180 -0.100144
N2    N     N_R   0.226730 0.554050 0.459240 -0.126388
O1    O     O_R   0.631480 0.627510 0.519670 -0.616565
O2    O     O_R   0.455770 0.662400 0.493360 -0.609787
O3    O     O_R   0.598240 0.480510 0.398910 -0.616057
O4    O     O_R   0.422540 0.515400 0.372600 -0.616343
O5    O     O_R   0.544230 0.337600 0.506640 -0.611125
O6    O     O_R   0.368520 0.372490 0.480330 -0.614150
O7    O     O_R   0.577460 0.484600 0.627400 -0.618575
O8    O     O_R   0.401760 0.519490 0.601090 -0.635199
Zn1   Zn    Zn3+2 0.617320 0.476700 0.517570 0.937504
Zn2   Zn    Zn3+2 0.382680 0.523300 0.482430 0.938887
O9    O     O_3   0.304905 0.606117 0.872970 -0.651826
C45   C     C_3   0.210985 0.531873 0.858483 0.049056
H19   H     H_    0.182705 0.516257 0.917615 0.162662
H20   H     H_    0.224288 0.456076 0.832816 0.118035
C46   C     C_3   0.121717 0.575169 0.802581 -0.313674
H21   H     H_    0.106704 0.649307 0.829126 0.231898
H22   H     H_    0.147812 0.589919 0.742661 0.220323
C47   C     C_3   0.016455 0.500599 0.790577 -0.956481
H23   H     H_    0.030145 0.425192 0.765654 0.264692
H24   H     H_    0.954616 0.532287 0.747425 0.273556
H25   H     H_    0.985255 0.489138 0.849094 0.259622
O10   O     O_3   0.248369 0.226951 0.372380 -0.636733
C48   C     C_3   0.163011 0.232513 0.418239 0.132519
H26   H     H_    0.134977 0.308552 0.407865 0.182635
H27   H     H_    0.188872 0.228734 0.484806 0.118155
C49   C     C_3   0.067304 0.148950 0.389841 -0.406100
H28   H     H_    0.042853 0.152824 0.323451 0.236312
H29   H     H_    0.091574 0.071911 0.402895 0.214742
C50   C     C_3   0.970653 0.162556 0.432805 -0.920620
H30   H     H_    0.992970 0.157594 0.499288 0.262407
H31   H     H_    0.902644 0.100948 0.411407 0.267478
H32   H     H_    0.943139 0.238319 0.419519 0.269482
H33   H     H_    0.732095 0.330226 0.622196 0.124908
H34   H     H_    0.822740 0.556345 0.462604 0.128293
H35   H     H_    0.943608 0.632120 0.403508 0.137759
H36   H     H_    0.092248 0.712740 0.339913 0.143056
O11   O     O_3   0.666939 0.674512 0.004218 -0.650649
C51   C     C_3   0.725708 0.759451 0.052001 0.083808
H37   H     H_    0.804743 0.777711 0.029708 0.165303
H38   H     H_    0.745741 0.741469 0.116759 0.134504
C52   C     C_3   0.666649 0.854702 0.042706 -0.349580
H39   H     H_    0.650471 0.872100 0.977571 0.235596
H40   H     H_    0.587853 0.839598 0.065813 0.213877
C53   C     C_3   0.733972 0.948051 0.089431 -0.958188
H41   H     H_    0.749595 0.932722 0.154959 0.266594
H42   H     H_    0.689212 0.015509 0.081678 0.268550
H43   H     H_    0.812443 0.966627 0.066383 0.261738
H44   H     H_    0.432114 0.693947 0.126652 0.135262

loop_
_geom_bond_atom_site_label_1
_geom_bond_atom_site_label_2
_ccdc_geom_bond_type
C48   H26   S    
C50   H30   S    
C4    H9    S    
C41   C42   A    
C23   O5    A    
C11   H3    S    
C35   C36   A    
C18   C26   A    
C8    C43   S    
C38   H34   S    
C28   H12   S    
C6    O9    S    
C12   O4    A    
O11   C51   S    
C5    H14   S    
C28   C29   A    
C45   H20   S    
C38   N1    A    
C3    C7    A    
C5    C6    A    
C27   H11   S    
C39   H33   S    
C14   H5    S    
C11   C25   A    
O4    Zn2   S    
C15   C16   A    
O2    Zn2   S    
O1    Zn1   S    
C53   H41   S    
C13   C23   S    
C51   C52   S    
C42   H44   S    
C33   C35   A    
C19   C20   A    
C2    C44   A    
C8    C9    D    
O6    Zn2   S    
C1    O1    A    
C45   C46   S    
O5    Zn1   S    
O3    Zn1   S    
C15   H7    S    
C8    O11   S    
C50   H31   S    
C21   C22   A    
C23   O6    A    
C13   C25   A    
C12   O3    A    
C17   C18   A    
C3    H17   S    
C52   C53   S    
C11   C20   A    
C24   H4    S    
C45   H19   S    
C32   N2    A    
O8    Zn2   S    
C27   C39   A    
O7    Zn1   S    
O10   C48   S    
C16   C17   A    
N1    Zn1   S    
C27   C35   A    
C30   H35   S    
C13   C24   A    
C9    H15   S    
C12   C40   S    
O9    C45   S    
C29   C30   A    
C52   H40   S    
C49   H29   S    
C31   C32   A    
C31   C33   A    
C1    O2    A    
C10   C34   S    
C32   C37   A    
C14   C26   A    
C51   H38   S    
C28   N2    A    
C40   C41   A    
C50   H32   S    
C47   H24   S    
C48   H27   S    
C43   C44   A    
C1    C26   S    
C42   C43   A    
C4    C10   A    
C3    C4    A    
C34   O8    A    
C49   C50   S    
C22   H8    S    
C21   H2    S    
C7    C9    S    
C36   C37   A    
N2    Zn2   S    
C29   H36   S    
C18   C22   A    
C16   H6    S    
C46   C47   S    
C6    C7    A    
C47   H25   S    
C39   N1    A    
C52   H39   S    
C46   H22   S    
C33   C38   A    
C53   H43   S    
C19   C24   A    
C5    C10   A    
C49   H28   S    
C30   C31   A    
C44   H16   S    
C25   O10   S    
C17   C19   A    
C53   H42   S    
C51   H37   S    
C36   H10   S    
C46   H21   S    
C2    C40   A    
C20   C21   A    
C47   H23   S    
C48   C49   S    
C41   H1    S    
C14   C15   A    
C34   O7    A    
C37   H13   S    
C2    H18   S    
