data_mof_unit_21790.cif
_audit_creation_date              2012-12-10T19:45:04-0500
_audit_creation_method            fapswitch 2.2
_symmetry_space_group_name_H-M    P1
_symmetry_Int_Tables_number       1
_space_group_crystal_system       triclinic
_cell_length_a                    15.151993
_cell_length_b                    10.838898
_cell_length_c                    13.676522
_cell_angle_alpha                 90.149655
_cell_angle_beta                  90.199554
_cell_angle_gamma                 89.28518
_cell_volume                      2245.91177509

loop_
_atom_site_label
_atom_site_type_symbol
_atom_type_description
_atom_site_fract_x
_atom_site_fract_y
_atom_site_fract_z
_atom_type_partial_charge
C1    C     C_R   0.497740 0.262122 0.499594 0.864546
C2    C     C_R   0.503462 0.737807 0.500388 0.861406
C3    C     C_R   0.047593 0.324787 0.612140 -0.169460
C4    C     C_R   0.952385 0.670249 0.385835 -0.171861
C5    C     C_R   0.320466 0.246606 0.246774 -0.109168
C6    C     C_R   0.678617 0.749388 0.755837 -0.113508
C7    C     C_R   0.355016 0.190361 0.330712 -0.097645
C8    C     C_R   0.646117 0.806050 0.671093 -0.091166
C9    C     C_R   0.432854 0.118644 0.325443 0.118058
C10   C     C_R   0.569609 0.880680 0.674819 0.120209
C11   C     C_R   0.473676 0.100690 0.234285 -0.168062
C12   C     C_R   0.528042 0.900935 0.765284 -0.170298
C13   C     C_R   0.438223 0.155779 0.150299 -0.148265
C14   C     C_R   0.561424 0.845332 0.850072 -0.149162
C15   C     C_R   0.362132 0.229523 0.156663 -0.101239
C16   C     C_R   0.636215 0.768834 0.845233 -0.100111
C17   C     C_R   0.478856 0.933354 0.416500 -0.230029
C18   C     C_R   0.527310 0.066806 0.582338 -0.165030
C19   C     C_R   0.507072 0.871672 0.500986 -0.052681
C20   C     C_R   0.496774 0.128234 0.498646 -0.046676
C21   C     C_R   0.533427 0.939013 0.584737 -0.004080
C22   C     C_R   0.471021 0.060830 0.414749 -0.002127
C23   C     C_R   0.328868 0.499589 0.499857 0.874381
C24   C     C_R   0.671088 0.499825 0.500046 0.875592
C25   C     C_R   0.555190 0.421237 0.793308 0.020766
C26   C     C_R   0.444754 0.578734 0.206706 0.026964
C27   C     C_R   0.444321 0.578114 0.793172 0.057916
C28   C     C_R   0.555636 0.421851 0.206830 0.064236
C29   C     C_R   0.442956 0.579989 0.896291 -0.004348
C30   C     C_R   0.556939 0.419932 0.103724 -0.003129
C31   C     C_R   0.499860 0.499834 0.948167 0.076577
C32   C     C_R   0.500030 0.500083 0.051849 0.076952
C33   C     C_R   0.556559 0.419375 0.896413 -0.012383
C34   C     C_R   0.443320 0.580515 0.103609 -0.011222
C35   C     C_R   0.386637 0.660175 0.948522 -0.205411
C36   C     C_R   0.613177 0.339653 0.051513 -0.199608
C37   C     C_R   0.386857 0.660498 0.051284 -0.185466
C38   C     C_R   0.612912 0.339268 0.948770 -0.188942
C39   C     C_R   0.812759 0.582325 0.439230 -0.077380
C40   C     C_R   0.187309 0.413969 0.559506 -0.075903
C41   C     C_R   0.767660 0.498858 0.499794 -0.226774
C42   C     C_R   0.232224 0.498350 0.499449 -0.227680
C43   C     C_R   0.814399 0.413169 0.558764 -0.058203
C44   C     C_R   0.185136 0.581917 0.439172 -0.052872
C45   C     C_R   0.907468 0.411946 0.557732 0.039055
C46   C     C_R   0.092214 0.583067 0.440405 0.035978
C47   C     C_R   0.953099 0.497837 0.499372 0.058622
C48   C     C_R   0.046703 0.497692 0.499247 0.057898
C49   C     C_R   0.905670 0.583391 0.440594 0.037930
C50   C     C_R   0.094296 0.412268 0.557970 0.040953
C51   C     C_R   0.956248 0.324357 0.611762 -0.166674
C52   C     C_R   0.043595 0.670057 0.385694 -0.168897
Cu1   Cu    Cu3+1 0.500010 0.499980 0.597420 0.992740
Cu2   Cu    Cu3+1 0.499990 0.500020 0.402580 0.986355
H1    H     H_    0.459262 0.881799 0.352122 0.148934
H2    H     H_    0.549010 0.118729 0.645754 0.162438
H3    H     H_    0.597882 0.359662 0.752262 0.147776
H4    H     H_    0.402039 0.640396 0.247710 0.157571
H5    H     H_    0.401280 0.639473 0.752089 0.136446
H6    H     H_    0.598682 0.360492 0.247910 0.133526
H7    H     H_    0.342624 0.722869 0.909910 0.149157
H8    H     H_    0.657136 0.276885 0.090127 0.147149
H9    H     H_    0.342872 0.723254 0.089812 0.168022
H10   H     H_    0.656751 0.276290 0.910344 0.147050
H11   H     H_    0.924741 0.253253 0.653933 0.179202
H12   H     H_    0.075208 0.740203 0.342540 0.175214
H13   H     H_    0.080939 0.254301 0.654769 0.173526
H14   H     H_    0.919202 0.740595 0.342910 0.172664
H15   H     H_    0.335471 0.273348 0.091764 0.140608
H16   H     H_    0.661269 0.724651 0.910745 0.145392
H17   H     H_    0.261378 0.303426 0.251634 0.146285
H18   H     H_    0.736687 0.690392 0.752154 0.148195
H19   H     H_    0.321821 0.203841 0.399881 0.154816
H20   H     H_    0.679913 0.790692 0.602567 0.161990
H21   H     H_    0.533360 0.045148 0.228506 0.131383
H22   H     H_    0.469339 0.958676 0.769903 0.134591
H23   H     H_    0.470245 0.142293 0.080394 0.139800
H24   H     H_    0.528791 0.860582 0.919414 0.141098
N1    N     N_R   0.499960 0.499900 0.743810 -0.193340
N2    N     N_R   0.500040 0.500100 0.256190 -0.194632
O1    O     O_R   0.500000 0.319630 0.582270 -0.573633
O2    O     O_R   0.500000 0.680370 0.417730 -0.585909
O3    O     O_R   0.499990 0.319660 0.417730 -0.594810
O4    O     O_R   0.500010 0.680340 0.582270 -0.589348
O5    O     O_R   0.370260 0.499960 0.582280 -0.571378
O6    O     O_R   0.629740 0.500040 0.417720 -0.573645
O7    O     O_R   0.370250 0.499990 0.417740 -0.585150
O8    O     O_R   0.629750 0.500010 0.582260 -0.584414
C53   C     C_2   0.762319 0.668849 0.375004 0.848584
O9    O     O_2   0.770757 0.662562 0.286222 -0.588810
O10   O     O_R   0.704575 0.755775 0.416188 -0.800651
H25   H     H_    0.673690 0.808579 0.365099 0.333045
C54   C     C_2   0.237863 0.326993 0.623184 0.846125
O11   O     O_2   0.289673 0.252696 0.587017 -0.635496
O12   O     O_R   0.226544 0.331617 0.724534 -0.754098
H26   H     H_    0.264965 0.268868 0.760097 0.330303
C55   C     C_2   0.765653 0.321806 0.618335 0.824807
O13   O     O_2   0.714456 0.250951 0.578673 -0.623132
O14   O     O_R   0.778486 0.317410 0.719548 -0.774695
H27   H     H_    0.743600 0.249353 0.751491 0.314339
C56   C     C_2   0.233371 0.671667 0.378047 0.824141
O15   O     O_2   0.226626 0.667733 0.288956 -0.622504
O16   O     O_R   0.285751 0.760733 0.422815 -0.770874
H28   H     H_    0.311688 0.819724 0.373676 0.320666

loop_
_geom_bond_atom_site_label_1
_geom_bond_atom_site_label_2
_ccdc_geom_bond_type
C54   O11   D    
C5    H17   S    
C27   C29   A    
C18   C21   A    
C2    O4    A    
O12   H26   S    
C40   C54   S    
C55   O13   D    
C7    H19   S    
Cu1   Cu2   S    
C6    H18   S    
C56   O15   D    
C23   C42   S    
C25   H3    S    
C4    C52   A    
Cu1   O4    S    
C35   C37   A    
C27   N1    A    
Cu2   O7    S    
C9    C22   S    
C45   C51   A    
C1    O1    A    
C34   C37   A    
C46   C52   A    
Cu1   O1    S    
C51   H11   S    
C37   H9    S    
C26   C34   A    
C31   C32   A    
C31   C33   A    
C53   O10   S    
C17   H1    S    
C38   H10   S    
C18   H2    S    
C40   C42   A    
C54   O12   S    
C23   O7    A    
C24   C41   S    
C41   C43   A    
C42   C44   A    
C36   H8    S    
Cu2   O3    S    
C55   O14   S    
C3    C50   A    
C44   C46   A    
Cu2   N2    S    
C45   C47   A    
C10   C21   S    
C15   H15   S    
C13   H23   S    
C16   H16   S    
C47   C49   A    
O10   H25   S    
C5    C7    A    
C3    C51   A    
C6    C8    A    
C4    H14   S    
C26   N2    A    
C32   C34   A    
C26   H4    S    
C47   C48   A    
C29   C31   A    
C8    H20   S    
C35   H7    S    
C48   C50   A    
C9    C11   A    
C28   H6    S    
C10   C12   A    
C39   C49   A    
C12   C14   A    
C13   C15   A    
C12   H22   S    
C14   C16   A    
C2    O2    A    
Cu2   O2    S    
C52   H12   S    
Cu2   O6    S    
C56   O16   S    
C7    C9    A    
C1    C20   S    
Cu1   N1    S    
C2    C19   S    
C25   N1    A    
C24   O8    A    
C3    H13   S    
C43   C55   S    
C20   C22   A    
Cu1   O5    S    
C44   C56   S    
C1    O3    A    
C29   C35   A    
C17   C22   A    
O14   H27   S    
C30   C36   A    
C4    C49   A    
C36   C38   A    
C43   C45   A    
C11   H21   S    
C30   C32   A    
C11   C13   A    
C40   C50   A    
C28   C30   A    
C17   C19   A    
Cu1   O8    S    
C18   C20   A    
C14   H24   S    
C28   N2    A    
C5    C15   A    
C6    C16   A    
C46   C48   A    
C39   C41   A    
C8    C10   A    
C23   O5    A    
O16   H28   S    
C33   C38   A    
C27   H5    S    
C53   O9    D    
C24   O6    A    
C39   C53   S    
C25   C33   A    
C19   C21   A    
