data_mof_unit_47751.cif
_audit_creation_date              2012-12-11T16:35:16-0500
_audit_creation_method            fapswitch 2.2
_symmetry_space_group_name_H-M    P1
_symmetry_Int_Tables_number       1
_space_group_crystal_system       triclinic
_cell_length_a                    6.981588
_cell_length_b                    17.507865
_cell_length_c                    19.810593
_cell_angle_alpha                 109.319612
_cell_angle_beta                  91.245067
_cell_angle_gamma                 91.106423
_cell_volume                      2283.70129029

loop_
_atom_site_label
_atom_site_type_symbol
_atom_type_description
_atom_site_fract_x
_atom_site_fract_y
_atom_site_fract_z
_atom_type_partial_charge
O1    O     O_R   0.505700 0.440210 0.561730 -0.519180
O2    O     O_R   0.169350 0.406300 0.412660 -0.516681
O3    O     O_R   0.005650 0.559790 0.438270 -0.488695
C1    C     C_R   0.334752 0.385207 0.382612 0.780436
O4    O     O_R   0.175560 0.430650 0.559600 -0.529353
O5    O     O_R   0.011900 0.584320 0.586250 -0.512775
C2    C     C_R   0.343835 0.416673 0.581697 0.890102
O6    O     O_R   0.499450 0.415680 0.413750 -0.544435
O7    O     O_3   0.341370 0.550390 0.508570 -0.345527
V1    V     V_3+5 0.063940 0.490650 0.498410 1.708559
O8    O     O_R   0.682570 0.593700 0.587340 -0.537851
C3    C     C_R   0.855738 0.618208 0.613768 0.848751
O9    O     O_R   0.676370 0.569350 0.440400 -0.526809
C4    C     C_R   0.844803 0.583877 0.418629 0.868428
V2    V     V_3+5 0.564750 0.509350 0.501590 1.693254
O10   O     O_3   0.837190 0.449610 0.491430 -0.374295
C5    C     C_R   0.038435 0.712967 0.312951 0.386340
C6    C     C_R   0.029680 0.650609 0.342963 0.338467
C7    C     C_R   0.855829 0.634799 0.371180 -0.294481
C8    C     C_R   0.693188 0.671585 0.354635 0.281868
C9    C     C_R   0.697651 0.700559 0.295896 0.369739
C10   C     C_R   0.873494 0.730067 0.278809 -0.061128
C11   C     C_R   0.726997 0.813890 0.206507 0.404867
C12   C     C_R   0.738538 0.839788 0.146821 0.268204
C13   C     C_R   0.915924 0.868181 0.131116 -0.362278
C14   C     C_R   0.079726 0.847558 0.163377 0.312590
C15   C     C_R   0.062329 0.786347 0.194963 0.407507
C16   C     C_R   0.887036 0.777000 0.226575 -0.060400
C17   C     C_R   0.824476 0.910949 0.748286 0.295779
C18   C     C_R   0.821270 0.926795 0.682842 0.179549
C19   C     C_R   0.859801 0.864494 0.619004 0.327495
C20   C     C_R   0.906188 0.788199 0.621037 0.289283
C21   C     C_R   0.884054 0.767487 0.684302 -0.162878
C22   C     C_R   0.866243 0.831583 0.750248 -0.086600
C23   C     C_R   0.882162 0.685518 0.683325 -0.035644
C24   C     C_R   0.906076 0.667976 0.748762 -0.072600
C25   C     C_R   0.909510 0.733175 0.815526 -0.102041
C26   C     C_R   0.894693 0.815104 0.815896 -0.057061
C27   C     C_R   0.931817 0.586868 0.749195 0.358125
C28   C     C_R   0.962717 0.571812 0.814034 0.286831
C29   C     C_R   0.942985 0.634236 0.879441 0.251344
C30   C     C_R   0.920203 0.714528 0.880708 0.304864
C31   C     C_R   0.520528 0.234622 0.382340 0.310110
C32   C     C_R   0.651940 0.176206 0.383563 0.383246
C33   C     C_R   0.697098 0.116148 0.319502 0.202282
C34   C     C_R   0.603323 0.113381 0.254997 0.241307
C35   C     C_R   0.495644 0.180708 0.251163 -0.063040
C36   C     C_R   0.453382 0.243333 0.316550 -0.164504
C37   C     C_R   0.429979 0.186943 0.184305 -0.050202
C38   C     C_R   0.331998 0.257456 0.183414 -0.103678
C39   C     C_R   0.265290 0.313287 0.248306 -0.081915
C40   C     C_R   0.341066 0.311133 0.315601 -0.065654
C41   C     C_R   0.301014 0.273741 0.118191 0.282161
C42   C     C_R   0.173918 0.333896 0.114780 0.212076
C43   C     C_R   0.089031 0.383041 0.177565 0.210740
C44   C     C_R   0.126536 0.370159 0.243164 0.335707
C45   C     C_R   0.445647 0.364389 0.751208 0.387096
C46   C     C_R   0.429705 0.408230 0.702991 0.281466
C47   C     C_R   0.351520 0.370921 0.633330 -0.329755
C48   C     C_R   0.275861 0.291088 0.615010 0.373343
C49   C     C_R   0.311665 0.244139 0.659066 0.334495
C50   C     C_R   0.395367 0.280633 0.728713 -0.224291
C51   C     C_R   0.244507 0.193137 0.791398 -0.110005
H1    H     H_    0.111197 0.196536 0.763622 0.216474
C52   C     C_R   0.246589 0.147288 0.837295 0.348477
C53   C     C_R   0.416623 0.142667 0.876493 -0.357419
C54   C     C_R   0.579876 0.189568 0.869476 0.317649
C55   C     C_R   0.581457 0.228374 0.817451 0.490308
C56   C     C_R   0.409567 0.233324 0.779713 -0.113764
O11   O     O_R   0.273230 0.084330 0.086440 -0.555684
O12   O     O_R   0.596660 0.069390 0.940470 -0.530075
O13   O     O_R   0.760270 0.915710 0.913690 -0.511228
C57   C     C_R   0.427034 0.087357 0.921170 0.773205
O14   O     O_R   0.603330 0.093680 0.087390 -0.522057
O15   O     O_R   0.766990 0.940160 0.061660 -0.489643
C58   C     C_R   0.437214 0.116252 0.115853 0.865702
O16   O     O_R   0.266510 0.059870 0.938470 -0.538771
O17   O     O_3   0.431050 0.949630 0.991510 -0.347137
V3    V     V_3+5 0.708490 0.009340 0.001580 1.626863
O18   O     O_R   0.096270 0.930570 0.059390 -0.534647
C59   C     C_R   0.927978 0.916627 0.081647 0.848921
O19   O     O_R   0.089600 0.906290 0.912460 -0.545100
C60   C     C_R   0.917383 0.884180 0.884441 0.893437
V4    V     V_3+5 0.207670 0.990600 0.998190 1.593511
O20   O     O_3   0.935250 0.050360 0.008480 -0.393226
Cl1   Cl    Cl    0.212066 0.790792 0.348600 -0.335315
O21   O     O_3   0.785127 0.972535 0.810643 -0.629197
H2    H     H_    0.732769 0.019762 0.800388 0.354083
O22   O     O_3   0.793564 0.005198 0.683910 -0.631740
H3    H     H_    0.868208 0.015132 0.645536 0.335785
O23   O     O_3   0.857781 0.876566 0.553490 -0.554843
H4    H     H_    0.761809 0.917687 0.554037 0.343204
Cl2   Cl    Cl    0.036063 0.729509 0.547525 -0.536792
O24   O     O_3   0.933132 0.522602 0.685611 -0.627105
H5    H     H_    0.925240 0.469992 0.694048 0.350638
O25   O     O_3   0.012460 0.494917 0.811742 -0.611451
H6    H     H_    0.091898 0.499063 0.854939 0.352585
O26   O     O_3   0.896413 0.774938 0.945459 -0.637757
H7    H     H_    0.926721 0.755701 0.985997 0.346103
O27   O     O_3   0.973565 0.446202 0.177220 -0.634270
H8    H     H_    0.016881 0.468163 0.139829 0.331843
O28   O     O_3   0.450815 0.278730 0.447408 -0.599726
H9    H     H_    0.310978 0.280776 0.439782 0.307028
O29   O     O_3   0.722082 0.177541 0.449819 -0.555479
H10   H     H_    0.796288 0.128708 0.445197 0.386913
Cl3   Cl    Cl    0.220288 0.583435 0.330016 -0.593553
Cl4   Cl    Cl    0.874141 0.044466 0.318410 -0.569470
O30   O     O_3   0.617128 0.045212 0.195642 -0.632323
H11   H     H_    0.634559 0.997548 0.211114 0.358102
O31   O     O_3   0.404220 0.232411 0.058989 -0.669745
H12   H     H_    0.388116 0.256911 0.020891 0.326475
O32   O     O_3   0.129485 0.340791 0.048723 -0.622843
H13   H     H_    0.996210 0.359238 0.048697 0.329619
O33   O     O_3   0.019033 0.408992 0.301579 -0.621619
H14   H     H_    0.908699 0.435785 0.287651 0.323965
Cl5   Cl    Cl    0.517360 0.416762 0.841177 -0.509503
Cl6   Cl    Cl    0.485535 0.513184 0.732895 -0.604880
Cl7   Cl    Cl    0.124046 0.248433 0.539096 -0.528361
O34   O     O_3   0.259775 0.162837 0.632337 -0.576350
H15   H     H_    0.340893 0.132723 0.655917 0.319705
Cl8   Cl    Cl    0.523063 0.709644 0.420922 -0.406680
O35   O     O_3   0.079460 0.106686 0.841305 -0.595252
H16   H     H_    0.044658 0.126149 0.892188 0.350179
O36   O     O_3   0.741229 0.200124 0.913166 -0.602459
H17   H     H_    0.699838 0.205135 0.961891 0.306196
O37   O     O_3   0.754008 0.261775 0.806406 -0.582105
H18   H     H_    0.746927 0.271860 0.760138 0.310772
O38   O     O_3   0.537623 0.695666 0.253012 -0.573508
H19   H     H_    0.440391 0.660583 0.264541 0.377132
Cl9   Cl    Cl    0.556700 0.861467 0.269859 -0.395607
Cl10  Cl    Cl    0.550029 0.813325 0.082182 -0.539006
O39   O     O_3   0.252864 0.887968 0.168963 -0.559876
H20   H     H_    0.228029 0.945387 0.175125 0.330796
O40   O     O_3   0.212176 0.736578 0.195357 -0.581668
H21   H     H_    0.309781 0.743405 0.162125 0.386969
O41   O     O_3   0.940485 0.618130 0.943235 -0.619395
H22   H     H_    0.889384 0.562273 0.933946 0.351332

loop_
_geom_bond_atom_site_label_1
_geom_bond_atom_site_label_2
_ccdc_geom_bond_type
C41   O31   S    
C43   C44   A    
C51   C52   A    
O37   H18   S    
C26   C60   S    
C49   O34   S    
C29   C30   A    
C7    C8    A    
O18   V4    S    
O38   H19   S    
O12   V3    S    
O33   H14   S    
C32   O29   S    
C45   C50   A    
C35   C37   A    
C19   C20   A    
C41   C42   A    
C14   C15   A    
C17   C18   A    
O14   C58   A    
C1    C40   S    
C24   C25   A    
C39   C44   A    
O13   V3    S    
C30   O26   S    
O5    C3    A    
C18   C19   A    
V2    O10   S    
O26   H7    S    
O30   H11   S    
C6    C7    A    
C25   C30   A    
O31   H12   S    
O32   H13   S    
O1    C2    A    
C42   C43   A    
O8    V2    S    
C51   C56   A    
O39   H20   S    
C34   O30   S    
C43   O27   S    
C11   C12   A    
C48   Cl7   S    
O1    V2    S    
O11   V4    S    
C31   C36   A    
C49   C50   A    
C1    O6    A    
C53   C54   A    
C47   C48   A    
C10   C16   S    
O9    C4    A    
C54   O36   S    
C13   C59   S    
O24   H5    S    
C28   O25   S    
C18   O22   S    
C2    C47   S    
O29   H10   S    
C38   C39   A    
C45   Cl5   S    
C38   C41   A    
C39   C40   A    
C12   C13   A    
O23   H4    S    
O12   C57   A    
O17   V3    S    
C55   C56   A    
O16   V4    S    
C13   C14   A    
C52   O35   S    
C53   C57   S    
C17   C22   A    
C46   Cl6   S    
C5    Cl1   S    
C11   Cl9   S    
C48   C49   A    
C9    O38   S    
C23   C24   A    
O2    C1    A    
C31   C32   A    
C6    Cl3   S    
C27   O24   S    
C25   C26   A    
O17   V4    S    
C35   C36   A    
O34   H15   S    
O25   H6    S    
C5    C6    A    
C37   C58   S    
C42   O32   S    
C11   C16   A    
V4    O20   S    
C3    C23   S    
C8    Cl8   S    
O3    C4    A    
C28   C29   A    
C37   C38   A    
O6    V2    S    
C19   O23   S    
O14   V3    S    
O9    V2    S    
O11   C58   A    
O2    V1    S    
C55   O37   S    
V3    O20   S    
C14   O39   S    
C32   C33   A    
O4    C2    A    
O7    V1    S    
C34   C35   A    
C44   O33   S    
C22   C26   A    
C15   O40   S    
C4    C7    S    
C24   C27   A    
O15   C59   A    
O18   C59   A    
O5    V1    S    
O8    C3    A    
O40   H21   S    
C54   C55   A    
O19   V4    S    
C5    C10   A    
C20   C21   A    
C46   C47   A    
C31   O28   S    
O4    V1    S    
O3    V1    S    
V1    O10   S    
C12   Cl10  S    
C45   C46   A    
O27   H8    S    
C21   C23   A    
C21   C22   A    
C20   Cl2   S    
C52   C53   A    
O7    V2    S    
O28   H9    S    
C17   O21   S    
O13   C60   A    
C51   H1    S    
C27   C28   A    
C33   C34   A    
C36   C40   A    
C8    C9    A    
C50   C56   S    
O21   H2    S    
O19   C60   A    
C15   C16   A    
O35   H16   S    
C57   O16   A    
O41   H22   S    
O22   H3    S    
C9    C10   A    
O15   V3    S    
C29   O41   S    
C33   Cl4   S    
O36   H17   S    
