data_mof_unit_5965.cif
_audit_creation_date              2012-12-10T19:16:05-0500
_audit_creation_method            fapswitch 2.2
_symmetry_space_group_name_H-M    P1
_symmetry_Int_Tables_number       1
_space_group_crystal_system       triclinic
_cell_length_a                    14.75129
_cell_length_b                    15.841267
_cell_length_c                    15.985379
_cell_angle_alpha                 89.704845
_cell_angle_beta                  89.610919
_cell_angle_gamma                 69.872115
_cell_volume                      3507.21720502

loop_
_atom_site_label
_atom_site_type_symbol
_atom_type_description
_atom_site_fract_x
_atom_site_fract_y
_atom_site_fract_z
_atom_type_partial_charge
C1    C     C_R   0.500254 0.499962 0.340830 0.822429
C2    C     C_R   0.499814 0.499941 0.659172 0.824253
C3    C     C_R   0.615632 0.902471 0.523055 -0.254776
C4    C     C_R   0.414355 0.083583 0.423391 -0.253023
C5    C     C_R   0.681185 0.945707 0.541527 0.079315
C6    C     C_R   0.349305 0.040369 0.403564 0.076186
C7    C     C_R   0.580559 0.504613 0.955553 -0.186467
C8    C     C_R   0.419846 0.495611 0.044463 -0.187170
C9    C     C_R   0.499883 0.500071 0.912783 0.161489
C10   C     C_R   0.500531 0.500105 0.087236 0.162391
C11   C     C_R   0.419530 0.495587 0.957177 -0.181017
C12   C     C_R   0.580888 0.504598 0.042847 -0.179943
C13   C     C_1   0.499575 0.499988 0.823330 -0.079333
C14   C     C_1   0.500787 0.500093 0.176684 -0.077884
C15   C     C_1   0.500722 0.500045 0.251736 -0.189054
C16   C     C_1   0.499469 0.499940 0.748274 -0.189610
C17   C     C_R   0.937816 0.534434 0.568852 -0.039267
C18   C     C_R   0.061049 0.468487 0.429338 -0.037326
C19   C     C_R   0.902657 0.500863 0.498679 -0.066935
C20   C     C_R   0.096561 0.501222 0.499824 -0.061787
C21   C     C_R   0.964180 0.468081 0.428511 0.052476
C22   C     C_R   0.034471 0.535518 0.569424 0.052528
C23   C     C_R   0.558354 0.327149 0.503245 0.789528
C24   C     C_R   0.441792 0.672848 0.496487 0.787839
C25   C     C_1   0.802620 0.499772 0.499430 0.157175
C26   C     C_1   0.197289 0.500454 0.499983 0.149308
C27   C     C_R   0.595110 0.228182 0.510807 -0.099611
C28   C     C_R   0.407523 0.770886 0.481474 -0.098550
C29   C     C_R   0.716406 0.086241 0.549624 -0.253923
C30   C     C_R   0.300329 0.907694 0.417902 -0.252948
C31   C     C_R   0.688108 0.179514 0.541602 -0.010172
C32   C     C_R   0.320047 0.817872 0.440462 -0.012892
C33   C     C_R   0.533721 0.181926 0.488146 -0.261926
C34   C     C_R   0.470231 0.816525 0.502096 -0.252851
C35   C     C_R   0.562086 0.087581 0.493884 0.072824
C36   C     C_R   0.454266 0.905412 0.475433 0.073319
C37   C     C_R   0.654132 0.039348 0.528200 0.116867
C38   C     C_R   0.367016 0.951771 0.432511 0.113717
C39   C     C_R   0.499064 0.041062 0.469792 0.038912
C40   C     C_R   0.522949 0.948889 0.490256 0.038370
Cu1   Cu    Cu3+1 0.589210 0.500030 0.500000 0.976140
Cu2   Cu    Cu3+1 0.410790 0.499970 0.500000 0.972760
H1    H     H_    0.531682 0.780043 0.539536 0.146843
H2    H     H_    0.461906 0.222035 0.469008 0.155693
H3    H     H_    0.787012 0.051784 0.575546 0.145965
H4    H     H_    0.232835 0.941484 0.386455 0.149072
H5    H     H_    0.640627 0.831086 0.533706 0.134984
H6    H     H_    0.398844 0.150120 0.398115 0.131567
H7    H     H_    0.643533 0.508068 0.075637 0.132013
H8    H     H_    0.356885 0.492089 0.924372 0.133210
H9    H     H_    0.642943 0.508132 0.921483 0.128530
H10   H     H_    0.357437 0.492148 0.078525 0.128233
N1    N     N_1   0.276700 0.500030 0.499980 -0.150453
N2    N     N_1   0.723300 0.499970 0.500020 -0.148452
O1    O     O_R   0.575310 0.500040 0.380310 -0.570850
O2    O     O_R   0.424690 0.499960 0.619690 -0.572631
O3    O     O_R   0.424640 0.500000 0.380310 -0.566343
O4    O     O_R   0.575360 0.500000 0.619690 -0.563174
O5    O     O_R   0.617590 0.370200 0.500000 -0.563300
O6    O     O_R   0.382410 0.629800 0.500000 -0.565894
O7    O     O_R   0.466910 0.370160 0.500000 -0.579137
O8    O     O_R   0.533090 0.629840 0.500000 -0.578226
C41   C     C_3   0.776543 0.889983 0.581094 -0.421962
C42   C     C_3   0.770518 0.900217 0.676624 -0.328184
C43   C     C_3   0.864148 0.842711 0.718289 -0.860124
H11   H     H_    0.878101 0.770391 0.706107 0.269553
H12   H     H_    0.925467 0.861524 0.694336 0.257333
H13   H     H_    0.858200 0.853663 0.786945 0.242876
H14   H     H_    0.755201 0.971566 0.694144 0.219173
H15   H     H_    0.710621 0.879393 0.701040 0.220367
H16   H     H_    0.794564 0.817935 0.565396 0.189105
H17   H     H_    0.837337 0.907895 0.554692 0.182348
C44   C     C_3   0.264222 0.090154 0.348107 -0.406460
C45   C     C_3   0.172349 0.135665 0.399618 -0.340709
C46   C     C_3   0.087370 0.182909 0.342468 -0.866217
H18   H     H_    0.071593 0.133161 0.301691 0.255053
H19   H     H_    0.022208 0.217650 0.380562 0.232624
H20   H     H_    0.103989 0.233467 0.302714 0.260981
H21   H     H_    0.153948 0.085545 0.438576 0.214258
H22   H     H_    0.184260 0.185924 0.442314 0.214909
H23   H     H_    0.280710 0.142621 0.310913 0.194669
H24   H     H_    0.252284 0.044021 0.300779 0.192588
C47   C     C_R   0.248240 0.776043 0.417164 0.125408
C48   C     C_R   0.269098 0.710209 0.354434 -0.083922
C49   C     C_R   0.199355 0.673602 0.330761 -0.113110
C50   C     C_R   0.107806 0.704057 0.368050 -0.123304
C51   C     C_R   0.085824 0.771115 0.428943 -0.169689
C52   C     C_R   0.155816 0.806826 0.453757 -0.158292
H25   H     H_    0.339192 0.687402 0.324089 0.104340
H26   H     H_    0.216100 0.622185 0.283078 0.138044
H27   H     H_    0.053550 0.676287 0.349574 0.122431
H28   H     H_    0.014705 0.795026 0.457338 0.125352
H29   H     H_    0.137984 0.858640 0.501210 0.126087
C53   C     C_R   0.755942 0.223498 0.570954 0.129936
C54   C     C_R   0.844406 0.207769 0.529351 -0.154069
C55   C     C_R   0.908805 0.248680 0.557336 -0.157501
C56   C     C_R   0.885529 0.305184 0.626919 -0.112712
C57   C     C_R   0.797918 0.320802 0.668989 -0.107235
C58   C     C_R   0.733532 0.279555 0.641612 -0.098841
H30   H     H_    0.863189 0.164213 0.475206 0.125782
H31   H     H_    0.976949 0.236492 0.525373 0.130347
H32   H     H_    0.935699 0.336509 0.648218 0.121685
H33   H     H_    0.780014 0.364662 0.722896 0.131397
H34   H     H_    0.666034 0.291733 0.674897 0.101398
C59   C     C_3   0.072192 0.574519 0.643083 -0.410165
C60   C     C_3   0.079118 0.666581 0.621368 -0.336010
C61   C     C_3   0.116487 0.705480 0.695229 -0.853470
H35   H     H_    0.067940 0.713345 0.750259 0.255616
H36   H     H_    0.190340 0.660634 0.712183 0.262254
H37   H     H_    0.119424 0.772462 0.677871 0.239566
H38   H     H_    0.129201 0.660693 0.568047 0.243728
H39   H     H_    0.006869 0.713713 0.603006 0.216219
H40   H     H_    0.026117 0.582774 0.699414 0.206259
H41   H     H_    0.144249 0.526992 0.661653 0.196221
C62   C     C_3   0.927030 0.428322 0.355119 -0.400406
C63   C     C_3   0.855315 0.501437 0.301144 -0.333370
C64   C     C_3   0.814165 0.459961 0.231563 -0.835302
H42   H     H_    0.873112 0.417756 0.190339 0.248605
H43   H     H_    0.774347 0.418057 0.258611 0.262536
H44   H     H_    0.763315 0.514222 0.193299 0.234255
H45   H     H_    0.794365 0.544847 0.339588 0.224943
H46   H     H_    0.891888 0.545110 0.272537 0.206174
H47   H     H_    0.986780 0.386941 0.314473 0.205915
H48   H     H_    0.891898 0.381276 0.379563 0.199309
C65   C     C_R   0.871276 0.568779 0.641097 0.116409
C66   C     C_R   0.886313 0.521250 0.717182 -0.182688
C67   C     C_R   0.819981 0.550737 0.782908 -0.145830
C68   C     C_R   0.737833 0.627290 0.772957 -0.101498
C69   C     C_R   0.721808 0.674419 0.697213 -0.116449
C70   C     C_R   0.788025 0.645154 0.631462 -0.137628
H49   H     H_    0.949325 0.461540 0.725512 0.115329
H50   H     H_    0.831977 0.513931 0.841409 0.121148
H51   H     H_    0.686316 0.649720 0.823739 0.119273
H52   H     H_    0.657657 0.733115 0.689123 0.117075
H53   H     H_    0.773510 0.680497 0.572267 0.104725
C71   C     C_R   0.126167 0.436773 0.355785 0.110630
C72   C     C_R   0.209368 0.359693 0.361994 -0.138942
C73   C     C_R   0.273855 0.333484 0.294626 -0.125656
C74   C     C_R   0.255537 0.383443 0.220500 -0.105623
C75   C     C_R   0.172926 0.459992 0.213730 -0.157986
C76   C     C_R   0.108705 0.486878 0.281172 -0.154242
H54   H     H_    0.225109 0.321088 0.419481 0.117550
H55   H     H_    0.338522 0.274926 0.299998 0.112298
H56   H     H_    0.305692 0.363200 0.168529 0.120455
H57   H     H_    0.159261 0.499176 0.156569 0.122649
H58   H     H_    0.046590 0.547632 0.275697 0.111403

loop_
_geom_bond_atom_site_label_1
_geom_bond_atom_site_label_2
_ccdc_geom_bond_type
C72   H54   S    
C66   C67   A    
C5    C37   A    
C18   C21   A    
Cu1   Cu2   S    
C59   C60   S    
C54   C55   A    
C21   C62   S    
C68   C69   A    
C56   C57   A    
C60   H39   S    
C49   C50   A    
C27   C33   A    
C23   O5    A    
C30   C38   A    
C63   H46   S    
C53   C58   A    
C59   H40   S    
C35   C37   A    
Cu1   O4    S    
C73   H55   S    
C64   H43   S    
Cu2   N1    S    
C25   N2    T    
C60   C61   S    
C57   H33   S    
C63   C64   S    
C5    C41   S    
C44   C45   S    
C9    C13   S    
C67   H50   S    
Cu1   O1    S    
Cu2   O2    S    
C65   C70   A    
C70   H53   S    
C43   H12   S    
C61   H35   S    
C6    C38   A    
C18   C71   S    
C1    C15   S    
C42   H15   S    
C2    C16   S    
C8    H10   S    
C18   C20   A    
C56   H32   S    
C47   C52   A    
C28   C34   A    
C45   H22   S    
C55   H31   S    
C61   H36   S    
Cu1   O8    S    
Cu2   O3    S    
C44   H23   S    
C12   H7    S    
C60   H38   S    
C7    C12   A    
C49   H26   S    
C62   H47   S    
C45   C46   S    
C27   C31   A    
C59   H41   S    
C36   C40   A    
C75   C76   A    
Cu1   O5    S    
C4    C6    A    
C10   C14   S    
C64   H44   S    
Cu2   O6    S    
C39   C40   A    
C54   H30   S    
C17   C19   A    
C41   C42   S    
C29   H3    S    
C35   C39   A    
C46   H18   S    
C71   C76   A    
C1    O3    A    
C9    C11   A    
C74   H56   S    
C47   C48   A    
C4    C39   A    
C28   C32   A    
C24   O6    A    
C43   H13   S    
C55   C56   A    
C42   H14   S    
C48   C49   A    
C46   H19   S    
Cu2   O7    S    
C10   C12   A    
C76   H58   S    
C41   H16   S    
C3    C40   A    
C57   C58   A    
C23   C27   S    
C45   H21   S    
C65   C66   A    
C61   H37   S    
C48   H25   S    
C67   C68   A    
C31   C53   S    
C26   N1    T    
C44   H24   S    
C6    C44   S    
C69   C70   A    
C4    H6    S    
C7    C9    A    
C32   C47   S    
C52   H29   S    
C24   O8    A    
C62   H48   S    
C19   C21   A    
C50   C51   A    
C33   H2    S    
C30   H4    S    
C34   H1    S    
C24   C28   S    
C20   C22   A    
C71   C72   A    
C3    C5    A    
C75   H57   S    
C74   C75   A    
C2    O4    A    
C22   C59   S    
C72   C73   A    
C64   H42   S    
C17   C22   A    
C50   H27   S    
C42   C43   S    
C36   C38   A    
C1    O1    A    
C7    H9    S    
C29   C31   A    
C11   H8    S    
C2    O2    A    
C68   H51   S    
C30   C32   A    
C17   C65   S    
C20   C26   S    
C66   H49   S    
C8    C11   A    
C3    H5    S    
C33   C35   A    
C58   H34   S    
C34   C36   A    
C53   C54   A    
C19   C25   S    
C46   H20   S    
Cu1   N2    S    
C73   C74   A    
C69   H52   S    
C23   O7    A    
C41   H17   S    
C51   C52   A    
C8    C10   A    
C43   H11   S    
C13   C16   T    
C29   C37   A    
C14   C15   T    
C63   H45   S    
C51   H28   S    
C62   C63   S    
