data_mof_unit_11908.cif
_audit_creation_date              2012-12-10T17:32:19-0500
_audit_creation_method            fapswitch 2.2
_symmetry_space_group_name_H-M    P1
_symmetry_Int_Tables_number       1
_space_group_crystal_system       triclinic
_cell_length_a                    12.317814
_cell_length_b                    13.195939
_cell_length_c                    15.062438
_cell_angle_alpha                 77.485974
_cell_angle_beta                  101.366998
_cell_angle_gamma                 116.616162
_cell_volume                      2122.79318919

loop_
_atom_site_label
_atom_site_type_symbol
_atom_type_description
_atom_site_fract_x
_atom_site_fract_y
_atom_site_fract_z
_atom_type_partial_charge
C1    C     C_R   0.854851 0.286595 0.508187 0.775725
C2    C     C_R   0.902320 0.507828 0.075829 0.108308
C3    C     C_R   0.189672 0.476253 0.081118 -0.214579
C4    C     C_R   0.189358 0.476102 0.988562 -0.214318
C5    C     C_R   0.094096 0.486552 0.924645 0.107135
C6    C     C_R   0.997950 0.496951 0.953707 0.064223
C7    C     C_R   0.901684 0.507511 0.889775 0.109251
C8    C     C_R   0.806404 0.517512 0.919365 -0.213607
C9    C     C_R   0.806750 0.517720 0.011944 -0.213747
C10   C     C_R   0.093535 0.487135 0.832037 -0.246185
C11   C     C_R   0.998376 0.498311 0.768194 -0.071770
C12   C     C_R   0.999335 0.499404 0.671224 0.811013
C13   C     C_R   0.902591 0.508192 0.797288 -0.259580
C14   C     C_R   0.275290 0.021375 0.378006 -0.189305
C15   C     C_R   0.227838 0.834498 0.467875 -0.048587
C16   C     C_R   0.815410 0.085551 0.569124 -0.187562
C17   C     C_R   0.736543 0.970785 0.587645 -0.144949
C18   C     C_R   0.613131 0.933034 0.555364 -0.181828
C19   C     C_R   0.566367 0.009605 0.500271 0.077741
C20   C     C_R   0.649914 0.123863 0.472749 0.079109
C21   C     C_R   0.439689 0.976252 0.470666 0.073408
C22   C     C_R   0.400027 0.053381 0.407776 0.167037
C23   C     C_R   0.145075 0.713386 0.486583 0.802340
C24   C     C_R   0.485383 0.160399 0.373393 -0.242156
C25   C     C_R   0.608559 0.194476 0.404121 -0.197980
C26   C     C_R   0.350806 0.868558 0.502126 -0.250692
C27   C     C_R   0.189492 0.911967 0.407429 -0.193217
C28   C     C_R   0.772983 0.163668 0.513860 -0.103433
C29   C     C_R   0.346098 0.328239 0.646613 -0.271257
C30   C     C_R   0.758850 0.645097 0.375785 0.074806
C31   C     C_R   0.661922 0.676362 0.349159 -0.259559
C32   C     C_R   0.558814 0.621445 0.396042 -0.182436
C33   C     C_R   0.551270 0.533926 0.470767 -0.009413
C34   C     C_R   0.000135 0.499824 0.328825 0.807673
C35   C     C_R   0.653140 0.505085 0.495566 0.265261
C36   C     C_R   0.447173 0.474377 0.521704 -0.088498
C37   C     C_R   0.447079 0.387209 0.596151 0.173252
C38   C     C_R   0.547662 0.360099 0.619477 0.072754
C39   C     C_R   0.647951 0.418595 0.570029 -0.249422
C40   C     C_R   0.342176 0.497354 0.502192 0.030564
C41   C     C_R   0.246512 0.355251 0.623881 0.040649
C42   C     C_R   0.903710 0.508639 0.168341 -0.252098
C43   C     C_R   0.999620 0.498707 0.232020 -0.071899
C44   C     C_R   0.094659 0.487594 0.202976 -0.246205
C45   C     C_R   0.094712 0.486832 0.110646 0.108033
C46   C     C_R   0.998269 0.497102 0.046770 0.062814
Cu1   Cu    Cu3+1 0.098270 0.475420 0.521130 0.933908
Cu2   Cu    Cu3+1 0.901730 0.524580 0.478870 0.921743
H1    H     H_    0.829816 0.516764 0.190612 0.154315
H2    H     H_    0.456884 0.218132 0.322274 0.143911
H3    H     H_    0.244580 0.079834 0.329874 0.134184
H4    H     H_    0.374578 0.808208 0.552728 0.147803
H5    H     H_    0.909435 0.113628 0.600084 0.152544
H6    H     H_    0.557659 0.842873 0.573144 0.129584
H7    H     H_    0.770570 0.911109 0.629749 0.143104
H8    H     H_    0.670721 0.275777 0.371214 0.175917
H9    H     H_    0.168798 0.309916 0.662621 0.124584
H10   H     H_    0.343481 0.261436 0.703604 0.174269
H11   H     H_    0.168970 0.480102 0.252013 0.153886
H12   H     H_    0.334347 0.561753 0.446967 0.122598
H13   H     H_    0.838522 0.688237 0.339071 0.122553
H14   H     H_    0.486743 0.649309 0.372328 0.133854
H15   H     H_    0.666718 0.743447 0.291968 0.144610
H16   H     H_    0.720244 0.392807 0.593168 0.212005
H17   H     H_    0.264165 0.468290 0.129553 0.142104
H18   H     H_    0.263635 0.468029 0.966934 0.141826
H19   H     H_    0.167740 0.479499 0.809788 0.156209
H20   H     H_    0.828653 0.516289 0.748151 0.156967
H21   H     H_    0.731889 0.525413 0.870917 0.145519
H22   H     H_    0.732488 0.525815 0.033572 0.141436
H23   H     H_    0.094332 0.886516 0.380083 0.148224
N1    N     N_R   0.246280 0.438190 0.553160 -0.177671
N2    N     N_R   0.754320 0.561190 0.447410 -0.199523
O1    O     O_R   0.972510 0.318130 0.526570 -0.578169
O2    O     O_R   0.806530 0.359650 0.490890 -0.605190
O3    O     O_R   0.082980 0.479210 0.647590 -0.586928
O4    O     O_R   0.917000 0.520730 0.611900 -0.601378
O5    O     O_R   0.193470 0.640350 0.509110 -0.587700
O6    O     O_R   0.027490 0.681870 0.473430 -0.584970
O7    O     O_R   0.083000 0.479270 0.388100 -0.586688
O8    O     O_R   0.917020 0.520790 0.352410 -0.599090
N3    N     N_3   0.548944 0.272203 0.694337 -0.606753
H24   H     H_    0.560502 0.210196 0.669140 0.231067
H25   H     H_    0.624681 0.308730 0.741620 0.218517

loop_
_geom_bond_atom_site_label_1
_geom_bond_atom_site_label_2
_ccdc_geom_bond_type
C16   C28   A    
C21   C26   A    
C40   H12   S    
C19   C20   A    
C25   H8    S    
C7    C8    A    
C10   H19   S    
C2    C46   A    
C39   H16   S    
C8    H21   S    
C1    O1    A    
Cu2   O6    S    
C36   C37   A    
C19   C21   A    
Cu1   O3    S    
C5    C6    A    
C20   C25   A    
C44   H11   S    
C33   C36   A    
Cu2   O8    S    
C18   C19   A    
C16   H5    S    
C34   O7    A    
Cu1   Cu2   S    
C8    C9    A    
C1    C28   S    
C34   O8    A    
C14   C27   A    
C40   N1    A    
C17   H7    S    
C15   C23   S    
C21   C22   A    
C38   N3    S    
Cu2   O2    S    
C3    H17   S    
Cu1   O7    S    
C24   H2    S    
C38   C39   A    
C1    O2    A    
C31   H15   S    
C36   C40   A    
C24   C25   A    
C30   N2    A    
C16   C17   A    
C15   C26   A    
C20   C28   A    
C45   C46   A    
C3    C45   A    
Cu2   O4    S    
C35   C39   A    
C43   C44   A    
C37   C38   A    
C26   H4    S    
C15   C27   A    
C14   H3    S    
C12   O4    A    
C17   C18   A    
C9    H22   S    
C41   N1    A    
N3    H25   S    
C12   O3    A    
C22   C24   A    
C42   C43   A    
C3    C4    A    
C27   H23   S    
C44   C45   A    
C35   N2    A    
C6    C46   A    
C29   C41   A    
Cu2   N2    S    
C31   C32   A    
C34   C43   S    
Cu1   O1    S    
C4    C5    A    
C11   C12   S    
C6    C7    A    
C32   C33   A    
C14   C22   A    
C41   H9    S    
C5    C10   A    
C4    H18   S    
C11   C13   A    
C30   C31   A    
C2    C42   A    
C33   C35   A    
C23   O5    A    
Cu1   N1    S    
C10   C11   A    
C18   H6    S    
C42   H1    S    
C32   H14   S    
C7    C13   A    
C29   H10   S    
N3    H24   S    
C30   H13   S    
C29   C37   A    
Cu1   O5    S    
C23   O6    A    
C2    C9    A    
C13   H20   S    
