data_mof_unit_32167.cif
_audit_creation_date              2013-03-05T15:44:32-0500
_audit_creation_method            fapswitch 2.2
_symmetry_space_group_name_H-M    P1
_symmetry_Int_Tables_number       1
_space_group_crystal_system       triclinic
_cell_length_a                    27.77067
_cell_length_b                    10.928097
_cell_length_c                    9.681192
_cell_angle_alpha                 90.062073
_cell_angle_beta                  90.406809
_cell_angle_gamma                 90.117392
_cell_volume                      2937.9717257

loop_
_atom_site_label
_atom_site_type_symbol
_atom_site_description
_atom_site_fract_x
_atom_site_fract_y
_atom_site_fract_z
_atom_type_partial_charge
O1    O     O_R   0.500010 0.321960 0.617040 -0.576551
O2    O     O_R   0.499990 0.321920 0.382900 -0.575985
C1    C     C_R   0.499370 0.265314 0.499989 0.852609
O3    O     O_R   0.430270 0.500040 0.617060 -0.578548
O4    O     O_R   0.430260 0.500000 0.382910 -0.578680
C2    C     C_R   0.407402 0.499601 0.499395 0.802515
Cu1   Cu    Cu3+1 0.500010 0.500020 0.638630 0.948286
Cu2   Cu    Cu3+1 0.499990 0.499980 0.361370 0.944850
O5    O     O_R   0.500010 0.678080 0.617100 -0.577825
O6    O     O_R   0.499990 0.678040 0.382960 -0.574846
O7    O     O_R   0.569740 0.500000 0.617090 -0.578596
O8    O     O_R   0.569730 0.499960 0.382940 -0.583633
C3    C     C_R   0.500628 0.734703 0.500152 0.858669
C4    C     C_R   0.592574 0.500208 0.500532 0.816939
C5    C     C_R   0.177528 0.390896 0.534842 0.539858
O9    O     O_2   0.202446 0.296817 0.590226 -0.533147
N1    N     N_R   0.201507 0.490032 0.483906 -0.473197
C6    C     C_R   0.177420 0.585702 0.424304 0.575415
C7    C     C_R   0.279411 0.490584 0.366105 -0.094791
C8    C     C_R   0.329533 0.493254 0.369750 -0.209687
C9    C     C_R   0.327933 0.499542 0.620179 -0.214034
C10   C     C_R   0.277653 0.497046 0.616226 -0.088917
C11   C     C_R   0.253214 0.492517 0.489096 0.342277
C12   C     C_R   0.101428 0.482984 0.466923 -0.063329
C13   C     C_R   0.127140 0.386590 0.530024 -0.008410
C14   C     C_R   0.102170 0.288085 0.587630 -0.134836
C15   C     C_R   0.126762 0.581011 0.405713 -0.043921
C16   C     C_R   0.354329 0.497724 0.496798 -0.043345
H1    H     H_    0.346067 0.502961 0.719517 0.160829
H2    H     H_    0.257659 0.499005 0.711813 0.153307
H3    H     H_    0.121185 0.213182 0.636729 0.190142
C17   C     C_R   0.645631 0.500743 0.502408 -0.060679
C18   C     C_R   0.974122 0.380781 0.524841 0.045114
C19   C     C_R   0.974949 0.592627 0.441917 0.034992
C20   C     C_R   0.949282 0.489668 0.489549 0.066717
C21   C     C_R   0.946864 0.276389 0.560493 -0.180372
C22   C     C_R   0.896935 0.280997 0.566521 -0.116928
C23   C     C_R   0.872412 0.389985 0.538599 -0.013897
C24   C     C_R   0.898485 0.495814 0.502061 -0.039172
C25   C     C_R   0.873823 0.607243 0.477756 -0.097524
C26   C     C_R   0.822848 0.604637 0.475526 0.573929
N2    N     N_R   0.798543 0.500301 0.510505 -0.438257
C27   C     C_R   0.822121 0.394956 0.544411 0.571577
C28   C     C_R   0.722083 0.465567 0.385857 0.103596
C29   C     C_R   0.671424 0.467589 0.384373 -0.205805
C30   C     C_R   0.670522 0.534047 0.622980 -0.313965
C31   C     C_R   0.720827 0.535725 0.627341 0.027011
C32   C     C_R   0.746778 0.500614 0.508286 0.318915
O10   O     O_2   0.796763 0.294881 0.581492 -0.544767
C33   C     C_R   0.025271 0.381062 0.525821 0.056855
C34   C     C_R   0.050426 0.481864 0.467566 0.058933
C35   C     C_R   0.024802 0.582158 0.411806 0.034073
C36   C     C_R   0.052214 0.285052 0.585505 -0.198574
H4    H     H_    0.651498 0.441973 0.292542 0.152890
H5    H     H_    0.877581 0.198194 0.593052 0.196079
H6    H     H_    0.963080 0.188540 0.580373 0.151639
H7    H     H_    0.035653 0.208339 0.636635 0.144544
O11   O     O_2   0.202489 0.686309 0.387871 -0.499056
C37   C     C_R   0.100800 0.668896 0.326835 -0.082320
H8    H     H_    0.348803 0.491446 0.272909 0.161878
H9    H     H_    0.260813 0.486650 0.267485 0.155120
C38   C     C_R   0.950982 0.705823 0.436425 -0.111845
C39   C     C_R   0.901169 0.715277 0.455099 0.005588
O12   O     O_2   0.797450 0.703216 0.434387 -0.556307
C40   C     C_R   0.049805 0.666844 0.326205 -0.116939
H10   H     H_    0.971605 0.789213 0.424323 0.160664
H11   H     H_    0.650576 0.560567 0.714075 0.152756
C41   C     C_2   0.498874 0.932911 0.386586 -0.145765
C42   C     C_2   0.503121 0.866713 0.502440 -0.309601
H12   H     H_    0.494391 0.888040 0.287118 0.168759
H13   H     H_    0.509571 0.907883 0.602547 0.148187
C43   C     C_2   0.501027 0.066887 0.386517 -0.151468
C44   C     C_2   0.496837 0.133343 0.502141 -0.309974
H14   H     H_    0.505464 0.111526 0.287181 0.167138
H15   H     H_    0.490415 0.092391 0.602016 0.148951
C45   C     C_2   0.471436 0.431388 0.921417 -0.060103
N3    N     N_2   0.499480 0.498660 0.846910 -0.280691
H16   H     H_    0.445787 0.371913 0.869311 0.152620
H17   H     H_    0.524707 0.553156 0.894513 0.190633
C46   C     C_2   0.472248 0.429215 0.077243 -0.069145
N4    N     N_2   0.499460 0.498630 0.153040 -0.282728
H18   H     H_    0.448147 0.365700 0.128197 0.151836
H19   H     H_    0.521589 0.561220 0.106552 0.192498
C47   C     C_2   0.125915 0.755097 0.232845 0.473985
H20   H     H_    0.117337 0.851875 0.234966 0.038385
O13   O     O_2   0.154862 0.717426 0.148552 -0.494118
C48   C     C_2   0.880109 0.840126 0.460840 0.438431
H21   H     H_    0.848780 0.858651 0.523518 0.129526
O14   O     O_2   0.898519 0.925083 0.398427 -0.544444
C49   C     C_2   0.744394 0.575039 0.758486 0.376577
H22   H     H_    0.722375 0.598827 0.846726 0.062882
O15   O     O_2   0.788074 0.581876 0.770818 -0.536910
C50   C     C_2   0.023608 0.738616 0.218262 0.379259
H23   H     H_    0.035756 0.829256 0.189159 0.054435
O16   O     O_2   0.988908 0.694890 0.157543 -0.492449
C51   C     C_3   0.751284 0.426225 0.260641 -0.379014
C52   C     C_3   0.722178 0.388701 0.131708 -0.411173
C53   C     C_3   0.755393 0.346393 0.016165 -0.740258
H24   H     H_    0.781786 0.419239 0.990683 0.281325
H25   H     H_    0.775177 0.262716 0.048098 0.262004
H26   H     H_    0.733742 0.325042 0.922274 0.247640
H27   H     H_    0.697453 0.311981 0.157198 0.232081
H28   H     H_    0.700781 0.467931 0.093925 0.220122
H29   H     H_    0.775549 0.502938 0.231765 0.220985
H30   H     H_    0.774130 0.347323 0.291501 0.219700

loop_
_geom_bond_atom_site_label_1
_geom_bond_atom_site_label_2
_geom_bond_distance
_ccdc_geom_bond_type
C51   H30   1.111468 S    
C50   H23   1.083935 S    
C17   C29   1.400687 A    
C20   C24   1.418433 A    
C7    C8    1.392377 A    
C12   C15   1.413476 A    
C48   H21   1.083548 S    
C52   C53   1.526804 S    
Cu1   Cu2   2.684203 S    
Cu1   O7    1.949114 S    
N1    C11   1.436655 S    
C25   C39   1.420526 A    
C28   C51   1.525193 S    
C45   H16   1.084676 S    
C21   C22   1.389225 A    
C47   O13   1.221287 D    
C23   C24   1.409970 A    
C46   N4    1.293648 D    
O7    C4    1.298311 A    
C5    C13   1.400447 A    
C5    O9    1.349879 S    
C19   C38   1.406781 A    
C18   C21   1.412312 A    
C5    N1    1.364977 A    
C19   C20   1.410378 A    
C26   N2    1.367929 A    
C42   H13   1.081670 S    
O5    C3    1.291050 A    
C47   H20   1.084780 S    
C6    O11   1.348712 S    
C2    C16   1.473998 S    
C41   C42   1.339958 D    
C8    H8    1.082988 S    
C52   H27   1.111657 S    
C41   C43   1.465205 S    
Cu1   N3    2.016627 S    
C12   C34   1.416451 A    
C40   C50   1.493258 S    
C14   H3    1.083441 S    
C50   O16   1.221450 D    
C9    C10   1.396794 A    
C44   H15   1.081693 S    
O3    Cu1   1.946481 S    
N4    H19   1.025146 S    
C33   C34   1.422429 A    
N3    H17   1.025158 S    
C33   C36   1.411708 A    
C38   H10   1.082233 S    
C34   C35   1.413539 A    
C12   C13   1.411017 A    
C43   H14   1.086489 S    
C24   C25   1.417390 A    
C36   H7    1.077907 S    
C27   O10   1.349844 S    
C8    C16   1.406098 A    
C18   C33   1.420409 A    
C9    H1    1.082987 S    
Cu2   N4    2.016870 S    
O1    C1    1.290659 A    
C7    C11   1.399919 A    
C22   C23   1.398854 A    
C21   H6    1.078152 S    
C49   O15   1.220150 D    
C31   C32   1.416699 A    
Cu2   O8    1.946475 S    
C51   C52   1.537131 S    
C38   C39   1.400392 A    
N1    C6    1.368262 A    
N2    C32   1.437571 S    
C45   N3    1.293863 D    
C52   H28   1.111870 S    
C46   H18   1.084733 S    
C25   C26   1.415855 A    
C9    C16   1.406040 A    
O8    C4    1.299318 A    
C29   H4    1.080173 S    
C53   H25   1.110806 S    
C51   H29   1.111712 S    
C31   C49   1.486864 S    
O3    C2    1.300255 A    
N2    C27   1.364782 A    
C14   C36   1.387660 A    
C28   C29   1.407039 A    
Cu1   O5    1.957214 S    
C30   C31   1.397418 A    
C10   H2    1.082771 S    
C39   C48   1.486672 S    
O1    Cu1   1.956826 S    
C17   C30   1.399796 A    
O2    Cu2   1.957214 S    
C6    C15   1.417823 A    
C45   C46   1.508797 S    
C4    C17   1.473405 S    
C43   C44   1.339546 D    
O6    C3    1.291940 A    
O4    Cu2   1.949117 S    
C53   H26   1.110591 S    
C19   C35   1.421647 A    
C37   C47   1.486611 S    
C48   O14   1.221517 D    
O2    C1    1.292154 A    
C13   C14   1.397989 A    
C30   H11   1.084270 S    
C15   C37   1.421953 A    
C37   C40   1.416272 A    
C49   H22   1.085757 S    
O4    C2    1.298023 A    
C3    C42   1.444275 S    
C7    H9    1.083029 S    
C18   C20   1.417543 A    
C1    C44   1.443945 S    
C22   H5    1.083567 S    
C23   C27   1.399322 A    
Cu2   O6    1.956825 S    
C53   H24   1.110139 S    
C41   H12   1.086410 S    
C10   C11   1.402043 A    
C26   O12   1.347850 S    
C35   C40   1.425675 A    
C28   C32   1.417122 A    
