data_mof_unit_35255.cif
_audit_creation_date              2012-12-10T18:04:36-0500
_audit_creation_method            fapswitch 2.2
_symmetry_space_group_name_H-M    P1
_symmetry_Int_Tables_number       1
_space_group_crystal_system       triclinic
_cell_length_a                    10.833069
_cell_length_b                    9.681587
_cell_length_c                    16.009418
_cell_angle_alpha                 90.000353
_cell_angle_beta                  94.940466
_cell_angle_gamma                 90.000036
_cell_volume                      1672.85028909

loop_
_atom_site_label
_atom_site_type_symbol
_atom_type_description
_atom_site_fract_x
_atom_site_fract_y
_atom_site_fract_z
_atom_type_partial_charge
C1    C     C_R   0.871616 0.500000 0.500292 -0.010738
C2    C     C_R   0.128384 0.500000 0.499708 -0.010738
C3    C     C_R   0.262483 0.500000 0.499654 0.768058
C4    C     C_R   0.737517 0.500000 0.500346 0.768058
C5    C     C_R   0.499271 0.499999 0.341679 0.813244
C6    C     C_R   0.500729 0.500000 0.658321 0.813244
C7    C     C_R   0.500630 0.627280 0.955861 0.135183
C8    C     C_R   0.499370 0.372720 0.044139 0.135182
C9    C     C_R   0.499240 0.627278 0.044133 0.135183
C10   C     C_R   0.500760 0.372722 0.955867 0.135183
C11   C     C_R   0.501140 0.500001 0.912305 0.047413
C12   C     C_R   0.498860 0.499999 0.087695 0.047413
C13   C     C_1   0.501272 0.500002 0.822309 -0.013418
C14   C     C_1   0.498728 0.499998 0.177691 -0.013418
C15   C     C_1   0.498890 0.499999 0.252696 -0.190076
C16   C     C_1   0.501110 0.500001 0.747304 -0.190075
C17   C     C_R   0.419291 0.074142 0.445200 0.237337
C18   C     C_R   0.580709 0.925858 0.554799 0.237337
C19   C     C_R   0.580709 0.074143 0.554800 0.237349
C20   C     C_R   0.419291 0.925857 0.445200 0.237349
C21   C     C_R   0.063876 0.374527 0.499872 -0.186478
C22   C     C_R   0.936124 0.625473 0.500128 -0.186478
C23   C     C_R   0.936131 0.374527 0.500178 -0.186484
C24   C     C_R   0.063869 0.625473 0.499821 -0.186484
Cu1   Cu    Cu3+1 0.500000 0.640660 0.500000 0.931930
Cu2   Cu    Cu3+1 0.500000 0.359340 0.500000 0.931930
H1    H     H_    0.111781 0.276339 0.499836 0.154055
H2    H     H_    0.888219 0.723661 0.500164 0.154055
H3    H     H_    0.888231 0.276339 0.500257 0.154047
H4    H     H_    0.111769 0.723661 0.499743 0.154047
N1    N     N_R   0.500000 0.852070 0.500000 -0.189776
N2    N     N_R   0.500000 0.147930 0.500000 -0.189776
O1    O     O_R   0.319640 0.618740 0.499990 -0.589413
O2    O     O_R   0.680360 0.381260 0.500010 -0.589413
O3    O     O_R   0.680360 0.618740 0.500010 -0.589416
O4    O     O_R   0.319640 0.381260 0.499990 -0.589416
O5    O     O_R   0.499970 0.618750 0.380310 -0.576551
O6    O     O_R   0.500030 0.381250 0.619690 -0.576551
O7    O     O_R   0.500030 0.618750 0.619690 -0.576552
O8    O     O_R   0.499970 0.381250 0.380310 -0.576552
C25   C     C_3   0.327152 0.145767 0.382491 -0.775105
H5    H     H_    0.326769 0.257513 0.382848 0.272536
H6    H     H_    0.345585 0.116853 0.317670 0.200981
H7    H     H_    0.231224 0.116093 0.394090 0.191001
C26   C     C_3   0.672848 0.854233 0.617509 -0.775105
H8    H     H_    0.673231 0.742487 0.617152 0.272536
H9    H     H_    0.768776 0.883907 0.605910 0.191001
H10   H     H_    0.654415 0.883147 0.682330 0.200981
C27   C     C_3   0.672842 0.145769 0.617513 -0.775124
H11   H     H_    0.673233 0.257515 0.617151 0.272533
H12   H     H_    0.654397 0.116864 0.682333 0.200983
H13   H     H_    0.768772 0.116087 0.605923 0.190993
C28   C     C_3   0.327158 0.854231 0.382487 -0.775124
H14   H     H_    0.326767 0.742485 0.382849 0.272533
H15   H     H_    0.231228 0.883913 0.394077 0.190993
H16   H     H_    0.345603 0.883136 0.317667 0.200983
C29   C     C_3   0.498130 0.764468 0.090568 -0.839201
H17   H     H_    0.496221 0.754461 0.159322 0.235749
H18   H     H_    0.582437 0.824657 0.079656 0.232095
H19   H     H_    0.414748 0.824775 0.067939 0.229507
C30   C     C_3   0.501870 0.235532 0.909432 -0.839201
H20   H     H_    0.503779 0.245538 0.840678 0.235749
H21   H     H_    0.585252 0.175225 0.932061 0.229507
H22   H     H_    0.417563 0.175343 0.920344 0.232095
C31   C     C_3   0.501599 0.764473 0.909419 -0.839204
H23   H     H_    0.503533 0.754473 0.840666 0.235754
H24   H     H_    0.417225 0.824544 0.920322 0.232089
H25   H     H_    0.584910 0.824891 0.932051 0.229516
C32   C     C_3   0.498401 0.235527 0.090581 -0.839203
H26   H     H_    0.496467 0.245527 0.159333 0.235754
H27   H     H_    0.415090 0.175109 0.067949 0.229516
H28   H     H_    0.582775 0.175456 0.079678 0.232089

loop_
_geom_bond_atom_site_label_1
_geom_bond_atom_site_label_2
_ccdc_geom_bond_type
Cu1   N1    S    
C32   H28   S    
C6    O6    A    
Cu2   N2    S    
C5    O5    A    
C7    C31   S    
C11   C13   S    
C25   H5    S    
C19   C27   S    
C8    C12   A    
C31   H25   S    
C1    C4    S    
C2    C21   A    
C26   H9    S    
C2    C3    S    
C21   H1    S    
C4    O3    A    
C1    C22   A    
C22   H2    S    
C26   H8    S    
Cu1   O7    S    
C30   H22   S    
C7    C11   A    
C25   H6    S    
Cu2   O8    S    
C29   H17   S    
C30   H20   S    
C3    O4    A    
Cu1   O3    S    
C19   N2    A    
C23   H3    S    
Cu2   O4    S    
C9    C12   A    
C28   H14   S    
C12   C14   S    
C31   H23   S    
C1    C23   A    
C9    C29   S    
C28   H15   S    
C4    O2    A    
C2    C24   A    
C32   H26   S    
C29   H18   S    
C25   H7    S    
C22   C24   A    
C5    O8    A    
C17   C25   S    
C5    C15   S    
C10   C11   A    
C3    O1    A    
C24   H4    S    
C6    C16   S    
C10   C30   S    
C18   C26   S    
C7    C9    A    
C17   C20   A    
C32   H27   S    
C27   H11   S    
C13   C16   T    
C28   H16   S    
C30   H21   S    
C17   N2    A    
C8    C32   S    
C6    O7    A    
C18   C19   A    
C29   H19   S    
C18   N1    A    
C26   H10   S    
Cu1   O5    S    
Cu1   Cu2   S    
C14   C15   T    
C21   C23   A    
Cu2   O2    S    
C8    C10   A    
Cu2   O6    S    
C31   H24   S    
C27   H13   S    
Cu1   O1    S    
C20   C28   S    
C27   H12   S    
C20   N1    A    
