data_mof_unit_67524.cif
_audit_creation_date              2012-12-10T16:47:27-0500
_audit_creation_method            fapswitch 2.2
_symmetry_space_group_name_H-M    P1
_symmetry_Int_Tables_number       1
_space_group_crystal_system       triclinic
_cell_length_a                    10.749613
_cell_length_b                    8.778088
_cell_length_c                    7.571497
_cell_angle_alpha                 102.099993
_cell_angle_beta                  90.562675
_cell_angle_gamma                 93.901571
_cell_volume                      696.750102204

loop_
_atom_site_label
_atom_site_type_symbol
_atom_type_description
_atom_site_fract_x
_atom_site_fract_y
_atom_site_fract_z
_atom_type_partial_charge
C1    C     C_R   0.497450 0.200984 0.454413 0.835006
C2    C     C_R   0.511679 0.799085 0.544341 0.824834
C3    C     C_R   0.260035 0.497677 0.506830 0.774190
C4    C     C_R   0.739556 0.502556 0.492810 0.782324
C5    C     C_3   0.025784 0.443536 0.640051 0.289764
C6    C     C_3   0.972200 0.564294 0.357455 0.275343
C7    C     C_3   0.949150 0.359401 0.473218 0.251092
C8    C     C_3   0.049280 0.649200 0.522894 0.275384
C9    C     C_3   0.875780 0.503483 0.479082 -0.177890
C10   C     C_3   0.123378 0.504357 0.519015 -0.152197
C11   C     C_3   0.953093 0.590869 0.648295 -0.314920
C12   C     C_3   0.045264 0.417440 0.348139 -0.324194
C13   C     C_2   0.496926 0.033470 0.429404 -0.378077
C14   C     C_2   0.520030 0.967184 0.567978 -0.353007
Cu1   Cu    Cu3+1 0.514140 0.517380 0.684380 1.011351
Cu2   Cu    Cu3+1 0.485860 0.482620 0.315620 0.994156
H1    H     H_    0.908056 0.666170 0.761442 0.135216
H2    H     H_    0.086731 0.345687 0.228224 0.168075
H3    H     H_    0.474946 0.963646 0.294958 0.202625
H4    H     H_    0.541525 0.036966 0.702506 0.180635
N1    N     N_2   0.464560 0.456420 0.038510 0.120367
N2    N     N_2   0.535440 0.543580 0.961490 0.119778
O1    O     O_R   0.509190 0.286130 0.619780 -0.538585
O2    O     O_R   0.490810 0.713870 0.380220 -0.518772
O3    O     O_R   0.485310 0.256770 0.308360 -0.656937
O4    O     O_R   0.514690 0.743230 0.691640 -0.611181
O5    O     O_R   0.328790 0.514640 0.655680 -0.537142
O6    O     O_R   0.671210 0.485360 0.344320 -0.580565
O7    O     O_R   0.304910 0.485280 0.344260 -0.609404
O8    O     O_R   0.695090 0.514720 0.655740 -0.628825
N3    N     N_2   0.893460 0.201677 0.440887 -0.428157
H5    H     H_    0.819337 0.182333 0.349827 0.250855
C15   C     C_3   0.982470 0.084224 0.402299 -0.720319
H6    H     H_    0.937515 0.971058 0.418654 0.269886
H7    H     H_    0.063815 0.114725 0.497470 0.247241
H8    H     H_    0.015509 0.073907 0.262025 0.211700
N4    N     N_2   0.094628 0.811259 0.553203 -0.454151
H9    H     H_    0.074222 0.876331 0.678025 0.250533
C16   C     C_3   0.219976 0.841491 0.498305 -0.698606
H10   H     H_    0.284203 0.828511 0.607352 0.237715
H11   H     H_    0.231777 0.960316 0.470700 0.214236
H12   H     H_    0.242485 0.760350 0.372192 0.257690
N5    N     N_2   0.049849 0.381791 0.798337 -0.423630
H13   H     H_    0.136701 0.340691 0.800890 0.285722
C17   C     C_3   0.949017 0.282717 0.849627 -0.690721
H14   H     H_    0.961507 0.274209 0.991766 0.208441
H15   H     H_    0.948505 0.162466 0.767396 0.243874
H16   H     H_    0.857381 0.330808 0.834733 0.250464
N6    N     N_2   0.945106 0.622886 0.198382 -0.429815
H17   H     H_    0.897834 0.536935 0.104164 0.263794
C18   C     C_3   0.051450 0.694683 0.123271 -0.639611
H18   H     H_    0.079209 0.810004 0.208295 0.246958
H19   H     H_    0.026780 0.719333 0.991898 0.208594
H20   H     H_    0.130322 0.617737 0.105340 0.261064
O9    O     O_3   0.381282 0.360637 0.925346 -0.481104
C19   C     C_3   0.357482 0.224293 0.992133 0.189584
H21   H     H_    0.310982 0.249525 0.123497 0.184559
H22   H     H_    0.445949 0.166261 0.997297 0.158787
C20   C     C_3   0.268757 0.108842 0.867256 -0.974722
H23   H     H_    0.283762 0.121571 0.726774 0.281874
H24   H     H_    0.285786 0.988896 0.882350 0.234935
H25   H     H_    0.170620 0.127849 0.903835 0.232472
O10   O     O_3   0.575060 0.680035 0.070289 -0.470800
C21   C     C_3   0.689945 0.730757 0.008602 0.190258
H26   H     H_    0.680315 0.775851 0.884687 0.164036
H27   H     H_    0.753087 0.635121 0.982514 0.138639
C22   C     C_3   0.748238 0.864775 0.150366 -0.855008
H28   H     H_    0.756387 0.828389 0.281638 0.273587
H29   H     H_    0.841699 0.900591 0.105941 0.215605
H30   H     H_    0.689585 0.965787 0.166414 0.235099

loop_
_geom_bond_atom_site_label_1
_geom_bond_atom_site_label_2
_ccdc_geom_bond_type
Cu2   O6    S    
N2    O10   S    
O9    C19   S    
N3    C15   S    
C1    O1    A    
Cu2   N1    S    
Cu2   O3    S    
C14   H4    S    
C9    C11   S    
Cu1   O5    S    
N3    H5    S    
C19   C20   S    
N5    H13   S    
C22   H30   S    
C21   H26   S    
C18   H20   S    
C6    C9    S    
C3    O5    A    
C15   H6    S    
C4    C9    S    
Cu1   N2    S    
C20   H23   S    
C2    O4    A    
C3    C10   S    
C17   H14   S    
C1    O3    A    
N5    C17   S    
C3    O7    A    
C18   H18   S    
N4    H9    S    
C10   C12   S    
C8    C11   S    
C6    C12   S    
Cu1   O1    S    
C15   H7    S    
C19   H22   S    
N1    N2    D    
C5    C11   S    
C16   H12   S    
C5    C7    S    
C17   H15   S    
C6    N6    S    
C2    O2    A    
C7    C12   S    
C2    C14   S    
C4    O8    A    
C20   H24   S    
C1    C13   S    
C8    N4    S    
C13   H3    S    
C18   H19   S    
C5    C10   S    
Cu1   Cu2   S    
C21   C22   S    
C7    C9    S    
N4    C16   S    
C15   H8    S    
C7    N3    S    
C19   H21   S    
C16   H11   S    
Cu1   O8    S    
Cu2   O2    S    
N6    H17   S    
C4    O6    A    
C17   H16   S    
C12   H2    S    
C16   H10   S    
N1    O9    S    
C5    N5    S    
Cu1   O4    S    
C6    C8    S    
C20   H25   S    
N6    C18   S    
Cu2   O7    S    
C13   C14   D    
C8    C10   S    
C11   H1    S    
C22   H28   S    
O10   C21   S    
C22   H29   S    
C21   H27   S    
