data_mof_unit_45602.cif
_audit_creation_date              2012-12-11T15:14:53-0500
_audit_creation_method            fapswitch 2.2
_symmetry_space_group_name_H-M    P1
_symmetry_Int_Tables_number       1
_space_group_crystal_system       triclinic
_cell_length_a                    11.135005
_cell_length_b                    11.075147
_cell_length_c                    18.45899
_cell_angle_alpha                 90.163124
_cell_angle_beta                  90.069639
_cell_angle_gamma                 120.423224
_cell_volume                      1962.93847582

loop_
_atom_site_label
_atom_site_type_symbol
_atom_type_description
_atom_site_fract_x
_atom_site_fract_y
_atom_site_fract_z
_atom_type_partial_charge
C1    C     C_R   0.519676 0.455516 0.644412 0.629408
C2    C     C_R   0.459038 0.519617 0.354367 0.553676
C3    C     C_R   0.478398 0.933558 0.144154 0.537658
C4    C     C_R   0.061233 0.540948 0.354632 0.543299
C5    C     C_3   0.374136 0.960379 0.482059 0.365081
C6    C     C_3   0.613171 0.585122 0.033055 0.393046
C7    C     C_3   0.996716 0.385952 0.478768 0.383567
C8    C     C_3   0.372992 0.955358 0.017375 0.377873
C9    C     C_3   0.623729 0.590759 0.475102 0.377379
C10   C     C_3   0.974970 0.377646 0.023063 0.389476
C11   C     C_3   0.082420 0.469861 0.966847 0.404210
C12   C     C_R   0.936749 0.481133 0.855273 0.613196
C13   C     C_3   0.541503 0.616465 0.533174 0.425686
C14   C     C_3   0.419845 0.884613 0.961716 0.366681
C15   C     C_3   0.096029 0.490797 0.534693 0.408667
C16   C     C_3   0.556725 0.606253 0.961671 0.437469
C17   C     C_3   0.420590 0.886776 0.535934 0.390582
C18   C     C_3   0.475598 0.102613 0.515883 -0.176222
C19   C     C_3   0.580288 0.438852 0.007670 -0.228944
C20   C     C_3   0.874207 0.389938 0.514139 -0.205053
C21   C     C_3   0.473378 0.099431 0.985579 -0.176097
C22   C     C_3   0.588787 0.452128 0.511584 -0.211123
C23   C     C_R   0.544783 0.064559 0.644479 0.617522
C24   C     C_3   0.865217 0.401164 0.985949 -0.209212
C25   C     C_3   0.126820 0.600769 0.014547 -0.081027
C26   C     C_3   0.407982 0.538690 0.486935 -0.070246
C27   C     C_3   0.535212 0.899510 0.013694 -0.112671
C28   C     C_3   0.120969 0.613348 0.485334 -0.063721
C29   C     C_3   0.410913 0.543860 0.994676 -0.112777
C30   C     C_3   0.535264 0.903360 0.483278 -0.084648
C31   C     C_3   0.521721 0.026935 0.568578 0.024775
C32   C     C_3   0.521986 0.460728 0.936615 -0.005520
C33   C     C_3   0.976439 0.497087 0.568853 0.017618
C34   C     C_R   0.542581 0.425404 0.863155 0.547326
C35   C     C_3   0.520204 0.026590 0.931002 0.021360
C36   C     C_3   0.504648 0.479267 0.568584 0.028254
C37   C     C_3   0.975924 0.496220 0.931108 0.028376
C38   C     C_3   0.015862 0.507162 0.070298 -0.021994
C39   C     C_3   0.490920 0.510036 0.429527 -0.025195
C40   C     C_3   0.489052 0.972826 0.068848 -0.008740
C41   C     C_3   0.018105 0.507378 0.429837 -0.026980
C42   C     C_3   0.467629 0.520483 0.065348 -0.025654
C43   C     C_3   0.489873 0.979292 0.429874 -0.016566
C44   C     C_3   0.638357 0.045910 0.516604 -0.107838
C45   C     C_R   0.936199 0.480896 0.644580 0.613891
C46   C     C_3   0.375514 0.396231 0.969395 -0.072623
C47   C     C_3   0.998753 0.619530 0.520319 -0.052555
C48   C     C_3   0.637305 0.044196 0.982350 -0.096243
C49   C     C_3   0.370975 0.398476 0.523203 -0.071151
C50   C     C_3   0.017516 0.626526 0.977894 -0.047004
C51   C     C_3   0.907650 0.532423 0.033973 -0.181153
C52   C     C_3   0.454578 0.372017 0.465184 -0.215012
C53   C     C_3   0.589992 0.116042 0.038242 -0.198601
C54   C     C_3   0.896976 0.512654 0.464442 -0.179267
C55   C     C_3   0.433268 0.374312 0.040646 -0.182433
C56   C     C_R   0.544982 0.065320 0.855541 0.610425
C57   C     C_3   0.591564 0.120899 0.462437 -0.211856
C58   C     C_R   0.427424 0.541618 0.136902 0.529342
C59   C     C_R   0.479692 0.937267 0.354853 0.537261
C60   C     C_R   0.059652 0.540125 0.145688 0.543428
Cr1   Cr    Cr6+3 0.769930 0.543130 0.750000 1.138235
Cr2   Cr    Cr6+3 0.773200 0.230070 0.750000 1.126342
Cr3   Cr    Cr6+3 0.456870 0.226800 0.750000 1.096167
Cr4   Cr    Cr6+3 0.543130 0.769930 0.250000 1.128747
Cr5   Cr    Cr6+3 0.230070 0.773200 0.250000 1.132268
Cr6   Cr    Cr6+3 0.226800 0.456870 0.250000 1.118900
F1    F     F_    0.239981 0.923484 0.462206 -0.598018
F2    F     F_    0.188984 0.480591 0.579910 -0.581074
F3    F     F_    0.621944 0.725256 0.919314 -0.556868
F4    F     F_    0.341045 0.773938 0.580378 -0.559655
F5    F     F_    0.732610 0.689438 0.065968 -0.585752
F6    F     F_    0.994832 0.266301 0.455458 -0.584777
F7    F     F_    0.238529 0.914457 0.038122 -0.603403
F8    F     F_    0.751487 0.692568 0.448846 -0.589406
F9    F     F_    0.954221 0.251439 0.048807 -0.588463
F10   F     F_    0.157647 0.433653 0.921903 -0.600766
F11   F     F_    0.588373 0.735663 0.575116 -0.566095
F12   F     F_    0.338028 0.774181 0.915755 -0.592801
H1    H     H_    0.746576 0.077184 0.532390 0.226273
H2    H     H_    0.817801 0.516048 0.429706 0.202636
H3    H     H_    0.382072 0.277454 0.073740 0.199257
H4    H     H_    0.656324 0.213655 0.428133 0.153091
H5    H     H_    0.444221 0.174789 0.538169 0.151033
H6    H     H_    0.637557 0.385595 0.018410 0.106021
H7    H     H_    0.778721 0.306268 0.538406 0.112674
H8    H     H_    0.440144 0.172765 0.967601 0.138424
H9    H     H_    0.656537 0.412803 0.529126 0.106128
H10   H     H_    0.764652 0.322217 0.962402 0.101141
H11   H     H_    0.229921 0.678494 0.036036 0.140754
H12   H     H_    0.278138 0.311683 0.944598 0.247371
H13   H     H_    0.340580 0.579887 0.470619 0.136224
H14   H     H_    0.564017 0.822008 0.030564 0.183109
H15   H     H_    0.220701 0.695441 0.463678 0.165617
H16   H     H_    0.354140 0.599368 0.990019 0.187641
H17   H     H_    0.562578 0.826708 0.462732 0.188971
H18   H     H_    0.001404 0.716105 0.539186 0.240055
H19   H     H_    0.745788 0.078901 0.965851 0.237078
H20   H     H_    0.267910 0.317079 0.543936 0.240588
H21   H     H_    0.035137 0.727974 0.956817 0.240852
H22   H     H_    0.842027 0.556495 0.068625 0.224812
H23   H     H_    0.419508 0.274848 0.433090 0.184059
H24   H     H_    0.656714 0.206028 0.074175 0.161171
O1    O     O_R   0.913270 0.574260 0.668550 -0.504462
O2    O     O_R   0.574260 0.913270 0.331450 -0.492499
O3    O     O_R   0.086730 0.660990 0.168550 -0.463733
O4    O     O_R   0.339010 0.425740 0.331450 -0.482767
O5    O     O_R   0.640160 0.530400 0.673300 -0.466807
O6    O     O_R   0.890240 0.359840 0.826700 -0.478096
O7    O     O_R   0.469600 0.109760 0.673300 -0.503214
O8    O     O_R   0.640160 0.530400 0.826700 -0.424832
O9    O     O_R   0.890240 0.359840 0.673300 -0.485698
O10   O     O_R   0.469600 0.109760 0.826700 -0.512423
O11   O     O_R   0.530400 0.640160 0.173300 -0.447936
O12   O     O_R   0.660990 0.086730 0.831450 -0.482620
O13   O     O_R   0.359840 0.890240 0.326700 -0.468659
O14   O     O_R   0.109760 0.469600 0.173300 -0.485740
O15   O     O_R   0.530400 0.640160 0.326700 -0.475225
O16   O     O_R   0.359840 0.890240 0.173300 -0.468304
O17   O     O_R   0.109760 0.469600 0.326700 -0.473392
O18   O     O_3   0.666667 0.333333 0.750000 -0.366892
O19   O     O_3   0.333333 0.666667 0.250000 -0.351873
O20   O     O_R   0.425740 0.339010 0.668550 -0.501244
O21   O     O_R   0.913270 0.574260 0.831450 -0.508973
O22   O     O_R   0.660990 0.086730 0.668550 -0.481619
O23   O     O_R   0.425740 0.339010 0.831450 -0.480117
O24   O     O_R   0.574260 0.913270 0.168550 -0.488987
O25   O     O_R   0.086730 0.660990 0.331450 -0.464141
O26   O     O_R   0.339010 0.425740 0.168550 -0.486711

loop_
_geom_bond_atom_site_label_1
_geom_bond_atom_site_label_2
_ccdc_geom_bond_type
C27   C48   S    
C21   C53   S    
C28   C47   S    
C58   O26   A    
C13   C26   S    
C37   C50   S    
C29   C42   S    
C33   C45   S    
C60   O3    A    
C5    F1    S    
C42   C58   S    
Cr2   O22   S    
C3    O24   A    
C48   H19   S    
C50   H21   S    
Cr6   O14   S    
C59   O2    A    
Cr5   O25   S    
Cr1   O1    S    
Cr2   O12   S    
C11   F10   S    
C29   H16   S    
C42   C55   S    
C9    C22   S    
Cr2   O6    S    
C4    C41   S    
Cr1   O8    S    
Cr4   O19   S    
C28   C41   S    
C9    C39   S    
Cr3   O10   S    
C11   C37   S    
C9    C13   S    
C1    O20   A    
C45   O1    A    
C49   H20   S    
C25   C50   S    
C2    C39   S    
Cr2   O9    S    
C7    C41   S    
C35   C48   S    
C46   C55   S    
C58   O11   A    
Cr5   O16   S    
C4    O17   A    
Cr5   O19   S    
C14   C27   S    
C55   H3    S    
C53   H24   S    
Cr2   O18   S    
C43   C59   S    
C24   C51   S    
C7    C15   S    
C39   C52   S    
C5    C43   S    
C17   F4    S    
Cr1   O18   S    
C17   C30   S    
Cr5   O13   S    
C30   C44   S    
C48   C53   S    
Cr6   O4    S    
C19   C32   S    
Cr5   O3    S    
C2    O15   A    
C24   C37   S    
C54   H2    S    
C46   H12   S    
C6    F5    S    
C23   O7    A    
C13   F11   S    
C52   H23   S    
C31   C44   S    
C13   C36   S    
C20   C54   S    
C26   C49   S    
C7    F6    S    
C12   O6    A    
C38   C51   S    
C10   C24   S    
C16   C29   S    
C2    O4    A    
Cr4   O15   S    
C28   H15   S    
C32   C34   S    
Cr3   O7    S    
C30   H17   S    
C6    C19   S    
C3    O16   A    
C25   C38   S    
C10   F9    S    
C18   C57   S    
C44   C57   S    
C47   H18   S    
C49   C52   S    
C20   H7    S    
C18   H5    S    
Cr6   O19   S    
C27   H14   S    
C50   C51   S    
C22   H9    S    
C24   H10   S    
Cr3   O23   S    
C26   C39   S    
C1    O5    A    
C47   C54   S    
C38   C60   S    
C20   C33   S    
C3    C40   S    
C7    C20   S    
Cr4   O24   S    
Cr6   O17   S    
C6    C42   S    
C33   C47   S    
C30   C43   S    
C60   O14   A    
C9    F8    S    
C19   H6    S    
C14   C35   S    
Cr3   O20   S    
C22   C52   S    
C19   C55   S    
C51   H22   S    
Cr4   O2    S    
C21   H8    S    
C8    C14   S    
Cr4   O11   S    
C4    O25   A    
C35   C56   S    
C32   C46   S    
C44   H1    S    
C16   F3    S    
C15   C33   S    
C8    C21   S    
C45   O9    A    
C23   O22   A    
C21   C35   S    
C16   C32   S    
C22   C36   S    
C25   H11   S    
C10   C38   S    
C29   C46   S    
Cr1   O21   S    
C26   H13   S    
C27   C40   S    
Cr3   O18   S    
C15   C28   S    
C12   O21   A    
C5    C18   S    
C34   O23   A    
C17   C31   S    
C15   F2    S    
C8    F7    S    
Cr6   O26   S    
C14   F12   S    
Cr1   O5    S    
C41   C54   S    
C10   C11   S    
C43   C57   S    
C6    C16   S    
C56   O12   A    
C5    C17   S    
C59   O13   A    
C40   C53   S    
C12   C37   S    
C11   C25   S    
C57   H4    S    
C18   C31   S    
C8    C40   S    
C34   O8    A    
C56   O10   A    
C36   C49   S    
C1    C36   S    
C23   C31   S    
