data_mof_unit_61486.cif
_audit_creation_date              2012-12-11T17:18:14-0500
_audit_creation_method            fapswitch 2.2
_symmetry_space_group_name_H-M    P1
_symmetry_Int_Tables_number       1
_space_group_crystal_system       triclinic
_cell_length_a                    7.381439
_cell_length_b                    12.983718
_cell_length_c                    25.963089
_cell_angle_alpha                 89.835181
_cell_angle_beta                  92.529391
_cell_angle_gamma                 89.917757
_cell_volume                      2485.82648282

loop_
_atom_site_label
_atom_site_type_symbol
_atom_type_description
_atom_site_fract_x
_atom_site_fract_y
_atom_site_fract_z
_atom_type_partial_charge
O1    O     O_R   0.366550 0.651960 0.572490 -0.544175
O2    O     O_R   0.633450 0.348040 0.427510 -0.533848
O3    O     O_R   0.133450 0.151960 0.427510 -0.545539
O4    O     O_R   0.866550 0.848040 0.572490 -0.531253
O5    O     O_R   0.712370 0.639230 0.672140 -0.516097
O6    O     O_R   0.287630 0.360770 0.327860 -0.510413
O7    O     O_R   0.787630 0.139230 0.327860 -0.504472
O8    O     O_R   0.212370 0.860770 0.672140 -0.499358
O9    O     O_R   0.882770 0.848480 0.672480 -0.522805
O10   O     O_R   0.117230 0.151520 0.327520 -0.493393
O11   O     O_R   0.617230 0.348480 0.327520 -0.536584
O12   O     O_R   0.382770 0.651520 0.672480 -0.497724
C1    C     C_R   0.548396 0.625935 0.693026 0.886202
C2    C     C_R   0.454014 0.390804 0.314777 0.917652
C3    C     C_R   0.953706 0.116248 0.310294 0.890163
C4    C     C_R   0.046000 0.889103 0.685840 0.909713
O13   O     O_R   0.696320 0.639050 0.572850 -0.535872
O14   O     O_R   0.303680 0.360950 0.427150 -0.550746
O15   O     O_R   0.803680 0.139050 0.427150 -0.534811
O16   O     O_R   0.196320 0.860950 0.572850 -0.549548
C5    C     C_R   0.524940 0.613481 0.556571 0.696439
C6    C     C_R   0.475062 0.386441 0.443484 0.703767
C7    C     C_R   0.975139 0.113539 0.443418 0.690533
C8    C     C_R   0.024856 0.886410 0.556547 0.683615
O17   O     O_3   0.541150 0.818870 0.622480 -0.378839
O18   O     O_3   0.458850 0.181130 0.377520 -0.364429
O19   O     O_3   0.958850 0.318870 0.377520 -0.391702
O20   O     O_3   0.041150 0.681130 0.622480 -0.376232
V1    V     V_3+5 0.815990 0.737490 0.622490 1.631729
V2    V     V_3+5 0.184010 0.262510 0.377510 1.626804
V3    V     V_3+5 0.684010 0.237490 0.377510 1.633295
V4    V     V_3+5 0.315990 0.762510 0.622490 1.647511
C9    C     C_R   0.027727 0.218543 0.863726 0.777187
C10   C     C_R   0.945928 0.869299 0.083271 0.676141
C11   C     C_R   0.536350 0.747390 0.139540 0.714132
C12   C     C_R   0.535139 0.431085 0.939841 0.682468
O21   O     O_2   0.005644 0.118293 0.876074 -0.517840
O22   O     O_2   0.910752 0.969132 0.073510 -0.531682
O23   O     O_2   0.607214 0.657258 0.124747 -0.533074
O24   O     O_2   0.562167 0.530741 0.951834 -0.487933
N1    N     N_R   0.062272 0.245965 0.814235 -0.465791
N2    N     N_R   0.974612 0.835708 0.133799 -0.511230
N3    N     N_R   0.486632 0.761693 0.189517 -0.472911
N4    N     N_R   0.526745 0.399703 0.888498 -0.514955
C13   C     C_R   0.083675 0.348000 0.801320 0.888401
C14   C     C_R   0.010346 0.733217 0.142119 0.766338
C15   C     C_R   0.456839 0.861684 0.205535 0.780302
C16   C     C_R   0.502670 0.296645 0.879206 0.736840
C17   C     C_R   0.938610 0.154200 0.736296 0.643724
C18   C     C_R   0.885591 0.878422 0.224884 0.482664
C19   C     C_R   0.532046 0.669032 0.276084 0.663933
C20   C     C_R   0.642716 0.427743 0.799477 0.490485
C21   C     C_R   0.925039 0.062945 0.707676 0.424578
C22   C     C_R   0.876537 0.946847 0.266841 0.558267
C23   C     C_R   0.531958 0.577165 0.304944 0.425484
C24   C     C_R   0.643751 0.479284 0.751932 0.563649
C25   C     C_R   0.182226 0.992617 0.757070 0.460946
C26   C     C_R   0.053909 0.069048 0.221476 0.446414
C27   C     C_R   0.377911 0.489799 0.234202 0.504461
C28   C     C_R   0.467286 0.615126 0.787284 0.468334
C29   C     C_R   0.193163 0.082145 0.785897 0.577380
C30   C     C_R   0.056805 0.001614 0.178649 0.449799
C31   C     C_R   0.393400 0.578059 0.203790 0.562145
C32   C     C_R   0.473196 0.565129 0.836102 0.449109
C33   C     C_R   0.071421 0.164097 0.776621 -0.042897
C34   C     C_R   0.968788 0.906087 0.178571 -0.057432
C35   C     C_R   0.468650 0.671003 0.223555 -0.014287
C36   C     C_R   0.552142 0.466563 0.842708 -0.080827
C37   C     C_R   0.027566 0.398157 0.889830 -0.133074
C38   C     C_R   0.972123 0.694524 0.050053 -0.149959
C39   C     C_R   0.510152 0.929383 0.119601 -0.070698
C40   C     C_R   0.528378 0.251989 0.969782 -0.148163
C41   C     C_R   0.014232 0.293166 0.901971 -0.113078
C42   C     C_R   0.948269 0.799469 0.040726 -0.116149
C43   C     C_R   0.521808 0.827163 0.103202 -0.152544
C44   C     C_R   0.521567 0.357125 0.981180 -0.104080
C45   C     C_R   0.978889 0.263415 0.951708 -0.250486
C46   C     C_R   0.922166 0.831877 0.989218 -0.189137
C47   C     C_R   0.521237 0.805553 0.050869 -0.189152
C48   C     C_R   0.514230 0.384435 0.033468 -0.176762
C49   C     C_R   0.057967 0.426509 0.838618 -0.201442
C50   C     C_R   0.995920 0.661138 0.101549 -0.130321
C51   C     C_R   0.490256 0.947099 0.172298 -0.208602
C52   C     C_R   0.535177 0.223513 0.917950 -0.190763
C53   C     C_R   0.046247 0.981211 0.718360 -0.505543
C54   C     C_R   0.959004 0.043501 0.265496 -0.427059
C55   C     C_R   0.456825 0.486627 0.283911 -0.524111
C56   C     C_R   0.549988 0.571590 0.744298 -0.439536
H1    H     H_    0.954054 0.183197 0.960191 0.163213
H2    H     H_    0.909555 0.913254 0.981037 0.166626
H3    H     H_    0.519331 0.726581 0.037352 0.202076
H4    H     H_    0.508219 0.465124 0.043793 0.185891
C57   C     C_R   0.001379 0.516947 0.019974 -0.031852
C58   C     C_R   0.998553 0.580715 0.916007 0.031028
C59   C     C_R   0.558104 0.070578 0.994646 -0.034023
C60   C     C_R   0.516613 0.117296 0.100232 -0.010468
C61   C     C_R   0.963615 0.655677 0.955905 0.026588
C62   C     C_R   0.993177 0.441885 0.980563 0.018032
C63   C     C_R   0.520783 0.200762 0.062321 -0.009706
C64   C     C_R   0.534701 0.989403 0.030395 0.015915
C65   C     C_R   0.975422 0.622313 0.008324 0.053886
C66   C     C_R   0.006000 0.474053 0.928816 0.048405
C67   C     C_R   0.534084 0.174483 0.009330 0.032680
C68   C     C_R   0.520186 0.012701 0.083335 0.128128
C69   C     C_R   0.042109 0.489434 0.071210 -0.220271
C70   C     C_R   0.030181 0.606290 0.864021 -0.168417
C71   C     C_R   0.613272 0.051736 0.944305 -0.266722
C72   C     C_R   0.504498 0.131498 0.154326 -0.197884
C73   C     C_R   0.014613 0.556081 0.111294 0.752323
C74   C     C_R   0.054383 0.531612 0.826053 0.590385
C75   C     C_R   0.590828 0.124493 0.905829 0.764002
C76   C     C_R   0.495325 0.049362 0.189428 0.657071
O25   O     O_2   0.067904 0.700762 0.189328 -0.437970
O26   O     O_2   0.125078 0.373261 0.752861 -0.426518
O27   O     O_2   0.446626 0.263949 0.832052 -0.418574
O28   O     O_2   0.392122 0.879483 0.252361 -0.424098
C77   C     C_R   0.970377 0.335264 0.991212 0.389395
C78   C     C_R   0.923408 0.762672 0.947130 0.385791
C79   C     C_R   0.518279 0.884491 0.014759 0.383766
C80   C     C_R   0.514223 0.309162 0.073655 0.422454
H5    H     H_    0.106073 0.417718 0.080625 0.199055
H6    H     H_    0.052033 0.683734 0.851631 0.227123
H7    H     H_    0.677501 0.981512 0.933594 0.193077
H8    H     H_    0.489706 0.204679 0.171769 0.241001
C81   C     C_1   0.992236 0.033313 0.483287 -0.105048
C82   C     C_1   0.007743 0.966647 0.516687 -0.099542
C83   C     C_1   0.507870 0.533286 0.516693 -0.106100
C84   C     C_1   0.492146 0.466692 0.483328 -0.080399
F1    F     F_    0.301799 0.915375 0.768247 -0.598003
F2    F     F_    0.144250 0.159819 0.220450 -0.624415
F3    F     F_    0.295333 0.404832 0.213790 -0.574525
F4    F     F_    0.379662 0.706616 0.781997 -0.609867
F5    F     F_    0.313934 0.085165 0.826119 -0.598274
F6    F     F_    0.154772 0.025917 0.137829 -0.686010
F7    F     F_    0.339979 0.570461 0.153782 -0.629701
F8    F     F_    0.397913 0.613146 0.875995 -0.650088
F9    F     F_    0.794467 0.916935 0.310094 -0.532823
F10   F     F_    0.796457 0.055456 0.668831 -0.601632
F11   F     F_    0.730912 0.436140 0.712397 -0.534827
F12   F     F_    0.601639 0.577376 0.354236 -0.616254
F13   F     F_    0.816436 0.783604 0.230533 -0.593314
F14   F     F_    0.818490 0.230827 0.725443 -0.485654
F15   F     F_    0.726195 0.335656 0.802403 -0.589194
F16   F     F_    0.599782 0.753639 0.300099 -0.485769
F17   F     F_    0.018212 0.517543 0.159934 -0.627675
F18   F     F_    0.074383 0.563680 0.776815 -0.630478
F19   F     F_    0.641473 0.100418 0.857644 -0.582187
F20   F     F_    0.485980 0.071344 0.240353 -0.618748
O29   O     O_3   0.914971 0.302375 0.038742 -0.583358
C85   C     C_3   0.031133 0.223675 0.058175 -0.009886
H9    H     H_    0.171999 0.232589 0.045428 0.119122
H10   H     H_    0.979583 0.147600 0.045081 0.210993
C86   C     C_3   0.037376 0.226027 0.116421 -0.435987
H11   H     H_    0.172606 0.200864 0.130759 0.280633
H12   H     H_    0.022636 0.303526 0.132627 0.234493
H13   H     H_    0.928441 0.176129 0.130563 0.200472
O30   O     O_3   0.926640 0.807235 0.898807 -0.590282
C87   C     C_3   0.762097 0.791583 0.870545 0.077245
H14   H     H_    0.653748 0.833002 0.888512 0.212838
H15   H     H_    0.724727 0.709056 0.867871 0.150024
C88   C     C_3   0.777899 0.836056 0.816550 -0.619560
H16   H     H_    0.879205 0.792344 0.795001 0.208519
H17   H     H_    0.645062 0.832006 0.795025 0.266733
H18   H     H_    0.820243 0.918055 0.818969 0.262291
O31   O     O_3   0.502685 0.856146 0.963806 -0.581882
C89   C     C_3   0.320411 0.864346 0.946383 0.013991
H19   H     H_    0.247415 0.929778 0.964187 0.134810
H20   H     H_    0.256184 0.790414 0.955608 0.186317
C90   C     C_3   0.307911 0.880416 0.888152 -0.453830
H21   H     H_    0.175206 0.914199 0.875769 0.251658
H22   H     H_    0.412457 0.935007 0.876112 0.263951
H23   H     H_    0.326281 0.806296 0.868018 0.279377
O32   O     O_3   0.499223 0.343769 0.123600 -0.541611
C91   C     C_3   0.661214 0.393006 0.141454 0.162054
H24   H     H_    0.632832 0.475321 0.146781 0.219636
H25   H     H_    0.771960 0.389149 0.114286 0.143119
C92   C     C_3   0.728959 0.348711 0.193505 -0.669560
H26   H     H_    0.617649 0.342226 0.220223 0.232920
H27   H     H_    0.785160 0.270515 0.189174 0.195155
H28   H     H_    0.835737 0.398552 0.211482 0.267475

loop_
_geom_bond_atom_site_label_1
_geom_bond_atom_site_label_2
_ccdc_geom_bond_type
C26   C30   A    
C8    C82   S    
C39   C68   A    
C32   F8    S    
O1    C5    A    
O31   C89   S    
O13   V1    S    
C90   H21   S    
O3    C7    A    
C10   N2    A    
C71   H7    S    
C40   C44   A    
O15   V3    S    
C28   F4    S    
C48   C80   A    
C88   H16   S    
C28   C56   A    
C38   C65   A    
C29   F5    S    
C19   C23   A    
O32   C91   S    
C46   H2    S    
C11   C43   A    
C18   C22   A    
C17   C33   A    
C32   C36   A    
C25   F1    S    
O20   V1    S    
C46   C78   A    
O9    C4    A    
C2    C55   S    
C45   C77   A    
O10   C3    A    
C70   C74   A    
O4    C8    A    
O11   C2    A    
C24   C56   A    
C22   F9    S    
C60   C63   A    
C64   C68   A    
N2    C14   A    
C61   C78   A    
C91   H24   S    
C12   C44   A    
C87   C88   S    
C57   C69   A    
C63   C80   A    
C14   C50   A    
C13   O26   S    
C87   H15   S    
O30   C87   S    
O16   C8    A    
C76   F20   S    
C92   H27   S    
C85   C86   S    
C47   C79   A    
C38   C42   A    
C37   C41   A    
O14   V2    S    
C15   C51   A    
C86   H12   S    
C11   N3    A    
C79   O31   S    
O5    C1    A    
O4    V1    S    
C20   C36   A    
C18   F13   S    
O9    V1    S    
C7    C81   S    
O17   V4    S    
O7    C3    A    
C60   C72   A    
O11   V3    S    
O18   V3    S    
O8    C4    A    
C10   O22   S    
O12   V4    S    
O19   V2    S    
C89   H20   S    
C21   C53   A    
C90   H22   S    
C71   C75   A    
C72   H8    S    
C26   C54   A    
C88   H17   S    
C59   C67   A    
O5    V1    S    
C15   O28   S    
C31   C35   A    
C52   C75   A    
O7    V3    S    
C30   C34   A    
C21   F10   S    
O8    V4    S    
C50   C73   A    
C12   O24   S    
C37   C49   A    
C4    C53   S    
C63   C67   A    
C57   C65   A    
C22   C54   A    
C24   F11   S    
C37   C66   A    
C59   C64   A    
N1    C33   S    
C58   C61   A    
C19   F16   S    
O1    V4    S    
O13   C5    A    
C23   F12   S    
C16   C52   A    
O2    V3    S    
C31   F7    S    
C87   H14   S    
C48   H4    S    
O3    V2    S    
C11   O23   S    
C51   C76   A    
O2    C6    A    
C29   C33   A    
O6    C2    A    
O10   V2    S    
C6    C84   S    
C92   H28   S    
C45   H1    S    
C17   F14   S    
C70   H6    S    
C69   H5    S    
C64   C79   A    
C19   C35   A    
C49   C74   A    
C86   H13   S    
C18   C34   A    
C91   C92   S    
C40   C52   A    
C59   C71   A    
C10   C42   A    
C16   O27   S    
C9    C41   A    
O6    V2    S    
C3    C54   S    
C89   H19   S    
C90   H23   S    
C85   H10   S    
N4    C36   S    
C5    C83   S    
C83   C84   T    
C88   H18   S    
O15   C7    A    
C62   C77   A    
C9    O21   S    
C27   F3    S    
O16   V4    S    
C69   C73   A    
C58   C70   A    
N1    C13   A    
C14   O25   S    
O14   C6    A    
C47   H3    S    
C73   F17   S    
C44   C48   A    
C77   O29   S    
C25   C29   A    
C40   C67   A    
C27   C31   A    
C28   C32   A    
C9    N1    A    
C30   F6    S    
C60   C68   A    
N4    C16   A    
C62   C66   A    
O29   C85   S    
C39   C43   A    
C81   C82   T    
C43   C47   A    
C26   F2    S    
C17   C21   A    
C1    C56   S    
C91   H25   S    
C25   C53   A    
C13   C49   A    
C23   C55   A    
C38   C50   A    
C27   C55   A    
C12   N4    A    
C20   F15   S    
C72   C76   A    
C80   O32   S    
O12   C1    A    
C58   C66   A    
C89   C90   S    
N3    C35   S    
C92   H26   S    
C42   C46   A    
N2    C34   S    
C75   F19   S    
C41   C45   A    
C85   H9    S    
C78   O30   S    
C39   C51   A    
C86   H11   S    
C74   F18   S    
N3    C15   A    
C57   C62   A    
C61   C65   A    
C20   C24   A    
