data_mof_unit_29418.cif
_audit_creation_date              2012-12-11T15:09:47-0500
_audit_creation_method            fapswitch 2.2
_symmetry_space_group_name_H-M    P1
_symmetry_Int_Tables_number       1
_space_group_crystal_system       triclinic
_cell_length_a                    20.88669
_cell_length_b                    7.123027
_cell_length_c                    13.94863
_cell_angle_alpha                 89.984918
_cell_angle_beta                  97.960028
_cell_angle_gamma                 90.013041
_cell_volume                      2055.23265574

loop_
_atom_site_label
_atom_site_type_symbol
_atom_type_description
_atom_site_fract_x
_atom_site_fract_y
_atom_site_fract_z
_atom_type_partial_charge
O1    O     O_R   0.447130 0.507140 0.597350 -0.541142
O2    O     O_R   0.552870 0.007140 0.402650 -0.541352
O3    O     O_R   0.578910 0.181280 0.586990 -0.543669
O4    O     O_R   0.421090 0.681280 0.413010 -0.543697
C1    C     C_R   0.604551 0.344492 0.607257 0.734028
C2    C     C_R   0.395453 0.844483 0.392734 0.734703
O5    O     O_R   0.449230 0.177860 0.608640 -0.533823
O6    O     O_R   0.550770 0.677860 0.391360 -0.534056
O7    O     O_R   0.422260 0.000770 0.424450 -0.530751
O8    O     O_R   0.577740 0.500770 0.575550 -0.530865
C3    C     C_R   0.432844 0.345858 0.635066 0.696702
C4    C     C_R   0.567162 0.845919 0.364951 0.696078
O9    O     O_3   0.491310 0.336980 0.439550 -0.373700
O10   O     O_3   0.508690 0.836980 0.560450 -0.373552
V1    V     V_3+5 0.501610 0.064760 0.511210 1.425704
V2    V     V_3+5 0.498390 0.564760 0.488790 1.425342
C5    C     C_R   0.622432 0.779796 0.123141 -0.138613
C6    C     C_R   0.377477 0.277927 0.876713 -0.138787
H1    H     H_    0.530861 0.769290 0.175974 0.110088
H2    H     H_    0.469050 0.267528 0.823894 0.110274
H3    H     H_    0.600751 0.745794 0.050126 0.156279
H4    H     H_    0.399113 0.243096 0.949647 0.156371
C7    C     C_R   0.607828 0.849263 0.287853 -0.055412
C8    C     C_R   0.392181 0.348968 0.712182 -0.056093
C9    C     C_R   0.922958 0.868389 0.311305 0.383698
C10   C     C_R   0.077129 0.372365 0.688688 0.421277
C11   C     C_R   0.885378 0.849739 0.385714 -0.290341
C12   C     C_R   0.114694 0.354791 0.614203 -0.245753
C13   C     C_R   0.817434 0.836060 0.367332 0.364067
C14   C     C_R   0.182577 0.338683 0.632594 0.357485
C15   C     C_R   0.786075 0.842706 0.269441 0.009207
C16   C     C_R   0.213910 0.343167 0.730519 0.008428
C17   C     C_R   0.825163 0.841201 0.193318 -0.106904
C18   C     C_R   0.174791 0.340698 0.806599 -0.108623
C19   C     C_R   0.717167 0.841226 0.243882 0.050374
C20   C     C_R   0.282815 0.340891 0.756087 0.053780
C21   C     C_R   0.689702 0.803714 0.146495 0.036012
C22   C     C_R   0.310227 0.302274 0.853385 0.035545
C23   C     C_R   0.729416 0.792573 0.073529 0.384845
C24   C     C_R   0.270484 0.290575 0.926303 0.384426
C25   C     C_R   0.795910 0.815815 0.096878 -0.239553
C26   C     C_R   0.203999 0.313957 0.902961 -0.235702
C27   C     C_R   0.674188 0.879546 0.311217 -0.138798
C28   C     C_R   0.325848 0.379767 0.688875 -0.136481
C29   C     C_R   0.582172 0.796115 0.194201 -0.188237
C30   C     C_R   0.417767 0.294790 0.805715 -0.188116
C31   C     C_R   0.893193 0.859616 0.214577 -0.182015
C32   C     C_R   0.106796 0.360222 0.785382 -0.196554
H5    H     H_    0.690740 0.934354 0.382105 0.152791
H6    H     H_    0.309364 0.435324 0.618112 0.152196
H7    H     H_    0.909890 0.838110 0.458826 0.184773
H8    H     H_    0.090171 0.346110 0.540985 0.192293
H9    H     H_    0.824574 0.806197 0.038123 0.120700
H10   H     H_    0.175324 0.303901 0.961688 0.120344
C33   C     C_1   0.166535 0.857191 0.168487 -0.115562
C34   C     C_1   0.833474 0.357186 0.831487 -0.121350
C35   C     C_1   0.218883 0.854957 0.219774 0.027563
C36   C     C_1   0.781131 0.354973 0.780189 0.020049
C37   C     C_1   0.280579 0.853546 0.279858 -0.008349
C38   C     C_1   0.719437 0.353585 0.720102 -0.011622
C39   C     C_1   0.332983 0.851194 0.331000 -0.203547
C40   C     C_1   0.667028 0.351230 0.668970 -0.204947
O11   O     O_R   0.922300 0.202240 0.924350 -0.540917
O12   O     O_R   0.077700 0.702240 0.075650 -0.541183
O13   O     O_R   0.050780 0.535130 0.891350 -0.531433
O14   O     O_R   0.949220 0.035130 0.108650 -0.533354
C41   C     C_R   0.066778 0.368125 0.864180 0.803656
C42   C     C_R   0.933208 0.868025 0.135795 0.798022
O15   O     O_R   0.921100 0.531560 0.912990 -0.531665
O16   O     O_R   0.078900 0.031560 0.087010 -0.531578
O17   O     O_R   0.947120 0.708470 0.097370 -0.540364
O18   O     O_R   0.052880 0.208470 0.902630 -0.540485
C43   C     C_R   0.895852 0.363583 0.893484 0.772403
C44   C     C_R   0.104151 0.863589 0.106507 0.771706
O19   O     O_3   0.008710 0.375800 0.060400 -0.373609
O20   O     O_3   0.991290 0.875800 0.939600 -0.372889
V3    V     V_3+5 0.998380 0.648080 0.988790 1.563489
V4    V     V_3+5 0.001620 0.148080 0.011210 1.560642
O21   O     O_3   0.703692 0.746173 0.979673 -0.557528
C45   C     C_3   0.699550 0.909704 0.921933 0.076563
H11   H     H_    0.748501 0.966562 0.915846 0.122320
H12   H     H_    0.670173 0.019883 0.952230 0.120789
C46   C     C_3   0.666804 0.860750 0.820737 -0.682408
H13   H     H_    0.617659 0.803848 0.824178 0.215934
H14   H     H_    0.662534 0.988182 0.774555 0.181771
H15   H     H_    0.695741 0.754047 0.787705 0.227326
O22   O     O_3   0.296188 0.244134 0.020171 -0.557733
C47   C     C_3   0.300439 0.407776 0.077807 0.076136
H16   H     H_    0.251528 0.464967 0.083797 0.121917
H17   H     H_    0.329920 0.517708 0.047466 0.120875
C48   C     C_3   0.333096 0.358934 0.179075 -0.682943
H18   H     H_    0.382196 0.301663 0.175746 0.216002
H19   H     H_    0.337458 0.486525 0.225122 0.181373
H20   H     H_    0.304039 0.252578 0.212180 0.227221
S1    S     S_3+6 0.008100 0.886878 0.341753 0.019038
O23   O     O_2   0.039490 0.718821 0.302777 -0.322183
O24   O     O_2   0.031807 0.061092 0.297004 -0.344381
O25   O     O_3   0.029679 0.895510 0.462486 -0.466808
H21   H     H_    0.017964 0.023622 0.481555 0.363496
S2    S     S_3+6 0.992118 0.394759 0.658203 -0.013610
O26   O     O_2   0.959755 0.227405 0.696290 -0.357450
O27   O     O_2   0.969832 0.570076 0.703581 -0.337228
O28   O     O_3   0.971291 0.407114 0.537424 -0.494819
H22   H     H_    0.923902 0.427239 0.527709 0.365668
O29   O     O_3   0.782880 0.780388 0.441162 -0.558228
C49   C     C_3   0.800161 0.885181 0.527217 0.090559
H23   H     H_    0.808291 0.036433 0.511971 0.132218
H24   H     H_    0.844218 0.824574 0.569836 0.178525
C50   C     C_3   0.746146 0.872438 0.589942 -0.691438
H25   H     H_    0.735715 0.723138 0.604717 0.232543
H26   H     H_    0.761112 0.945173 0.659872 0.191986
H27   H     H_    0.701509 0.940172 0.553274 0.203369
O30   O     O_3   0.216992 0.282780 0.558658 -0.555455
C51   C     C_3   0.200078 0.388440 0.472789 0.109948
H28   H     H_    0.192526 0.539841 0.488314 0.145741
H29   H     H_    0.155797 0.329305 0.430084 0.184678
C52   C     C_3   0.254033 0.374349 0.410024 -0.693522
H30   H     H_    0.263903 0.224805 0.395008 0.234908
H31   H     H_    0.239330 0.447785 0.340207 0.192482
H32   H     H_    0.298925 0.440594 0.446793 0.202449

loop_
_geom_bond_atom_site_label_1
_geom_bond_atom_site_label_2
_ccdc_geom_bond_type
O14   C42   A    
O22   C47   S    
C7    C29   A    
C11   C13   A    
O12   V3    S    
O15   V3    S    
S1    O23   D    
O1    C3    A    
O2    C4    A    
C2    O7    A    
C51   H28   S    
S1    O25   S    
C23   C25   A    
O5    C3    A    
C4    C7    S    
C16   C20   A    
C2    C39   S    
C19   C21   A    
C5    C29   A    
C50   H26   S    
C35   C37   S    
O16   V4    S    
C49   H23   S    
C36   C38   S    
C3    C8    S    
C7    C27   A    
C38   C40   T    
C41   O18   A    
O18   V4    S    
C33   C44   S    
O13   C41   A    
C18   C26   A    
O16   C44   A    
C15   C17   A    
O15   C43   A    
C19   C27   A    
C9    C31   A    
C10   C32   A    
C24   C26   A    
O6    V2    S    
C22   C24   A    
C13   O29   S    
C45   C46   S    
C6    C30   A    
C11   H7    S    
O14   V4    S    
C37   C39   T    
O13   V3    S    
O20   V3    S    
C45   H12   S    
C52   H32   S    
C48   H18   S    
C27   H5    S    
O5    V1    S    
O11   C43   A    
S2    O28   S    
C5    H3    S    
C23   O21   S    
O4    V2    S    
C48   H19   S    
C46   H13   S    
C47   C48   S    
O6    C4    A    
S2    O27   D    
O1    V2    S    
C5    C21   A    
O11   V4    S    
O2    V1    S    
O19   V3    S    
C25   H9    S    
O4    C2    A    
C46   H14   S    
C47   H17   S    
C9    S1    S    
C33   C35   T    
C17   C31   A    
C15   C19   A    
C50   H27   S    
C18   C32   A    
C31   C42   S    
O17   V3    S    
O3    V1    S    
C24   O22   S    
O30   C51   S    
C28   H6    S    
S1    O24   D    
C34   C43   S    
C6    H4    S    
O20   V4    S    
C45   H11   S    
O3    C1    A    
C51   H29   S    
H1    C29   S    
C9    C11   A    
O29   C49   S    
C10   C12   A    
C8    C30   A    
C52   H31   S    
C6    C22   A    
C17   C25   A    
C12   C14   A    
C13   C15   A    
O8    V2    S    
C50   H25   S    
C26   H10   S    
C48   H20   S    
C14   C16   A    
C12   H8    S    
C49   H24   S    
C42   O17   A    
C8    C28   A    
C20   C22   A    
S2    O26   D    
C34   C36   T    
C1    C40   S    
C32   C41   S    
O7    V1    S    
O19   V4    S    
C51   C52   S    
C20   C28   A    
O21   C45   S    
C1    O8    A    
C46   H15   S    
C47   H16   S    
C21   C23   A    
O25   H21   S    
O9    V2    S    
C10   S2    S    
O28   H22   S    
O12   C44   A    
O10   V1    S    
C52   H30   S    
C49   C50   S    
H2    C30   S    
C16   C18   A    
C14   O30   S    
