data_mof_unit_37340.cif
_audit_creation_date              2012-12-11T17:34:21-0500
_audit_creation_method            fapswitch 2.2
_symmetry_space_group_name_H-M    P1
_symmetry_Int_Tables_number       1
_space_group_crystal_system       triclinic
_cell_length_a                    23.840705
_cell_length_b                    7.217478
_cell_length_c                    20.664747
_cell_angle_alpha                 89.999699
_cell_angle_beta                  105.254861
_cell_angle_gamma                 89.999823
_cell_volume                      3430.49031003

loop_
_atom_site_label
_atom_site_type_symbol
_atom_type_description
_atom_site_fract_x
_atom_site_fract_y
_atom_site_fract_z
_atom_type_partial_charge
O1    O     O_R   0.449110 0.494310 0.552140 -0.541012
O2    O     O_R   0.550890 0.994310 0.447860 -0.541016
O3    O     O_R   0.440010 0.824420 0.415850 -0.536664
O4    O     O_R   0.559990 0.324420 0.584150 -0.536665
C1    C     C_R   0.425319 0.655729 0.391214 0.670898
C2    C     C_R   0.574681 0.155727 0.608785 0.670919
O5    O     O_R   0.442260 0.824040 0.549660 -0.514872
O6    O     O_R   0.557740 0.324040 0.450340 -0.514865
O7    O     O_R   0.553160 0.993960 0.582620 -0.534154
O8    O     O_R   0.446840 0.493960 0.417380 -0.534149
C3    C     C_R   0.427946 0.655547 0.566784 0.741357
C4    C     C_R   0.572053 0.155548 0.433215 0.741366
O9    O     O_3   0.536380 0.660670 0.510660 -0.370264
O10   O     O_3   0.463620 0.160670 0.489340 -0.370252
V1    V     V_3+5 0.493250 0.935680 0.498020 1.437248
V2    V     V_3+5 0.506750 0.435680 0.501980 1.437243
C5    C     C_R   0.823813 0.905960 0.170277 -0.114243
C6    C     C_R   0.176180 0.405960 0.829713 -0.114235
H1    H     H_    0.806638 0.779140 0.185603 0.120615
H2    H     H_    0.193352 0.279140 0.814384 0.120615
C7    C     C_R   0.862977 0.895936 0.130184 -0.174391
C8    C     C_R   0.137018 0.395935 0.869809 -0.174432
H3    H     H_    0.875046 0.760674 0.115595 0.122442
H4    H     H_    0.124948 0.260672 0.884397 0.122451
C9    C     C_R   0.886411 0.058366 0.109695 -0.029017
C10   C     C_R   0.113587 0.558365 0.890302 -0.029058
C11   C     C_R   0.869120 0.230801 0.130211 -0.136049
C12   C     C_R   0.130878 0.730801 0.869787 -0.136005
H5    H     H_    0.885938 0.359101 0.115641 0.123054
H6    H     H_    0.114063 0.859101 0.884359 0.123064
C13   C     C_R   0.829991 0.240330 0.170223 -0.144293
C14   C     C_R   0.170006 0.740330 0.829772 -0.144301
H7    H     H_    0.817649 0.374642 0.185471 0.110166
H8    H     H_    0.182348 0.874643 0.814525 0.110168
C15   C     C_R   0.807238 0.078172 0.190625 0.119861
C16   C     C_R   0.192755 0.578172 0.809366 0.119862
C17   C     C_1   0.767389 0.089374 0.232798 -0.041856
C18   C     C_1   0.232603 0.589375 0.767190 -0.041854
C19   C     C_1   0.734328 0.101614 0.268281 0.056564
C20   C     C_1   0.265663 0.601613 0.731705 0.056570
C21   C     C_R   0.657267 0.971130 0.314168 0.378908
C22   C     C_R   0.342746 0.471165 0.685848 0.378895
C23   C     C_R   0.618210 0.985810 0.354600 -0.342337
C24   C     C_R   0.381807 0.485848 0.645421 -0.342304
H9    H     H_    0.588881 0.871734 0.355442 0.148283
H10   H     H_    0.411156 0.371809 0.644605 0.148295
C25   C     C_R   0.615863 0.145629 0.392761 -0.176972
C26   C     C_R   0.384132 0.645623 0.607231 -0.176956
C27   C     C_R   0.654895 0.293036 0.390996 0.254846
C28   C     C_R   0.345073 0.792975 0.608956 0.254862
C29   C     C_R   0.693735 0.281342 0.349754 0.255321
C30   C     C_R   0.306231 0.781287 0.650196 0.255326
C31   C     C_R   0.694807 0.119093 0.311086 -0.048309
C32   C     C_R   0.305183 0.619087 0.688898 -0.048305
C33   C     C_R   0.639773 0.187091 0.794798 -0.140887
C34   C     C_R   0.360214 0.687327 0.205209 -0.140892
H11   H     H_    0.554530 0.217163 0.728548 0.104816
H12   H     H_    0.445457 0.717401 0.271458 0.104828
H13   H     H_    0.721082 0.169648 0.908688 0.149258
H14   H     H_    0.278900 0.670006 0.091321 0.149256
H15   H     H_    0.624358 0.214816 0.838735 0.118685
H16   H     H_    0.375623 0.715168 0.161276 0.118686
C35   C     C_R   0.617867 0.149704 0.674587 -0.035881
C36   C     C_R   0.382133 0.649721 0.325412 -0.035891
C37   C     C_R   0.900841 0.029621 0.769213 -0.267809
C38   C     C_R   0.099165 0.529468 0.230786 -0.267814
C39   C     C_R   0.863038 0.032935 0.704740 0.420536
C40   C     C_R   0.136972 0.532706 0.295258 0.420541
C41   C     C_R   0.803789 0.061330 0.696636 -0.137895
C42   C     C_R   0.196218 0.561159 0.303362 -0.137898
C43   C     C_R   0.780244 0.085893 0.752138 -0.042767
C44   C     C_R   0.219757 0.585859 0.247862 -0.042773
C45   C     C_R   0.819259 0.081551 0.818419 -0.017766
C46   C     C_R   0.180738 0.581603 0.181582 -0.017755
C47   C     C_R   0.719098 0.116276 0.743510 0.094915
C48   C     C_R   0.280900 0.616295 0.256490 0.094921
C49   C     C_R   0.698828 0.150976 0.801041 0.065611
C50   C     C_R   0.301163 0.651141 0.198963 0.065618
C51   C     C_R   0.737170 0.147089 0.864857 -0.203144
C52   C     C_R   0.262817 0.647336 0.135149 -0.203173
C53   C     C_R   0.795772 0.106522 0.874307 0.312746
C54   C     C_R   0.204218 0.606715 0.125696 0.312772
C55   C     C_R   0.676991 0.114108 0.679974 -0.198833
C56   C     C_R   0.323012 0.614047 0.320023 -0.198850
C57   C     C_R   0.599827 0.187787 0.732146 -0.157215
C58   C     C_R   0.400164 0.687954 0.267858 -0.157202
C59   C     C_R   0.880283 0.054632 0.826013 -0.110569
C60   C     C_R   0.119717 0.554616 0.173988 -0.110559
H17   H     H_    0.688383 0.085703 0.633854 0.086121
H18   H     H_    0.311626 0.585534 0.366138 0.086133
H19   H     H_    0.946959 0.008053 0.775259 0.099203
H20   H     H_    0.053050 0.507844 0.224740 0.099207
H21   H     H_    0.777351 0.065328 0.645640 0.130024
H22   H     H_    0.222659 0.565089 0.354358 0.130026
O11   O     O_R   0.053190 0.709680 0.082610 -0.521397
O12   O     O_R   0.946810 0.209680 0.917390 -0.521422
O13   O     O_R   0.057740 0.380240 0.950340 -0.550532
O14   O     O_R   0.942260 0.880240 0.049660 -0.550530
C61   C     C_R   0.071036 0.548753 0.932012 0.716418
C62   C     C_R   0.928963 0.048753 0.067986 0.716469
O15   O     O_R   0.060000 0.379940 0.084150 -0.547477
O16   O     O_R   0.940000 0.879940 0.915850 -0.547484
O17   O     O_R   0.949110 0.210100 0.052140 -0.530308
O18   O     O_R   0.050890 0.710100 0.947860 -0.530280
C63   C     C_R   0.075177 0.548400 0.108601 0.747852
C64   C     C_R   0.924822 0.048403 0.891401 0.747858
O19   O     O_3   0.963630 0.543720 0.989330 -0.375043
O20   O     O_3   0.036370 0.043720 0.010670 -0.375020
V3    V     V_3+5 0.006750 0.268680 0.001980 1.434339
V4    V     V_3+5 0.993250 0.768680 0.998020 1.434356
O21   O     O_3   0.882744 0.009706 0.648165 -0.636815
H23   H     H_    0.925466 0.991195 0.661955 0.292295
O22   O     O_3   0.117273 0.509337 0.351831 -0.636813
H24   H     H_    0.074551 0.490795 0.338041 0.292296
O23   O     O_3   0.828554 0.089932 0.939349 -0.649986
H25   H     H_    0.841280 0.958757 0.944461 0.272237
O24   O     O_3   0.171432 0.590223 0.060653 -0.649956
H26   H     H_    0.158726 0.459032 0.055508 0.272191
O25   O     O_3   0.659258 0.813427 0.276864 -0.624661
H27   H     H_    0.630649 0.722235 0.284759 0.293403
O26   O     O_3   0.340775 0.313498 0.723178 -0.624688
H28   H     H_    0.369392 0.222319 0.715293 0.293396
N1    N     N_2   0.656036 0.453300 0.431638 -0.492064
H29   H     H_    0.664191 0.575755 0.410044 0.286648
C65   C     C_3   0.691064 0.433229 0.500007 -0.450086
H30   H     H_    0.686507 0.559101 0.529104 0.186422
H31   H     H_    0.737588 0.415728 0.500943 0.208349
H32   H     H_    0.676498 0.311818 0.524401 0.164739
N2    N     N_2   0.343901 0.953171 0.568272 -0.492060
H33   H     H_    0.335680 0.075633 0.589812 0.286746
C66   C     C_3   0.308923 0.932867 0.499890 -0.450201
H34   H     H_    0.313404 0.058789 0.470779 0.186439
H35   H     H_    0.262405 0.914985 0.498918 0.208302
H36   H     H_    0.323603 0.811598 0.475531 0.164748
O27   O     O_3   0.730374 0.430470 0.350055 -0.631012
H37   H     H_    0.754910 0.408613 0.318999 0.302338
O28   O     O_3   0.269564 0.930364 0.649861 -0.631033
H38   H     H_    0.245027 0.908508 0.680916 0.302330

loop_
_geom_bond_atom_site_label_1
_geom_bond_atom_site_label_2
_ccdc_geom_bond_type
C38   C40   A    
O4    V2    S    
O14   V4    S    
C11   H5    S    
O21   H23   S    
O1    C3    A    
C44   C48   A    
C66   H36   S    
O2    C4    A    
C48   C56   A    
C2    O7    A    
N1    H29   S    
C25   C27   A    
C66   H35   S    
O5    C3    A    
C22   C24   A    
C14   C16   A    
C42   H22   S    
C48   C50   A    
O22   H24   S    
C41   H21   S    
C38   C60   A    
C33   C49   A    
C50   C52   A    
N1    C65   S    
O15   V3    S    
O23   H25   S    
C27   N1    S    
C34   C50   A    
O20   V3    S    
C36   C58   A    
C41   C43   A    
C45   C59   A    
O12   C64   A    
O11   C63   A    
C29   O27   S    
C36   C56   A    
C30   C32   A    
C12   H6    S    
C37   C39   A    
C65   H32   S    
C28   C30   A    
C13   H7    S    
O27   H37   S    
C40   O22   S    
C34   H16   S    
C26   C28   A    
C61   O18   A    
O6    V2    S    
C35   C57   A    
C21   C23   A    
C3    C26   S    
C56   H18   S    
C46   C54   A    
C4    C25   S    
H12   C58   S    
C45   C53   A    
O13   C61   A    
C24   H10   S    
C37   C59   A    
C49   C51   A    
O15   C63   A    
C55   H17   S    
C43   C47   A    
C11   C13   A    
C12   C14   A    
C44   C46   A    
H13   C51   S    
C51   C53   A    
C38   H20   S    
C27   C29   A    
C62   O17   A    
C5    C7    A    
C1    C36   S    
C35   C55   A    
C29   C31   A    
C14   H8    S    
C2    C35   S    
C33   C57   A    
C28   N2    S    
O13   V3    S    
C9    C62   S    
C34   C58   A    
O6    C4    A    
C53   O23   S    
C30   O28   S    
O1    V2    S    
C21   O25   S    
O2    V1    S    
C47   C49   A    
C21   C31   A    
O26   H28   S    
C39   O21   S    
C20   C32   S    
C7    H3    S    
C65   H30   S    
O19   V4    S    
C8    H4    S    
O16   V4    S    
O4    C2    A    
C66   H34   S    
O3    V1    S    
O18   V4    S    
C43   C45   A    
N2    H33   S    
O12   V3    S    
C39   C41   A    
C37   H19   S    
C7    C9    A    
H14   C52   S    
C15   C17   S    
C6    C8    A    
C10   C12   A    
O3    C1    A    
O11   V4    S    
O25   H27   S    
C9    C11   A    
O28   H38   S    
C10   C61   S    
O14   C62   A    
O17   V3    S    
C16   C18   S    
O7    V1    S    
C1    O8    A    
C17   C19   T    
O8    V2    S    
O24   H26   S    
C22   C32   A    
C18   C20   T    
C60   C63   S    
C47   C55   A    
C19   C31   S    
C59   C64   S    
C6    C16   A    
C33   H15   S    
C13   C15   A    
O5    V1    S    
C5    H1    S    
C52   C54   A    
H11   C57   S    
O16   C64   A    
C6    H2    S    
C40   C42   A    
C8    C10   A    
O9    V2    S    
C65   H31   S    
O10   V1    S    
C42   C44   A    
C5    C15   A    
C54   O24   S    
C46   C60   A    
C23   C25   A    
C23   H9    S    
C24   C26   A    
C22   O26   S    
N2    C66   S    
