data_mof_unit_40244.cif
_audit_creation_date              2012-10-26T20:35:46-0400
_audit_creation_method            fapswitch 2.2
_symmetry_space_group_name_H-M    P1
_symmetry_Int_Tables_number       1
_space_group_crystal_system       triclinic
_cell_length_a                    8.851982
_cell_length_b                    15.933137
_cell_length_c                    17.050462
_cell_angle_alpha                 95.820389
_cell_angle_beta                  93.473627
_cell_angle_gamma                 84.094445
_cell_volume                      2376.64164133

loop_
_atom_site_label
_atom_site_type_symbol
_atom_type_description
_atom_site_fract_x
_atom_site_fract_y
_atom_site_fract_z
_atom_type_partial_charge
C1    C     C_R   0.501031 0.489958 0.348475 0.514632
C2    C     C_R   0.372959 0.159619 0.440896 -0.154405
C3    C     C_R   0.605499 0.751526 0.568019 0.393136
C4    C     C_R   0.379023 0.248842 0.440339 0.416631
C5    C     C_R   0.206129 0.521831 0.502245 0.560520
C6    C     C_R   0.794054 0.478415 0.502034 0.539557
C7    C     C_2   0.041933 0.534134 0.507665 0.219048
C8    C     C_2   0.958919 0.466380 0.505727 0.221704
C9    C     C_R   0.508854 0.485432 0.261501 -0.139605
C10   C     C_R   0.513157 0.515771 0.737386 -0.114263
C11   C     C_R   0.609013 0.534431 0.227845 -0.032480
C12   C     C_R   0.503763 0.509922 0.651021 0.495213
C13   C     C_R   0.385665 0.501234 0.778269 -0.015426
C14   C     C_R   0.612706 0.531952 0.145048 0.264262
C15   C     C_R   0.391736 0.513480 0.861162 0.281021
C16   C     C_R   0.516956 0.480735 0.095952 0.174606
C17   C     C_R   0.525696 0.537121 0.902582 0.174310
C18   C     C_R   0.423336 0.429905 0.129167 0.259503
C19   C     C_R   0.649902 0.554426 0.862070 0.269430
C20   C     C_R   0.416282 0.432887 0.211607 -0.034329
C21   C     C_R   0.648080 0.539492 0.779087 -0.005199
C22   C     C_3   0.959722 0.660520 0.456691 -0.045221
C23   C     C_R   0.447071 0.756465 0.450138 0.091882
C24   C     C_3   0.053238 0.354828 0.574957 -0.089793
C25   C     C_2   0.244810 0.475524 0.734444 0.310160
C26   C     C_2   0.716703 0.584657 0.278782 0.243820
C27   C     C_3   0.184805 0.582284 0.919523 -0.077119
C28   C     C_3   0.847197 0.530520 0.097880 -0.055964
C29   C     C_3   0.192967 0.418653 0.063640 -0.034479
C30   C     C_3   0.760050 0.668455 0.920469 -0.080066
C31   C     C_2   0.303303 0.385830 0.244596 0.291749
C32   C     C_2   0.788189 0.544612 0.735979 0.307490
C33   C     C_2   0.667669 0.288090 0.605311 0.258797
C34   C     C_R   0.565089 0.244783 0.546954 0.058936
C35   C     C_2   0.371027 0.713880 0.380196 0.356644
C36   C     C_2   0.627168 0.115835 0.621338 0.313616
C37   C     C_2   0.395987 0.891041 0.380717 0.239063
C38   C     C_3   0.817190 0.737901 0.656932 -0.098461
C39   C     C_3   0.148543 0.263083 0.365197 -0.062691
C40   C     C_R   0.457917 0.844992 0.449441 -0.033816
C41   C     C_R   0.550306 0.157590 0.553373 -0.008788
C42   C     C_R   0.536190 0.888607 0.512600 0.139949
C43   C     C_R   0.457719 0.113187 0.496731 0.157094
C44   C     C_R   0.609133 0.841320 0.571205 -0.134646
Cu1   Cu    Cu3+1 0.492520 0.415770 0.496210 1.024537
Cu2   Cu    Cu3+1 0.507480 0.584230 0.503790 1.037566
H1    H     H_    0.670003 0.875541 0.619032 0.138157
H2    H     H_    0.761005 0.563489 0.334865 0.092813
H3    H     H_    0.251215 0.623932 0.961777 0.101913
H4    H     H_    0.079535 0.572752 0.948008 0.175721
H5    H     H_    0.150640 0.614120 0.865098 0.155447
H6    H     H_    0.830245 0.475027 0.054228 0.144064
H7    H     H_    0.903504 0.509236 0.153564 0.094023
H8    H     H_    0.924884 0.569833 0.072649 0.144713
H9    H     H_    0.195929 0.486912 0.055458 0.103087
H10   H     H_    0.117286 0.412316 0.111721 0.104709
H11   H     H_    0.142536 0.387812 0.008325 0.198750
H12   H     H_    0.300962 0.125139 0.398352 0.117368
H13   H     H_    0.661424 0.689716 0.957520 0.148588
H14   H     H_    0.747814 0.700120 0.864807 0.126848
H15   H     H_    0.863267 0.689096 0.953967 0.132718
H16   H     H_    0.244059 0.413676 0.296215 0.128500
H17   H     H_    0.789324 0.529267 0.672662 0.116550
H18   H     H_    0.767833 0.311448 0.586831 0.115075
H19   H     H_    0.416415 0.714751 0.322561 0.124370
H20   H     H_    0.743100 0.127210 0.640418 0.112120
H21   H     H_    0.459677 0.938201 0.359650 0.141797
H22   H     H_    0.787689 0.785854 0.706978 0.108337
H23   H     H_    0.996356 0.622393 0.401331 0.140188
H24   H     H_    0.880877 0.765040 0.612741 0.129856
H25   H     H_    0.895703 0.687003 0.680816 0.193436
H26   H     H_    0.094435 0.238984 0.414622 0.131756
H27   H     H_    0.166505 0.212643 0.315785 0.148110
H28   H     H_    0.067393 0.313970 0.342689 0.164345
H29   H     H_    0.024321 0.716954 0.467497 0.191878
H30   H     H_    0.838444 0.684195 0.446905 0.144755
H31   H     H_    0.037356 0.286334 0.570607 0.129569
H32   H     H_    0.977383 0.388071 0.620661 0.117119
H33   H     H_    0.173286 0.360728 0.595284 0.178321
H34   H     H_    0.217342 0.492822 0.675017 0.073183
N1    N     N_2   0.511268 0.477100 0.012312 -0.139594
N2    N     N_2   0.537377 0.543899 0.985893 -0.175300
N3    N     N_R   0.518730 0.710760 0.509500 -0.235875
N4    N     N_R   0.481270 0.289240 0.490500 -0.238392
N5    N     N_2   0.555186 0.977732 0.516164 -0.201992
N6    N     N_2   0.439462 0.024100 0.495278 -0.195617
O1    O     O_R   0.493000 0.421040 0.382520 -0.458021
O2    O     O_3   0.025084 0.383419 0.499048 -0.592511
O3    O     O_2   0.159154 0.433483 0.763707 -0.413937
O4    O     O_2   0.756461 0.650233 0.258995 -0.469224
O5    O     O_3   0.266294 0.502382 0.902156 -0.492729
O6    O     O_3   0.709026 0.580414 0.112256 -0.485336
O7    O     O_3   0.338284 0.376597 0.079234 -0.475250
O8    O     O_3   0.778050 0.579420 0.904869 -0.516739
O9    O     O_2   0.274962 0.316037 0.214307 -0.454826
O10   O     O_2   0.905678 0.564779 0.770477 -0.484086
O11   O     O_2   0.643279 0.294772 0.675535 -0.481930
O12   O     O_R   0.507000 0.578960 0.617480 -0.463440
O13   O     O_2   0.253723 0.681634 0.384969 -0.509216
O14   O     O_2   0.559026 0.071720 0.658819 -0.445358
O15   O     O_2   0.272084 0.878678 0.348618 -0.483959
O16   O     O_3   0.685034 0.702766 0.623282 -0.520814
O17   O     O_3   0.286850 0.297431 0.389571 -0.510762
O18   O     O_R   0.505640 0.563310 0.388930 -0.518253
O19   O     O_R   0.494360 0.436690 0.611070 -0.494374
O20   O     O_R   0.269980 0.445280 0.497530 -0.466996
O21   O     O_R   0.730020 0.554720 0.502470 -0.474524
O22   O     O_R   0.282610 0.587550 0.503940 -0.449884
O23   O     O_R   0.717390 0.412450 0.496060 -0.523505
O24   O     O_3   0.975709 0.616266 0.524973 -0.593860

loop_
_geom_bond_atom_site_label_1
_geom_bond_atom_site_label_2
_ccdc_geom_bond_type
C1    O1    A    
C29   O7    S    
C38   H24   S    
C25   H34   S    
C22   H30   S    
N1    N2    D    
C7    C8    D    
Cu1   Cu2   S    
C23   N3    A    
C19   C21   A    
C37   C40   S    
C12   O19   A    
C11   C14   A    
Cu1   O23   S    
C35   H19   S    
C23   C40   A    
C4    O17   S    
C18   C20   A    
C17   N2    S    
C39   H28   S    
C24   H33   S    
Cu1   O19   S    
C22   O24   S    
Cu2   O22   S    
C6    O21   A    
C27   O5    S    
C22   H23   S    
C12   O12   A    
C44   H1    S    
C26   H2    S    
C40   C42   A    
Cu2   O12   S    
C30   H13   S    
C41   C43   A    
C31   H16   S    
C13   C25   S    
C36   C41   S    
C34   C41   A    
C34   N4    A    
C22   H29   S    
C35   O13   D    
C27   H5    S    
C5    O20   A    
C10   C21   A    
C21   C32   S    
C3    C44   A    
C1    C9    S    
C36   O14   D    
C5    C7    S    
C28   H8    S    
C6    C8    S    
C29   H9    S    
C11   C26   S    
N5    N6    D    
Cu2   O18   S    
C30   H14   S    
C8    O2    S    
C2    C4    A    
C24   O2    S    
C9    C20   A    
C4    N4    A    
C2    C43   A    
C39   H26   S    
Cu2   O21   S    
C2    H12   S    
C33   C34   S    
C28   O6    S    
C42   N5    S    
C9    C11   A    
C1    O18   A    
C14   O6    S    
C19   O8    S    
C10   C12   S    
C3    O16   S    
C24   H32   S    
C32   O10   D    
C38   H22   S    
C23   C35   S    
C13   C15   A    
C3    N3    A    
C6    O23   A    
C14   C16   A    
Cu1   N4    S    
Cu1   O20   S    
C15   C17   A    
C38   H25   S    
Cu1   O1    S    
C43   N6    S    
C16   C18   A    
C32   H17   S    
C29   H11   S    
C10   C13   A    
C28   H7    S    
C27   H4    S    
C39   O17   S    
C29   H10   S    
C26   O4    D    
C25   O3    D    
C7    O24   S    
C42   C44   A    
C38   O16   S    
C37   O15   D    
C28   H6    S    
C33   H18   S    
C31   O9    D    
C37   H21   S    
C16   N1    S    
C17   C19   A    
C36   H20   S    
C39   H27   S    
C15   O5    S    
Cu2   N3    S    
C24   H31   S    
C30   O8    S    
C30   H15   S    
C18   O7    S    
C33   O11   D    
C20   C31   S    
C27   H3    S    
C5    O22   A    
