data_mof_unit_43781.cif
_audit_creation_date              2012-12-11T15:08:51-0500
_audit_creation_method            fapswitch 2.2
_symmetry_space_group_name_H-M    P1
_symmetry_Int_Tables_number       1
_space_group_crystal_system       triclinic
_cell_length_a                    19.421011
_cell_length_b                    11.347616
_cell_length_c                    18.635787
_cell_angle_alpha                 90.048997
_cell_angle_beta                  89.293992
_cell_angle_gamma                 89.974877
_cell_volume                      4106.68156886

loop_
_atom_site_label
_atom_site_type_symbol
_atom_type_description
_atom_site_fract_x
_atom_site_fract_y
_atom_site_fract_z
_atom_type_partial_charge
C1    C     C_R   0.272543 0.042058 0.854833 0.555917
C2    C     C_3   0.690799 0.514623 0.960495 -0.237836
C3    C     C_R   0.213487 0.510190 0.362751 0.544100
C4    C     C_R   0.471718 0.822162 0.647163 0.549002
C5    C     C_R   0.528267 0.822222 0.352830 0.549342
C6    C     C_R   0.971717 0.322163 0.647163 0.549017
C7    C     C_R   0.028266 0.322222 0.352829 0.549420
C8    C     C_R   0.271848 0.677580 0.636563 0.569370
C9    C     C_R   0.728184 0.677500 0.363446 0.569069
C10   C     C_R   0.771848 0.177580 0.636563 0.569369
C11   C     C_R   0.228184 0.177503 0.363445 0.569066
C12   C     C_3   0.471878 0.910653 0.039586 -0.109368
C13   C     C_3   0.816904 0.039616 0.044922 -0.240103
C14   C     C_3   0.511091 0.924087 0.967090 -0.111731
C15   C     C_3   0.971880 0.410653 0.039587 -0.109365
C16   C     C_3   0.011092 0.424087 0.967089 -0.111730
C17   C     C_3   0.429453 0.807968 0.008037 -0.159626
C18   C     C_3   0.565471 0.834551 0.991907 -0.162241
C19   C     C_3   0.929454 0.307969 0.008037 -0.159626
C20   C     C_3   0.065472 0.334550 0.991906 -0.162245
C21   C     C_3   0.469221 0.822116 0.936555 0.053725
C22   C     C_3   0.526120 0.821907 0.063792 0.059130
C23   C     C_3   0.969222 0.322116 0.936555 0.053725
C24   C     C_3   0.190799 0.014624 0.960495 -0.237835
C25   C     C_3   0.026122 0.321907 0.063791 0.059130
C26   C     C_3   0.324178 0.559435 0.963241 -0.234243
C27   C     C_3   0.686940 0.522723 0.043088 -0.239104
C28   C     C_3   0.824179 0.059435 0.963241 -0.234243
C29   C     C_3   0.186940 0.022724 0.043088 -0.239108
C30   C     C_3   0.186979 0.512459 0.027011 -0.220210
C31   C     C_3   0.823298 0.529427 0.973468 -0.215506
C32   C     C_3   0.686979 0.012459 0.027011 -0.220212
C33   C     C_R   0.728692 0.044937 0.146743 0.558407
C34   C     C_3   0.323298 0.029427 0.973468 -0.215515
C35   C     C_3   0.235455 0.706980 0.056460 -0.248983
C36   C     C_3   0.752473 0.702705 0.944834 -0.247272
C37   C     C_3   0.735455 0.206980 0.056460 -0.248982
C38   C     C_3   0.252473 0.202705 0.944834 -0.247269
C39   C     C_3   0.243548 0.575504 0.071012 0.061615
C40   C     C_3   0.758723 0.570906 0.931241 0.058508
C41   C     C_3   0.743548 0.075505 0.071012 0.061615
C42   C     C_3   0.258723 0.070907 0.931241 0.058508
C43   C     C_3   0.256189 0.610704 0.932456 0.046262
C44   C     C_R   0.772543 0.542058 0.854833 0.555916
C45   C     C_3   0.745525 0.604255 0.069898 0.051552
C46   C     C_3   0.756189 0.110704 0.932456 0.046260
C47   C     C_3   0.245525 0.104256 0.069898 0.051543
C48   C     C_3   0.199705 0.520092 0.945546 -0.250741
C49   C     C_3   0.814556 0.544547 0.054613 -0.244662
C50   C     C_3   0.699705 0.020092 0.945546 -0.250740
C51   C     C_3   0.314556 0.044548 0.054613 -0.244651
C52   C     C_3   0.235748 0.724089 0.974599 -0.236445
C53   C     C_3   0.740672 0.719832 0.026204 -0.235081
C54   C     C_3   0.735748 0.224089 0.974600 -0.236445
C55   C     C_R   0.228692 0.544937 0.146743 0.558405
C56   C     C_3   0.240672 0.219832 0.026203 -0.235088
C57   C     C_3   0.496979 0.695024 0.459650 -0.231012
C58   C     C_3   0.503004 0.695003 0.540232 -0.231212
C59   C     C_3   0.996980 0.195025 0.459649 -0.231020
C60   C     C_3   0.003004 0.195005 0.540232 -0.231217
C61   C     C_R   0.443052 0.817369 0.862424 0.530000
C62   C     C_R   0.554311 0.817556 0.137336 0.532369
C63   C     C_R   0.943052 0.317369 0.862425 0.529999
C64   C     C_R   0.054314 0.317556 0.137334 0.532360
C65   C     C_3   0.565805 0.887451 0.468477 -0.238767
C66   C     C_3   0.522932 0.732800 0.961387 -0.108196
C67   C     C_3   0.434156 0.887495 0.531583 -0.238819
C68   C     C_3   0.065802 0.387457 0.468476 -0.238781
C69   C     C_3   0.934153 0.387495 0.531581 -0.238840
C70   C     C_3   0.443493 0.890146 0.448613 -0.261449
C71   C     C_3   0.556471 0.890064 0.551443 -0.261878
C72   C     C_3   0.943490 0.390145 0.448612 -0.261413
C73   C     C_3   0.056468 0.390069 0.551442 -0.261868
C74   C     C_3   0.507957 0.823343 0.429870 0.060532
C75   C     C_3   0.492019 0.823290 0.570126 0.060346
C76   C     C_3   0.007955 0.323344 0.429870 0.060531
C77   C     C_3   0.483998 0.719469 0.033141 -0.109359
C78   C     C_3   0.992017 0.323291 0.570125 0.060344
C79   C     C_3   0.186077 0.657331 0.457642 -0.248153
C80   C     C_3   0.813895 0.657218 0.542395 -0.248088
C81   C     C_3   0.686077 0.157326 0.457643 -0.248153
C82   C     C_3   0.313893 0.157225 0.542396 -0.248086
C83   C     C_3   0.188746 0.676032 0.536929 -0.254997
C84   C     C_3   0.811257 0.675839 0.463108 -0.255003
C85   C     C_3   0.688744 0.176025 0.536930 -0.254997
C86   C     C_3   0.311254 0.175850 0.463109 -0.255004
C87   C     C_3   0.223446 0.453686 0.497267 -0.285568
C88   C     C_3   0.022933 0.232799 0.961386 -0.108196
C89   C     C_3   0.776466 0.453614 0.502660 -0.285539
C90   C     C_3   0.723449 0.953682 0.497266 -0.285572
C91   C     C_3   0.276471 0.953620 0.502658 -0.285538
C92   C     C_3   0.309364 0.580371 0.442188 -0.216324
C93   C     C_3   0.690590 0.580537 0.557804 -0.216404
C94   C     C_3   0.809365 0.080370 0.442188 -0.216315
C95   C     C_3   0.190590 0.080534 0.557802 -0.216407
C96   C     C_3   0.232274 0.549349 0.437176 0.030506
C97   C     C_3   0.767663 0.549358 0.562817 0.030109
C98   C     C_3   0.732275 0.049347 0.437176 0.030506
C99   C     C_3   0.983999 0.219469 0.033142 -0.109357
C100  C     C_3   0.267663 0.049361 0.562816 0.030104
C101  C     C_3   0.259031 0.626237 0.566051 0.055104
C102  C     C_3   0.740976 0.626192 0.433951 0.055419
C103  C     C_3   0.759031 0.126235 0.566051 0.055103
C104  C     C_3   0.240976 0.126196 0.433950 0.055414
C105  C     C_3   0.255350 0.490096 0.569923 0.154506
C106  C     C_3   0.744594 0.490035 0.430020 0.155268
C107  C     C_3   0.755353 0.990094 0.569924 0.154508
C108  C     C_3   0.244601 0.990041 0.430017 0.155269
C109  C     C_R   0.262238 0.642460 0.855119 0.576997
C110  C     C_3   0.316903 0.539616 0.044922 -0.240102
C111  C     C_R   0.738918 0.638074 0.146620 0.580142
C112  C     C_R   0.762238 0.142460 0.855119 0.577003
C113  C     C_R   0.238918 0.138074 0.146620 0.580185
C114  C     C_3   0.318919 0.650700 0.511544 -0.324479
C115  C     C_3   0.681090 0.650863 0.488487 -0.324449
C116  C     C_3   0.818918 0.150701 0.511544 -0.324480
C117  C     C_3   0.181088 0.150858 0.488485 -0.324442
C118  C     C_R   0.286452 0.010272 0.637243 0.544530
C119  C     C_R   0.713487 0.010190 0.362751 0.544105
C120  C     C_R   0.786452 0.510270 0.637244 0.544533
Cr1   Cr    Cr6+3 0.229620 0.836040 0.749110 1.022481
Cr2   Cr    Cr6+3 0.613980 0.676590 0.250790 1.031014
Cr3   Cr    Cr6+3 0.886020 0.176590 0.749210 1.031559
Cr4   Cr    Cr6+3 0.113980 0.176590 0.250790 1.031005
Cr5   Cr    Cr6+3 0.770380 0.836040 0.250890 1.021704
Cr6   Cr    Cr6+3 0.729620 0.336040 0.749110 1.022485
Cr7   Cr    Cr6+3 0.270380 0.336040 0.250890 1.021734
Cr8   Cr    Cr6+3 0.387630 0.990680 0.750730 1.015235
Cr9   Cr    Cr6+3 0.612370 0.990680 0.249270 1.015523
Cr10  Cr    Cr6+3 0.887630 0.490680 0.750730 1.015235
Cr11  Cr    Cr6+3 0.112370 0.490680 0.249270 1.015518
Cr12  Cr    Cr6+3 0.386020 0.676590 0.749210 1.031557
H1    H     H_    0.374477 0.791576 0.018169 0.091953
H2    H     H_    0.708684 0.738390 0.913850 0.115482
H3    H     H_    0.255825 0.872027 0.522162 0.079477
H4    H     H_    0.308364 0.452671 0.571626 0.113412
H5    H     H_    0.691562 0.452765 0.428288 0.113618
H6    H     H_    0.808367 0.952672 0.571627 0.113414
H7    H     H_    0.191570 0.952764 0.428280 0.113612
H8    H     H_    0.329462 0.447361 0.057861 0.127439
H9    H     H_    0.683552 0.424679 0.942140 0.131915
H10   H     H_    0.829462 0.947361 0.057860 0.127439
H11   H     H_    0.183552 0.924679 0.942140 0.131915
H12   H     H_    0.355501 0.593535 0.073622 0.117914
H13   H     H_    0.777104 0.257940 0.082310 0.117712
H14   H     H_    0.646327 0.562433 0.937607 0.111770
H15   H     H_    0.855502 0.093535 0.073622 0.117914
H16   H     H_    0.146327 0.062433 0.937607 0.111771
H17   H     H_    0.367933 0.619164 0.951730 0.135027
H18   H     H_    0.635331 0.557688 0.058739 0.139135
H19   H     H_    0.867933 0.119164 0.951730 0.135026
H20   H     H_    0.135331 0.057689 0.058739 0.139133
H21   H     H_    0.336755 0.474207 0.936530 0.126380
H22   H     H_    0.691775 0.434727 0.067651 0.123252
H23   H     H_    0.836756 0.974207 0.936530 0.126380
H24   H     H_    0.208684 0.238390 0.913850 0.115482
H25   H     H_    0.191774 0.934728 0.067651 0.123252
H26   H     H_    0.683718 0.922945 0.046024 0.096766
H27   H     H_    0.335832 0.939112 0.958632 0.097460
H28   H     H_    0.183718 0.422945 0.046023 0.096764
H29   H     H_    0.835832 0.439112 0.958632 0.097459
H30   H     H_    0.715971 0.934124 0.923253 0.123381
H31   H     H_    0.317005 0.957912 0.082142 0.120003
H32   H     H_    0.215971 0.434124 0.923253 0.123379
H33   H     H_    0.817006 0.457911 0.082142 0.119980
H34   H     H_    0.619710 0.961617 0.713044 0.370184
H35   H     H_    0.270098 0.796180 0.959206 0.105511
H36   H     H_    0.379441 0.962604 0.285897 0.369551
H37   H     H_    0.119717 0.461637 0.713063 0.370160
H38   H     H_    0.879345 0.462717 0.285800 0.369572
H39   H     H_    0.687450 0.747474 0.035689 0.099534
H40   H     H_    0.770098 0.296180 0.959206 0.105510
H41   H     H_    0.187450 0.247475 0.035689 0.099532
H42   H     H_    0.182015 0.745463 0.959592 0.132055
H43   H     H_    0.776950 0.786287 0.046071 0.134692
H44   H     H_    0.682015 0.245463 0.959592 0.132055
H45   H     H_    0.618013 0.838724 0.971109 0.098364
H46   H     H_    0.276950 0.286287 0.046071 0.134689
H47   H     H_    0.635547 0.052085 0.038873 0.142248
H48   H     H_    0.369487 0.081359 0.956816 0.141682
H49   H     H_    0.135547 0.552085 0.038873 0.142247
H50   H     H_    0.869487 0.581359 0.956816 0.141682
H51   H     H_    0.151319 0.545998 0.918300 0.129781
H52   H     H_    0.857124 0.600257 0.075135 0.131724
H53   H     H_    0.651319 0.045998 0.918300 0.129786
H54   H     H_    0.357124 0.100258 0.075135 0.131735
H55   H     H_    0.530893 0.625518 0.438006 0.140934
H56   H     H_    0.874478 0.291577 0.018170 0.091952
H57   H     H_    0.469104 0.625562 0.561824 0.140831
H58   H     H_    0.030893 0.125519 0.438006 0.140932
H59   H     H_    0.969104 0.125562 0.561824 0.140831
H60   H     H_    0.445441 0.663142 0.443993 0.118662
H61   H     H_    0.554537 0.663060 0.555870 0.118620
H62   H     H_    0.945442 0.163141 0.443993 0.118663
H63   H     H_    0.054538 0.163064 0.555870 0.118624
H64   H     H_    0.612746 0.843017 0.449744 0.090387
H65   H     H_    0.387217 0.843154 0.550285 0.090297
H66   H     H_    0.112744 0.343026 0.449743 0.090383
H67   H     H_    0.118013 0.338723 0.971108 0.098365
H68   H     H_    0.887215 0.343153 0.550285 0.090294
H69   H     H_    0.599456 0.845638 0.577455 0.200386
H70   H     H_    0.400536 0.845731 0.422530 0.200978
H71   H     H_    0.099454 0.345643 0.577453 0.200396
H72   H     H_    0.900535 0.345727 0.422529 0.201008
H73   H     H_    0.453348 0.984298 0.073635 0.118047
H74   H     H_    0.521941 0.009186 0.939899 0.116906
H75   H     H_    0.953349 0.484299 0.073635 0.118035
H76   H     H_    0.021942 0.509185 0.939898 0.116904
H77   H     H_    0.446774 0.982624 0.429175 0.156674
H78   H     H_    0.185769 0.739487 0.079230 0.138579
H79   H     H_    0.553160 0.982543 0.570975 0.156712
H80   H     H_    0.946766 0.482620 0.429170 0.156670
H81   H     H_    0.053157 0.482548 0.570974 0.156718
H82   H     H_    0.431143 0.980239 0.550333 0.129480
H83   H     H_    0.568822 0.980201 0.449823 0.129257
H84   H     H_    0.931140 0.480239 0.550331 0.129478
H85   H     H_    0.068817 0.480207 0.449822 0.129257
H86   H     H_    0.131073 0.644817 0.443987 0.122611
H87   H     H_    0.868891 0.644646 0.556057 0.122572
H88   H     H_    0.631072 0.144812 0.443988 0.122612
H89   H     H_    0.799880 0.750135 0.927135 0.135050
H90   H     H_    0.368889 0.144655 0.556059 0.122574
H91   H     H_    0.203715 0.737544 0.429266 0.206534
H92   H     H_    0.796279 0.737515 0.570801 0.206658
H93   H     H_    0.703714 0.237541 0.429268 0.206541
H94   H     H_    0.296276 0.237520 0.570805 0.206661
H95   H     H_    0.175866 0.768380 0.550260 0.113462
H96   H     H_    0.824144 0.768160 0.449865 0.113486
H97   H     H_    0.675861 0.268371 0.550261 0.113465
H98   H     H_    0.324140 0.268172 0.449867 0.113478
H99   H     H_    0.145084 0.627703 0.562133 0.191377
H100  H     H_    0.685769 0.239487 0.079230 0.138582
H101  H     H_    0.854905 0.627393 0.437872 0.191362
H102  H     H_    0.645084 0.127692 0.562133 0.191378
H103  H     H_    0.354905 0.127411 0.437874 0.191375
H104  H     H_    0.671314 0.948831 0.511710 0.142544
H105  H     H_    0.328598 0.948615 0.488237 0.142626
H106  H     H_    0.171310 0.448841 0.511711 0.142548
H107  H     H_    0.828593 0.448602 0.488235 0.142622
H108  H     H_    0.341018 0.498499 0.444676 0.103424
H109  H     H_    0.658916 0.498736 0.555230 0.103268
H110  H     H_    0.841019 0.998499 0.444679 0.103417
H111  H     H_    0.299880 0.250136 0.927135 0.135050
H112  H     H_    0.158918 0.998731 0.555229 0.103271
H113  H     H_    0.330372 0.624979 0.394497 0.208114
H114  H     H_    0.669573 0.625187 0.605534 0.208200
H115  H     H_    0.830374 0.124972 0.394497 0.208119
H116  H     H_    0.169572 0.125186 0.605532 0.208199
H117  H     H_    0.543446 0.658336 0.929105 0.127393
H118  H     H_    0.473990 0.633544 0.059626 0.123283
H119  H     H_    0.043446 0.158335 0.929104 0.127394
H120  H     H_    0.973990 0.133544 0.059626 0.123283
H121  H     H_    0.321163 0.740774 0.493822 0.146245
H122  H     H_    0.277104 0.757940 0.082310 0.117718
H123  H     H_    0.678910 0.740944 0.506300 0.146525
H124  H     H_    0.821159 0.240775 0.493821 0.146252
H125  H     H_    0.178901 0.240940 0.506297 0.146519
H126  H     H_    0.367407 0.625809 0.536098 0.110918
H127  H     H_    0.632588 0.626153 0.463897 0.110990
H128  H     H_    0.867407 0.125815 0.536098 0.110917
H129  H     H_    0.132588 0.126138 0.463894 0.110989
H130  H     H_    0.244069 0.372042 0.477660 0.079482
H131  H     H_    0.755818 0.372023 0.522166 0.079477
H132  H     H_    0.744078 0.872042 0.477659 0.079482
O1    O     O_R   0.214130 0.708570 0.829890 -0.514716
O2    O     O_R   0.542830 0.717300 0.331620 -0.534007
O3    O     O_R   0.957170 0.217300 0.668380 -0.533819
O4    O     O_R   0.042830 0.217300 0.331620 -0.534014
O5    O     O_R   0.320870 0.624890 0.673130 -0.459829
O6    O     O_R   0.679130 0.624890 0.326870 -0.460466
O7    O     O_R   0.820870 0.124890 0.673130 -0.459829
O8    O     O_R   0.179130 0.124890 0.326870 -0.460487
O9    O     O_3   0.334430 0.834430 0.749680 -0.333048
O10   O     O_3   0.665570 0.834430 0.250320 -0.328988
O11   O     O_3   0.834430 0.334430 0.749680 -0.333051
O12   O     O_R   0.785870 0.708570 0.170110 -0.517950
O13   O     O_3   0.165570 0.334430 0.250320 -0.328999
O14   O     O_R   0.236050 0.959150 0.825270 -0.512911
O15   O     O_R   0.763950 0.959150 0.174730 -0.512096
O16   O     O_R   0.736050 0.459150 0.825270 -0.512912
O17   O     O_R   0.263950 0.459150 0.174730 -0.512100
O18   O     O_R   0.332100 0.076650 0.832310 -0.517791
O19   O     O_R   0.667900 0.076650 0.167690 -0.519293
O20   O     O_R   0.832100 0.576650 0.832310 -0.517791
O21   O     O_R   0.167900 0.576650 0.167690 -0.519299
O22   O     O_R   0.446500 0.918620 0.826240 -0.504657
O23   O     O_R   0.714130 0.208570 0.829890 -0.514711
O24   O     O_R   0.553500 0.918620 0.173760 -0.504924
O25   O     O_R   0.946500 0.418620 0.826240 -0.504659
O26   O     O_R   0.053500 0.418620 0.173760 -0.504919
O27   O     O_R   0.457310 0.715830 0.831280 -0.522189
O28   O     O_R   0.542690 0.715830 0.168720 -0.521942
O29   O     O_R   0.957310 0.215830 0.831280 -0.522188
O30   O     O_R   0.042690 0.215830 0.168720 -0.521936
O31   O     O_R   0.321000 0.623520 0.824130 -0.492964
O32   O     O_R   0.679000 0.623520 0.175870 -0.494576
O33   O     O_R   0.821000 0.123520 0.824130 -0.492964
O34   O     O_R   0.285870 0.208570 0.170110 -0.517917
O35   O     O_R   0.179000 0.123520 0.175870 -0.494586
O36   O     O_R   0.213990 0.710040 0.667000 -0.464277
O37   O     O_R   0.786010 0.710040 0.333000 -0.465771
O38   O     O_R   0.713990 0.210040 0.667000 -0.464273
O39   O     O_R   0.286010 0.210040 0.333000 -0.465736
O40   O     O_R   0.235920 0.960520 0.674260 -0.514010
O41   O     O_R   0.764080 0.960520 0.325740 -0.514830
O42   O     O_R   0.735920 0.460520 0.674260 -0.514012
O43   O     O_R   0.264080 0.460520 0.325740 -0.514834
O44   O     O_R   0.331960 0.078120 0.669410 -0.490310
O45   O     O_R   0.446360 0.919990 0.675230 -0.516295
O46   O     O_R   0.668040 0.078120 0.330590 -0.491304
O47   O     O_R   0.831960 0.578120 0.669410 -0.490307
O48   O     O_R   0.168040 0.578120 0.330590 -0.491315
O49   O     O_2   0.697795 0.804808 0.642898 -0.374791
O50   O     O_2   0.760026 0.941443 0.714622 -0.228398
O51   O     O_3   0.639747 0.004224 0.671395 -0.548033
O52   O     O_2   0.302237 0.804535 0.357038 -0.373953
O53   O     O_2   0.239814 0.940936 0.285382 -0.232944
O54   O     O_3   0.360127 0.003869 0.328479 -0.548869
O55   O     O_2   0.197789 0.304810 0.642898 -0.374784
O56   O     O_R   0.553640 0.919990 0.324770 -0.516429
O57   O     O_2   0.260023 0.441445 0.714622 -0.228416
O58   O     O_3   0.139745 0.504230 0.671393 -0.547993
O59   O     O_2   0.802243 0.304530 0.357046 -0.373915
O60   O     O_2   0.739775 0.440884 0.285398 -0.233042
O61   O     O_3   0.860096 0.503882 0.328453 -0.548833
O62   O     O_R   0.946360 0.419990 0.675230 -0.516292
O63   O     O_R   0.053640 0.419990 0.324770 -0.516409
O64   O     O_R   0.457170 0.717300 0.668380 -0.533819
S1    S     S_3+6 0.713179 0.932254 0.651347 -0.034463
S2    S     S_3+6 0.286751 0.931945 0.348589 -0.036034
S3    S     S_3+6 0.213176 0.432256 0.651346 -0.034464
S4    S     S_3+6 0.786735 0.431931 0.348590 -0.036057

loop_
_geom_bond_atom_site_label_1
_geom_bond_atom_site_label_2
_ccdc_geom_bond_type
C37   H100  S    
C9    O6    A    
C31   H29   S    
C4    O64   A    
C113  O34   A    
C46   C112  S    
C11   O8    A    
C34   C42   S    
C33   O19   A    
C14   C21   S    
C90   C107  S    
Cr2   O10   S    
C54   H44   S    
C5    C74   S    
Cr9   O19   S    
C36   C53   S    
C18   H45   S    
C89   C106  S    
C70   C74   S    
C35   H122  S    
C91   C100  S    
C94   H115  S    
C85   C103  S    
C59   C60   S    
C87   H106  S    
Cr9   O10   S    
Cr2   O28   S    
C57   H60   S    
Cr1   O1    S    
Cr11  O21   S    
C19   C99   S    
C61   O27   A    
C81   H88   S    
Cr4   O4    S    
C17   C21   S    
C19   C23   S    
C19   H56   S    
C49   H52   S    
C16   C20   S    
C91   H105  S    
C13   H10   S    
C87   H130  S    
Cr4   O35   S    
C48   H32   S    
C71   H79   S    
C10   O7    A    
C14   H74   S    
C17   H1    S    
C120  O47   A    
C104  C117  S    
C116  H124  S    
C66   C77   S    
C26   H17   S    
C10   O38   A    
C45   C111  S    
C82   H90   S    
C58   H61   S    
O57   S3    D    
C12   H73   S    
C107  H6    S    
C103  C116  S    
C79   C96   S    
C115  H127  S    
Cr7   O34   S    
C62   O24   A    
Cr8   O9    S    
C57   H55   S    
C88   C99   S    
C65   C74   S    
C2    C40   S    
C81   C98   S    
C55   O17   A    
C16   H76   S    
C103  C107  S    
C77   H118  S    
C70   H70   S    
C2    H14   S    
Cr8   O44   S    
C21   C66   S    
C50   H30   S    
C84   C102  S    
C3    O48   A    
Cr8   O18   S    
C86   C104  S    
C56   H46   S    
C95   C117  S    
C38   H111  S    
C82   H94   S    
C28   C46   S    
C34   C51   S    
C29   C47   S    
C30   C48   S    
C65   H83   S    
C43   C52   S    
C6    C78   S    
C24   H11   S    
C12   C22   S    
C63   O29   A    
Cr1   O36   S    
C64   O26   A    
C2    H9    S    
C6    O62   A    
C8    O36   A    
C119  O46   A    
C32   C41   S    
C89   H131  S    
C90   H132  S    
C65   H64   S    
Cr5   O37   S    
C34   H27   S    
C27   H22   S    
C45   C53   S    
Cr3   O33   S    
C69   H84   S    
Cr4   O30   S    
Cr3   O11   S    
C92   C96   S    
C105  S3    S    
C54   H40   S    
C109  O1    A    
C53   H39   S    
C106  H5    S    
C109  O31   A    
C111  O12   A    
C62   O28   A    
Cr8   O45   S    
C25   C64   S    
C69   C72   S    
C28   H23   S    
C87   C105  S    
Cr12  O27   S    
C61   O22   A    
C115  H123  S    
C11   C104  S    
C27   H18   S    
C23   C88   S    
C7    O63   A    
C67   C75   S    
C13   H15   S    
Cr3   O29   S    
C93   C97   S    
C35   C52   S    
Cr2   O2    S    
Cr3   O7    S    
C92   H108  S    
C119  O41   A    
C18   C22   S    
C36   H2    S    
C108  H7    S    
Cr11  O63   S    
C79   H91   S    
C7    C76   S    
C16   C23   S    
C67   C70   S    
C68   H85   S    
C51   H54   S    
C93   H109  S    
C57   C58   S    
C44   O16   A    
C83   H99   S    
Cr12  O9    S    
Cr10  O25   S    
O52   S2    D    
C30   C39   S    
C37   C41   S    
Cr9   O56   S    
C40   C44   S    
C38   C56   S    
C28   H19   S    
C67   H82   S    
O59   S4    D    
C43   C109  S    
C59   C76   S    
C15   H75   S    
O50   S1    D    
C47   C56   S    
H37   O58   S    
C52   H42   S    
C24   C42   S    
C34   H48   S    
C80   C84   S    
C80   H87   S    
C13   C41   S    
Cr2   O32   S    
C15   C19   S    
C53   H43   S    
C10   C103  S    
C35   H78   S    
C52   H35   S    
C80   C97   S    
C20   C25   S    
C94   C98   S    
C106  S4    S    
C44   O20   A    
C55   O21   A    
C31   C40   S    
O49   S1    D    
C89   H107  S    
C24   C29   S    
C4    C75   S    
C102  C115  S    
Cr10  O62   S    
C25   C99   S    
C39   C55   S    
C9    C102  S    
C12   C17   S    
C69   H68   S    
C13   C28   S    
C51   H31   S    
C2    C27   S    
C112  O23   A    
C83   C101  S    
C8    C101  S    
O51   S1    S    
C21   C61   S    
C95   H112  S    
C72   H72   S    
C117  H129  S    
C27   C45   S    
C23   C63   S    
C5    O2    A    
C113  O35   A    
C92   H113  S    
C101  C114  S    
C73   H81   S    
C31   C49   S    
Cr5   O10   S    
Cr9   O24   S    
Cr1   O40   S    
C85   H102  S    
C86   H98   S    
Cr1   O14   S    
Cr12  O5    S    
C94   C116  S    
C95   C100  S    
C47   C51   S    
Cr4   O8    S    
C82   C86   S    
C35   C39   S    
C49   H33   S    
C80   H92   S    
C73   H71   S    
Cr6   O38   S    
C45   C49   S    
C60   C78   S    
C46   C54   S    
C17   C77   S    
C90   H104  S    
Cr7   O13   S    
C110  H12   S    
C88   H119  S    
C31   H50   S    
C30   H49   S    
C18   C66   S    
C104  C108  S    
C47   C113  S    
C114  H121  S    
C91   C108  S    
C86   H103  S    
C22   C77   S    
C99   H120  S    
C67   H65   S    
C48   H51   S    
C29   H25   S    
Cr4   O13   S    
C38   C42   S    
O53   S2    D    
Cr11  O48   S    
Cr12  O31   S    
C56   H41   S    
C33   C41   S    
C108  S2    S    
C1    O14   A    
C79   C83   S    
O55   S3    D    
C20   C88   S    
Cr1   O9    S    
Cr11  O13   S    
C15   C25   S    
C93   H114  S    
Cr2   O6    S    
Cr3   O3    S    
C1    C42   S    
C91   H3    S    
C6    O3    A    
C120  O42   A    
C59   H58   S    
H34   O51   S    
C5    O56   A    
C58   C75   S    
Cr5   O12   S    
Cr6   O11   S    
C14   C18   S    
C38   H24   S    
C72   C76   S    
C98   C119  S    
C83   H95   S    
C30   H28   S    
C81   H93   S    
Cr6   O42   S    
Cr7   O39   S    
C1    O18   A    
C4    O45   A    
C15   C16   S    
O61   S4    S    
C68   H66   S    
C93   C115  S    
Cr10  O20   S    
C39   C110  S    
C118  O44   A    
C73   C78   S    
C32   H47   S    
C102  C106  S    
C3    C96   S    
C43   C48   S    
C26   C110  S    
C116  H128  S    
C66   H117  S    
Cr7   O43   S    
Cr6   O23   S    
Cr5   O41   S    
C69   C78   S    
C26   C43   S    
C32   H26   S    
Cr10  O47   S    
C59   H62   S    
C101  C105  S    
C36   C40   S    
H36   O54   S    
C24   H16   S    
C79   H86   S    
Cr5   O15   S    
C68   C73   S    
C65   C71   S    
Cr6   O16   S    
C85   H97   S    
C89   C97   S    
C57   C74   S    
C20   H67   S    
C9    O37   A    
C8    O5    A    
C95   H116  S    
C22   C62   S    
C117  H125  S    
C11   O39   A    
Cr12  O64   S    
C87   C96   S    
C58   H57   S    
C118  O40   A    
C68   C76   S    
C114  H126  S    
C32   C50   S    
C105  H4    S    
C37   C54   S    
C12   C14   S    
C84   H96   S    
C33   O15   A    
C71   H69   S    
C111  O32   A    
Cr11  O26   S    
C82   C100  S    
H38   O61   S    
C26   H21   S    
Cr9   O46   S    
O60   S4    D    
C46   C50   S    
C112  O33   A    
Cr7   O17   S    
C97   C120  S    
C110  H8    S    
C84   H101  S    
C94   H110  S    
Cr8   O22   S    
C29   H20   S    
C71   C75   S    
C72   H80   S    
C60   H59   S    
O58   S3    S    
C36   H89   S    
C107  S1    S    
C7    O4    A    
C81   C85   S    
C100  C118  S    
C60   H63   S    
C63   O25   A    
C70   H77   S    
C3    O43   A    
O54   S2    S    
C64   O30   A    
C37   H13   S    
Cr10  O11   S    
C50   H53   S    
C92   C114  S    
C90   C98   S    
