data_mof_unit_17046.cif
_audit_creation_date              2012-12-10T20:49:08-0500
_audit_creation_method            fapswitch 2.2
_symmetry_space_group_name_H-M    P1
_symmetry_Int_Tables_number       1
_space_group_crystal_system       triclinic
_cell_length_a                    8.92623
_cell_length_b                    8.218251
_cell_length_c                    10.554023
_cell_angle_alpha                 86.485959
_cell_angle_beta                  90.405457
_cell_angle_gamma                 90.380574
_cell_volume                      772.732019526

loop_
_atom_site_label
_atom_site_type_symbol
_atom_type_description
_atom_site_fract_x
_atom_site_fract_y
_atom_site_fract_z
_atom_type_partial_charge
C1    C     C_R   0.218471 0.499662 0.500712 0.951603
C2    C     C_3   0.644553 0.495510 0.054254 -0.104695
C3    C     C_3   0.525692 0.491030 0.876952 -0.197817
C4    C     C_3   0.494081 0.512783 0.121521 -0.189687
C5    C     C_1   0.065338 0.499625 0.502090 -0.186882
C6    C     C_1   0.934737 0.500654 0.502787 -0.192154
C7    C     C_2   0.224326 0.494113 0.880039 0.893885
C8    C     C_2   0.791168 0.483958 0.127834 0.897798
C9    C     C_3   0.347860 0.792956 0.046240 -0.373210
C10   C     C_3   0.310234 0.892586 0.922797 -0.746018
C11   C     C_3   0.661956 0.208506 0.948982 -0.403040
C12   C     C_R   0.781547 0.500286 0.501869 0.944852
C13   C     C_3   0.684988 0.094458 0.067521 -0.782502
C14   C     C_3   0.726263 0.740713 0.901786 -0.343301
C15   C     C_3   0.694520 0.859777 0.788557 -0.798690
C16   C     C_3   0.323116 0.238851 0.098907 -0.394466
C17   C     C_3   0.185396 0.298319 0.166689 -0.828666
C18   C     C_R   0.491344 0.504734 0.257071 0.916901
C19   C     C_R   0.519778 0.496091 0.741529 0.906938
C20   C     C_3   0.443916 0.645627 0.021202 0.091611
C21   C     C_3   0.576051 0.360178 0.977556 0.082701
C22   C     C_3   0.596260 0.628527 0.951391 0.085944
C23   C     C_3   0.425575 0.377088 0.045929 0.121438
C24   C     C_3   0.375161 0.507428 0.945032 -0.048216
H1    H     H_    0.088399 0.360546 0.773103 0.329673
H2    H     H_    0.804981 0.061125 0.078168 0.261725
H3    H     H_    0.598558 0.146774 0.875683 0.216804
H4    H     H_    0.772341 0.245943 0.908319 0.199875
H5    H     H_    0.722418 0.803896 0.698968 0.278762
H6    H     H_    0.576797 0.899720 0.785505 0.267342
H7    H     H_    0.769718 0.967357 0.792716 0.235913
H8    H     H_    0.770574 0.808873 0.980749 0.242025
H9    H     H_    0.819168 0.661488 0.873448 0.244149
H10   H     H_    0.215693 0.379827 0.242496 0.246952
H11   H     H_    0.109333 0.363991 0.098246 0.289009
H12   H     H_    0.910346 0.367402 0.268145 0.336733
H13   H     H_    0.123707 0.191477 0.210219 0.254485
H14   H     H_    0.281878 0.173024 0.018360 0.238311
H15   H     H_    0.386642 0.154051 0.164463 0.227807
H16   H     H_    0.392650 0.991851 0.906288 0.227939
H17   H     H_    0.312021 0.818999 0.838285 0.279720
H18   H     H_    0.196586 0.945553 0.928858 0.261670
H19   H     H_    0.242095 0.747693 0.091213 0.244338
H20   H     H_    0.403696 0.869327 0.115402 0.191309
H21   H     H_    0.648359 0.147855 0.155752 0.300873
H22   H     H_    0.617626 0.983063 0.059241 0.238471
N1    N     N_1   0.500000 0.073640 0.500000 -0.036764
N2    N     N_1   0.500000 0.926360 0.500000 -0.048487
O1    O     O_R   0.285350 0.636850 0.500000 -0.611812
O2    O     O_R   0.194254 0.359947 0.808553 -0.811989
O3    O     O_2   0.891641 0.583085 0.106268 -0.649851
O4    O     O_R   0.809706 0.361536 0.224014 -0.802421
O5    O     O_R   0.714650 0.363150 0.500000 -0.599978
O6    O     O_R   0.714650 0.636850 0.500000 -0.629261
O7    O     O_R   0.285350 0.363150 0.500000 -0.604349
O8    O     O_R   0.499970 0.636850 0.313950 -0.634941
O9    O     O_R   0.500030 0.363150 0.686050 -0.606778
O10   O     O_R   0.500030 0.636850 0.686050 -0.628595
O11   O     O_R   0.499970 0.363150 0.313950 -0.592414
O12   O     O_2   0.127298 0.595488 0.893590 -0.629436
Zn1   Zn    Zn3+2 0.500000 0.682780 0.500000 0.969152
Zn2   Zn    Zn3+2 0.500000 0.317220 0.500000 0.999712

loop_
_geom_bond_atom_site_label_1
_geom_bond_atom_site_label_2
_ccdc_geom_bond_type
C2    C22   S    
C2    C4    S    
C23   C24   S    
C3    C19   S    
O6    Zn1   S    
C11   H3    S    
C10   H18   S    
O10   Zn1   S    
C9    C10   S    
C8    O4    S    
C9    C20   S    
N1    N2    T    
H12   O4    S    
C18   O8    A    
C4    C18   S    
C14   C22   S    
C14   H9    S    
C1    O7    A    
O9    Zn2   S    
O8    Zn1   S    
C14   H8    S    
C17   H13   S    
C19   O9    A    
C10   H17   S    
C13   H21   S    
C11   C13   S    
C8    O3    D    
N2    Zn1   S    
C13   H22   S    
C2    C21   S    
C11   H4    S    
N1    Zn2   S    
C1    C5    S    
C20   C22   S    
C7    O12   D    
C15   H5    S    
C16   C23   S    
C21   C23   S    
C19   O10   A    
C6    C12   S    
C5    C6    T    
C2    C8    S    
C13   H2    S    
C9    H19   S    
C3    C21   S    
C17   H10   S    
C16   H15   S    
C7    C24   S    
C4    C20   S    
O7    Zn2   S    
C20   C24   S    
C18   O11   A    
O1    Zn1   S    
C15   H6    S    
C10   H16   S    
O5    Zn2   S    
C16   H14   S    
C4    C23   S    
C9    H20   S    
H1    O2    S    
O11   Zn2   S    
C17   H11   S    
C14   C15   S    
C1    O1    A    
C15   H7    S    
C11   C21   S    
C12   O6    A    
C12   O5    A    
C7    O2    S    
C3    C24   S    
C16   C17   S    
C3    C22   S    
