data_mof_unit_53494.cif
_audit_creation_date              2012-12-10T18:13:36-0500
_audit_creation_method            fapswitch 2.2
_symmetry_space_group_name_H-M    P1
_symmetry_Int_Tables_number       1
_space_group_crystal_system       triclinic
_cell_length_a                    12.591269
_cell_length_b                    13.160336
_cell_length_c                    16.736687
_cell_angle_alpha                 90.817576
_cell_angle_beta                  98.173036
_cell_angle_gamma                 97.882849
_cell_volume                      2717.63644922

loop_
_atom_site_label
_atom_site_type_symbol
_atom_type_description
_atom_site_fract_x
_atom_site_fract_y
_atom_site_fract_z
_atom_type_partial_charge
C1    C     C_R   0.560284 0.691288 0.513145 0.853694
C2    C     C_R   0.486966 0.525002 0.736731 -0.034376
C3    C     C_R   0.281662 0.052712 0.531530 -0.213388
C4    C     C_R   0.515204 0.503034 0.349716 0.858201
C5    C     C_R   0.402076 0.196653 0.491302 -0.080034
C6    C     C_R   0.704635 0.838567 0.512133 -0.189460
C7    C     C_R   0.736696 0.943584 0.510136 -0.149654
C8    C     C_R   0.662085 0.011079 0.516331 -0.193498
C9    C     C_R   0.554675 0.973986 0.528785 0.097620
C10   C     C_R   0.529138 0.869361 0.544795 0.082684
C11   C     C_R   0.470470 0.035755 0.523389 0.075273
C12   C     C_R   0.623691 0.509772 0.236712 -0.204860
C13   C     C_R   0.367991 0.995712 0.543970 0.128269
C14   C     C_R   0.352036 0.897903 0.574561 -0.241150
C15   C     C_R   0.432426 0.835704 0.576109 -0.192995
C16   C     C_R   0.439068 0.307783 0.490028 0.873530
C17   C     C_R   0.483926 0.134650 0.494656 -0.306570
C18   C     C_R   0.296103 0.151798 0.501987 0.196123
C19   C     C_R   0.599660 0.800742 0.526702 -0.115921
C20   C     C_R   0.902307 0.356391 0.617749 -0.313424
C21   C     C_R   0.209624 0.626117 0.403423 0.023267
C22   C     C_R   0.107352 0.654700 0.383697 -0.255184
C23   C     C_R   0.582584 0.542575 0.872802 -0.148246
C24   C     C_R   0.022520 0.608401 0.421387 -0.201941
C25   C     C_R   0.040205 0.532990 0.479348 0.018260
C26   C     C_R   0.146209 0.507470 0.497773 0.231414
C27   C     C_R   0.957400 0.481456 0.519138 -0.013939
C28   C     C_R   0.487507 0.504914 0.650992 0.843938
C29   C     C_R   0.982955 0.408695 0.578372 0.201788
C30   C     C_R   0.088372 0.387506 0.596797 -0.301446
C31   C     C_R   0.168158 0.434398 0.555471 -0.225495
C32   C     C_R   0.849279 0.498057 0.502127 -0.057956
C33   C     C_R   0.796943 0.376146 0.597859 0.003845
C34   C     C_R   0.577199 0.511301 0.792721 -0.207934
C35   C     C_R   0.533351 0.534540 0.269178 -0.031804
C36   C     C_R   0.468711 0.602418 0.229304 -0.204638
C37   C     C_R   0.491743 0.642178 0.156566 -0.160669
C38   C     C_R   0.578002 0.612370 0.121737 0.204949
C39   C     C_R   0.645854 0.548630 0.163111 -0.171733
C40   C     C_3   0.195785 0.201816 0.481076 -0.908469
C41   C     C_R   0.400860 0.568116 0.762189 -0.204225
C42   C     C_R   0.406502 0.599754 0.842278 -0.181219
C43   C     C_R   0.498060 0.589013 0.897679 0.206401
C44   C     C_2   0.586747 0.630960 0.037035 -0.244562
C45   C     C_2   0.496730 0.615021 0.982659 -0.229660
H1    H     H_    0.401292 0.626234 0.254821 0.149997
H2    H     H_    0.733002 0.337018 0.627687 0.134375
H3    H     H_    0.644147 0.477384 0.774620 0.155517
H4    H     H_    0.108660 0.331869 0.641590 0.153779
H5    H     H_    0.920510 0.300719 0.662978 0.143542
H6    H     H_    0.821755 0.551551 0.458512 0.125585
H7    H     H_    0.276156 0.661760 0.374511 0.133959
H8    H     H_    0.944831 0.633549 0.404224 0.136122
H9    H     H_    0.093855 0.712498 0.339437 0.148530
H10   H     H_    0.245797 0.409678 0.568329 0.224014
H11   H     H_    0.330210 0.579682 0.720065 0.163011
H12   H     H_    0.339428 0.632893 0.861035 0.127787
H13   H     H_    0.417421 0.608202 0.002199 0.150466
H14   H     H_    0.712521 0.524846 0.136560 0.125751
H15   H     H_    0.651785 0.527845 0.914897 0.123668
H16   H     H_    0.676306 0.459744 0.267732 0.153732
H17   H     H_    0.666427 0.636861 0.018437 0.146473
H18   H     H_    0.440058 0.693462 0.126225 0.128952
H19   H     H_    0.206254 0.267046 0.440771 0.269368
H20   H     H_    0.130302 0.145490 0.447445 0.231746
H21   H     H_    0.168012 0.224957 0.537486 0.241015
H22   H     H_    0.275958 0.868035 0.594524 0.148410
H23   H     H_    0.202007 0.019127 0.543371 0.141619
H24   H     H_    0.559198 0.166253 0.475317 0.167534
H25   H     H_    0.760979 0.786981 0.500092 0.153710
H26   H     H_    0.691286 0.091507 0.512327 0.132558
H27   H     H_    0.818181 0.972610 0.499894 0.140739
H28   H     H_    0.417297 0.760484 0.600876 0.172735
N1    N     N_R   0.774070 0.445420 0.541180 -0.100882
N2    N     N_R   0.226730 0.554050 0.459240 -0.132045
O1    O     O_R   0.631480 0.627510 0.519670 -0.612215
O2    O     O_R   0.455770 0.662400 0.493360 -0.618017
O3    O     O_R   0.598240 0.480510 0.398910 -0.617006
O4    O     O_R   0.422540 0.515400 0.372600 -0.618472
O5    O     O_R   0.544230 0.337600 0.506640 -0.614013
O6    O     O_R   0.368520 0.372490 0.480330 -0.625625
O7    O     O_R   0.577460 0.484600 0.627400 -0.613201
O8    O     O_R   0.401760 0.519490 0.601090 -0.645072
Zn1   Zn    Zn3+2 0.617320 0.476700 0.517570 0.937208
Zn2   Zn    Zn3+2 0.382680 0.523300 0.482430 0.919843

loop_
_geom_bond_atom_site_label_1
_geom_bond_atom_site_label_2
_ccdc_geom_bond_type
C17   H24   S    
C27   C29   A    
C1    O2    A    
C41   C42   A    
C3    H23   S    
O5    Zn1   S    
O1    Zn1   S    
C7    C8    A    
C22   H9    S    
C4    O3    A    
C6    C19   A    
C29   C30   A    
C36   C37   A    
C41   H11   S    
C10   C15   A    
C32   N1    A    
C38   C39   A    
C5    C17   A    
C2    C41   A    
C23   C43   A    
C3    C18   A    
C18   C40   S    
C5    C16   S    
C20   H5    S    
N2    Zn2   S    
C35   C36   A    
C8    C9    A    
C14   H22   S    
C36   H1    S    
C9    C10   A    
C3    C13   A    
C2    C34   A    
C4    C35   S    
O2    Zn2   S    
C26   C31   A    
C40   H21   S    
C13   C14   A    
C28   O8    A    
C42   H12   S    
C37   H18   S    
C20   C29   A    
C23   H15   S    
C45   H13   S    
C1    C19   S    
C28   O7    A    
C24   C25   A    
C4    O4    A    
C7    H27   S    
C5    C18   A    
C44   H17   S    
C24   H8    S    
C16   O5    A    
C32   H6    S    
C38   C44   S    
C37   C38   A    
C43   C45   S    
C10   C19   A    
C23   C34   A    
C39   H14   S    
C26   N2    A    
C12   C35   A    
C9    C11   A    
C20   C33   A    
C15   H28   S    
C30   H4    S    
O7    Zn1   S    
C40   H20   S    
C33   H2    S    
C22   C24   A    
C34   H3    S    
C42   C43   A    
O4    Zn2   S    
C44   C45   D    
C6    H25   S    
C11   C17   A    
C8    H26   S    
O8    Zn2   S    
C27   C32   A    
C1    O1    A    
N1    Zn1   S    
C6    C7    A    
C25   C27   A    
C21   N2    A    
C40   H19   S    
C12   C39   A    
C25   C26   A    
C12   H16   S    
C11   C13   A    
C30   C31   A    
C16   O6    A    
O3    Zn1   S    
C33   N1    A    
C14   C15   A    
C2    C28   S    
C31   H10   S    
C21   C22   A    
C21   H7    S    
O6    Zn2   S    
