data_mof_unit_45574.cif
_audit_creation_date              2013-03-05T15:46:18-0500
_audit_creation_method            fapswitch 2.2
_symmetry_space_group_name_H-M    P1
_symmetry_Int_Tables_number       1
_space_group_crystal_system       triclinic
_cell_length_a                    17.385264
_cell_length_b                    24.653722
_cell_length_c                    14.777363
_cell_angle_alpha                 90.001961
_cell_angle_beta                  126.091064
_cell_angle_gamma                 90.00142
_cell_volume                      5118.18562621

loop_
_atom_site_label
_atom_site_type_symbol
_atom_site_description
_atom_site_fract_x
_atom_site_fract_y
_atom_site_fract_z
_atom_type_partial_charge
C1    C     C_R   0.808980 0.625031 0.908236 0.281394
C2    C     C_R   0.150897 0.348174 0.091483 0.249418
C3    C     C_R   0.150916 0.651804 0.091547 0.251021
C4    C     C_R   0.808834 0.375179 0.908142 0.280000
C5    C     C_R   0.308827 0.124807 0.908139 0.279954
C6    C     C_R   0.650987 0.848220 0.091543 0.251481
C7    C     C_R   0.651019 0.151793 0.091492 0.249604
C8    C     C_R   0.308968 0.874978 0.908227 0.281478
N1    N     N_R   0.892620 0.603790 0.941800 -0.107841
N2    N     N_R   0.107380 0.396210 0.058200 -0.115527
N3    N     N_R   0.107380 0.603790 0.058200 -0.115343
N4    N     N_R   0.892620 0.396210 0.941800 -0.107518
N5    N     N_R   0.392620 0.103790 0.941800 -0.107517
N6    N     N_R   0.607380 0.896210 0.058200 -0.115295
N7    N     N_R   0.607380 0.103790 0.058200 -0.115507
N8    N     N_R   0.392620 0.896210 0.941800 -0.107867
C9    C     C_R   0.904299 0.376180 0.094517 0.285909
C10   C     C_R   0.056022 0.650346 0.905681 0.244585
C11   C     C_R   0.056059 0.349679 0.905624 0.244604
C12   C     C_R   0.904495 0.623953 0.094630 0.285771
C13   C     C_R   0.404485 0.876051 0.094620 0.285822
C14   C     C_R   0.556190 0.150282 0.905631 0.245015
C15   C     C_R   0.556059 0.849666 0.905674 0.244649
C16   C     C_R   0.404292 0.123835 0.094505 0.286043
N9    N     N_R   0.952210 0.397600 0.057910 -0.109856
N10   N     N_R   0.047790 0.602400 0.942090 -0.116807
N11   N     N_R   0.047790 0.397600 0.942090 -0.116637
N12   N     N_R   0.952210 0.602400 0.057910 -0.109926
N13   N     N_R   0.452210 0.897600 0.057910 -0.109917
N14   N     N_R   0.547790 0.102400 0.942090 -0.116584
N15   N     N_R   0.547790 0.897600 0.942090 -0.116791
N16   N     N_R   0.452210 0.102400 0.057910 -0.109859
C17   C     C_R   0.056266 0.545044 0.309221 -0.036317
C18   C     C_R   0.022995 0.454560 0.754726 -0.054914
C19   C     C_R   0.022999 0.545444 0.754736 -0.054243
C20   C     C_R   0.056283 0.454958 0.309224 -0.035103
C21   C     C_R   0.556283 0.045047 0.309224 -0.035078
C22   C     C_R   0.522979 0.954554 0.754712 -0.054250
C23   C     C_R   0.522949 0.045438 0.754667 -0.055327
C24   C     C_R   0.556276 0.954960 0.309222 -0.036313
H1    H     H_    0.081278 0.585354 0.340938 0.176816
H2    H     H_    0.037421 0.413160 0.747148 0.133950
H3    H     H_    0.037435 0.586847 0.747181 0.133853
H4    H     H_    0.081301 0.414646 0.340928 0.176858
H5    H     H_    0.581285 0.085364 0.340922 0.176828
H6    H     H_    0.537412 0.913152 0.747154 0.133821
H7    H     H_    0.537324 0.086835 0.747014 0.134240
H8    H     H_    0.581297 0.914653 0.340936 0.176783
N17   N     N_R   0.026300 0.529110 0.206760 -0.070943
N18   N     N_R   0.973700 0.470890 0.793240 -0.040175
N19   N     N_R   0.973700 0.529110 0.793240 -0.040193
N20   N     N_R   0.026300 0.470890 0.206760 -0.071125
N21   N     N_R   0.526300 0.029110 0.206760 -0.071141
N22   N     N_R   0.473700 0.970890 0.793240 -0.040226
N23   N     N_R   0.473700 0.029110 0.793240 -0.040269
N24   N     N_R   0.526300 0.970890 0.206760 -0.070931
C25   C     C_R   0.741612 0.455485 0.694613 -0.053055
C26   C     C_R   0.268144 0.544696 0.242504 -0.087042
C27   C     C_R   0.268045 0.454965 0.243404 -0.075872
C28   C     C_R   0.741436 0.544938 0.695581 -0.045696
C29   C     C_R   0.241616 0.955032 0.695479 -0.044526
C30   C     C_R   0.768076 0.045073 0.243677 -0.075305
C31   C     C_R   0.768205 0.955319 0.242721 -0.088260
C32   C     C_R   0.241750 0.044482 0.694461 -0.053059
H9    H     H_    0.729075 0.414921 0.661620 0.190821
H10   H     H_    0.292417 0.586059 0.256071 0.152887
H11   H     H_    0.291796 0.413514 0.257297 0.146713
H12   H     H_    0.729639 0.585591 0.663279 0.183952
H13   H     H_    0.229941 0.914363 0.663285 0.183473
H14   H     H_    0.791747 0.086533 0.257528 0.146025
H15   H     H_    0.792498 0.913964 0.256269 0.153276
H16   H     H_    0.229211 0.085048 0.661481 0.191209
N25   N     N_R   0.818530 0.472270 0.792960 -0.067345
N26   N     N_R   0.181470 0.527730 0.207040 -0.040442
N27   N     N_R   0.181470 0.472270 0.207040 -0.040865
N28   N     N_R   0.818530 0.527730 0.792960 -0.067515
N29   N     N_R   0.318530 0.972270 0.792960 -0.067704
N30   N     N_R   0.681470 0.027730 0.207040 -0.040917
N31   N     N_R   0.681470 0.972270 0.207040 -0.040420
N32   N     N_R   0.318530 0.027730 0.792960 -0.067479
C33   C     C_R   0.813859 0.637375 0.002696 -0.267063
C34   C     C_R   0.120533 0.318629 0.997381 -0.243862
C35   C     C_R   0.120469 0.681393 0.997481 -0.244432
C36   C     C_R   0.813610 0.362828 0.002525 -0.266975
C37   C     C_R   0.313598 0.137178 0.002510 -0.267019
C38   C     C_R   0.620565 0.818641 0.997472 -0.244866
C39   C     C_R   0.620751 0.181300 0.997390 -0.244584
C40   C     C_R   0.313843 0.862631 0.002680 -0.267072
C41   C     C_R   0.074690 0.500002 0.374516 -0.029730
C42   C     C_R   0.055225 0.500003 0.730837 -0.036755
C43   C     C_R   0.574701 0.000005 0.374518 -0.029594
C44   C     C_R   0.555185 0.999996 0.730788 -0.036541
C45   C     C_R   0.692276 0.500366 0.634158 -0.036282
C46   C     C_R   0.323170 0.499670 0.265066 -0.047006
C47   C     C_R   0.192586 0.999578 0.633920 -0.036817
C48   C     C_R   0.823259 0.000381 0.265623 -0.045868
Ni1   Ni    Ni4+2 0.934150 0.565840 0.869060 0.295930
Ni2   Ni    Ni4+2 0.065850 0.434160 0.130940 0.288354
Ni3   Ni    Ni4+2 0.065850 0.565840 0.130940 0.288116
Ni4   Ni    Ni4+2 0.934150 0.434160 0.869060 0.295991
Ni5   Ni    Ni4+2 0.434150 0.065840 0.869060 0.295799
Ni6   Ni    Ni4+2 0.565850 0.934160 0.130940 0.288064
Ni7   Ni    Ni4+2 0.565850 0.065840 0.130940 0.288348
Ni8   Ni    Ni4+2 0.434150 0.934160 0.869060 0.295791
C49   C     C_3   0.522590 0.463351 0.510880 -0.121849
C50   C     C_3   0.502117 0.536958 0.363961 -0.150717
C51   C     C_3   0.491597 0.450255 0.391779 -0.135362
C52   C     C_3   0.533588 0.549784 0.483689 -0.117232
C53   C     C_3   0.035094 0.949597 0.480843 -0.116140
C54   C     C_3   0.990668 0.050358 0.394701 -0.133816
C55   C     C_3   0.002954 0.964751 0.361753 -0.151529
C56   C     C_3   0.022227 0.034946 0.513035 -0.121081
C57   C     C_3   0.455815 0.512428 0.467609 -0.119913
C58   C     C_3   0.571143 0.487573 0.409170 -0.121607
C59   C     C_3   0.956599 0.985343 0.467156 -0.120595
C60   C     C_3   0.070879 0.014672 0.409656 -0.122574
H17   H     H_    0.407165 0.522569 0.490709 0.151546
H18   H     H_    0.621463 0.477492 0.388639 0.148728
H19   H     H_    0.908437 0.973360 0.489971 0.152468
H20   H     H_    0.120780 0.026581 0.389502 0.149223
H21   H     H_    0.532269 0.433350 0.572885 0.176683
H22   H     H_    0.491033 0.566828 0.301082 0.143319
H23   H     H_    0.472572 0.409592 0.351882 0.151109
H24   H     H_    0.551600 0.590612 0.522836 0.178224
H25   H     H_    0.054085 0.908234 0.517563 0.177101
H26   H     H_    0.970847 0.091574 0.357323 0.152119
H27   H     H_    0.992352 0.936292 0.297080 0.142781
H28   H     H_    0.031416 0.063536 0.576828 0.175105
C61   C     C_3   0.425187 0.499513 0.349020 0.147062
C62   C     C_3   0.600093 0.500602 0.526788 0.139295
C63   C     C_3   0.925335 0.000579 0.349251 0.146314
C64   C     C_3   0.100443 0.999317 0.526577 0.139654
C65   C     C_R   0.799326 0.266291 0.011301 -0.056036
C66   C     C_R   0.128980 0.780298 0.989106 -0.021705
C67   C     C_R   0.128996 0.219679 0.989295 -0.021774
C68   C     C_R   0.678414 0.674591 0.993061 -0.076045
C69   C     C_R   0.299404 0.766122 0.011616 -0.055353
C70   C     C_R   0.628947 0.280239 0.988972 -0.022773
C71   C     C_R   0.750454 0.778509 0.007311 -0.152316
C72   C     C_R   0.299057 0.233725 0.010929 -0.055998
H29   H     H_    0.864884 0.260943 0.019029 0.137353
H30   H     H_    0.063265 0.785130 0.981068 0.130973
H31   H     H_    0.063424 0.214895 0.981597 0.130862
H32   H     H_    0.650955 0.634244 0.986726 0.128843
H33   H     H_    0.364971 0.760692 0.019398 0.137322
H34   H     H_    0.563245 0.284981 0.980995 0.130797
H35   H     H_    0.778335 0.818725 0.013156 0.118167
H36   H     H_    0.364500 0.239110 0.018412 0.137262
C73   C     C_R   0.250522 0.721513 0.007636 -0.152825
C74   C     C_R   0.678054 0.325445 0.992552 -0.075984
C75   C     C_R   0.799337 0.733894 0.011332 -0.055350
C76   C     C_R   0.250281 0.278379 0.007017 -0.153296
C77   C     C_R   0.750605 0.221613 0.007390 -0.152124
C78   C     C_R   0.178236 0.825431 0.992731 -0.076140
C79   C     C_R   0.178149 0.174499 0.992860 -0.076389
C80   C     C_R   0.629166 0.719730 0.989413 -0.022033
H37   H     H_    0.278495 0.681297 0.013724 0.118160
H38   H     H_    0.650407 0.365756 0.986017 0.128657
H39   H     H_    0.864809 0.739317 0.018894 0.137259
H40   H     H_    0.278210 0.318576 0.012830 0.118635
H41   H     H_    0.778687 0.181434 0.013459 0.118648
H42   H     H_    0.150685 0.865776 0.986148 0.128893
H43   H     H_    0.150662 0.134169 0.986596 0.128641
H44   H     H_    0.563555 0.714905 0.981615 0.130920
C81   C     C_R   0.165887 0.728869 0.996312 0.231819
C82   C     C_R   0.762951 0.317846 0.004016 0.228135
C83   C     C_R   0.763192 0.682300 0.004302 0.227899
C84   C     C_R   0.165831 0.271092 0.996147 0.232172
C85   C     C_R   0.665998 0.228853 0.996171 0.232476
C86   C     C_R   0.263143 0.817716 0.004274 0.227740
C87   C     C_R   0.262887 0.182145 0.003973 0.228212
C88   C     C_R   0.665948 0.771158 0.996287 0.231985
C89   C     C_R   0.115097 0.450958 0.636962 -0.133721
C90   C     C_R   0.118691 0.549074 0.545747 -0.105846
C91   C     C_R   0.118687 0.450934 0.545739 -0.105049
C92   C     C_R   0.115099 0.549050 0.636968 -0.133338
C93   C     C_R   0.615068 0.950951 0.636928 -0.133343
C94   C     C_R   0.618707 0.049070 0.545752 -0.104923
C95   C     C_R   0.618686 0.950930 0.545727 -0.105871
C96   C     C_R   0.615097 0.049044 0.636960 -0.133723
H45   H     H_    0.112354 0.412218 0.669114 0.138313
H46   H     H_    0.118029 0.587838 0.511205 0.154509
H47   H     H_    0.118019 0.412170 0.511189 0.154570
H48   H     H_    0.112357 0.587790 0.669125 0.138255
H49   H     H_    0.612305 0.912211 0.669063 0.138247
H50   H     H_    0.618059 0.087834 0.511220 0.154600
H51   H     H_    0.618022 0.912166 0.511179 0.154494
H52   H     H_    0.612367 0.087782 0.669128 0.138483
C97   C     C_R   0.110229 0.500003 0.492473 0.101768
C98   C     C_R   0.101959 0.500004 0.674359 0.111703
C99   C     C_R   0.610242 0.000002 0.492474 0.101816
C100  C     C_R   0.601928 0.999996 0.674323 0.111627
N33   N     N_R   0.743370 0.649645 0.801234 0.224054
O1    O     O_R   0.775164 0.678056 0.755625 -0.333716
O2    O     O_R   0.653312 0.651815 0.758978 -0.384695
N34   N     N_R   0.195186 0.326155 0.201713 0.247933
O3    O     O_R   0.237984 0.279394 0.228766 -0.335845
O4    O     O_R   0.189968 0.351881 0.274747 -0.368259
N35   N     N_R   0.195563 0.673692 0.201952 0.248800
O5    O     O_R   0.191120 0.647692 0.275309 -0.369423
O6    O     O_R   0.237865 0.720606 0.228851 -0.334675
N36   N     N_R   0.742855 0.350926 0.800836 0.225081
O7    O     O_R   0.652864 0.348831 0.758915 -0.387030
O8    O     O_R   0.774242 0.322678 0.754586 -0.331195
N37   N     N_R   0.242766 0.148977 0.800776 0.225184
O9    O     O_R   0.274061 0.177273 0.754480 -0.331450
O10   O     O_R   0.152772 0.150972 0.758860 -0.386624
N38   N     N_R   0.695743 0.826345 0.201971 0.248652
O11   O     O_R   0.738607 0.779602 0.229062 -0.334811
O12   O     O_R   0.691088 0.852247 0.275260 -0.369459
N39   N     N_R   0.695363 0.173834 0.201718 0.247693
O13   O     O_R   0.689830 0.148252 0.274641 -0.368030
O14   O     O_R   0.738776 0.220411 0.228977 -0.336011
N40   N     N_R   0.243332 0.850388 0.801201 0.224152
O15   O     O_R   0.153256 0.848298 0.758885 -0.383993
O16   O     O_R   0.275095 0.821918 0.755626 -0.333900
N41   N     N_R   0.948280 0.352989 0.203170 0.224365
O17   O     O_R   0.902360 0.351802 0.247768 -0.364857
O18   O     O_R   0.024399 0.323553 0.246644 -0.339031
N42   N     N_R   0.987884 0.671131 0.794806 0.247491
O19   O     O_R   0.909295 0.644897 0.724691 -0.362005
O20   O     O_R   0.002912 0.716816 0.763575 -0.337695
N43   N     N_R   0.987905 0.328891 0.794749 0.247253
O21   O     O_R   0.002946 0.283221 0.763482 -0.337758
O22   O     O_R   0.909284 0.355100 0.724680 -0.362047
N44   N     N_R   0.948713 0.647234 0.203257 0.224345
O23   O     O_R   0.025143 0.676388 0.246707 -0.339409
O24   O     O_R   0.902897 0.648717 0.247969 -0.364419
N45   N     N_R   0.448688 0.852783 0.203251 0.224309
O25   O     O_R   0.402862 0.851313 0.247950 -0.364420
O26   O     O_R   0.525110 0.823625 0.246714 -0.339642
N46   N     N_R   0.488170 0.171064 0.794732 0.246942
O27   O     O_R   0.409299 0.145035 0.724779 -0.361992
O28   O     O_R   0.503828 0.216419 0.763134 -0.338024
N47   N     N_R   0.487912 0.828860 0.794814 0.247500
O29   O     O_R   0.502941 0.783169 0.763601 -0.337606
O30   O     O_R   0.409297 0.855069 0.724715 -0.362190
N48   N     N_R   0.448253 0.147016 0.203165 0.224406
O31   O     O_R   0.524350 0.176478 0.246651 -0.338917
O32   O     O_R   0.402317 0.148180 0.247744 -0.364946

loop_
_geom_bond_atom_site_label_1
_geom_bond_atom_site_label_2
_geom_bond_distance
_ccdc_geom_bond_type
C20   C41   1.379377 A    
N19   Ni1   1.858947 S    
C50   C61   1.530275 S    
C76   H40   1.084473 S    
C13   N13   1.339867 A    
C30   C48   1.368617 A    
C22   H6    1.072547 S    
N25   Ni4   1.877461 S    
N47   O30   1.300254 A    
N22   N23   1.435337 A    
N5    N16   1.387162 A    
N43   O21   1.300728 A    
C18   H2    1.072525 S    
C3    N3    1.333189 A    
C51   H23   1.110044 S    
N6    N15   1.387162 A    
C51   C61   1.532207 S    
C10   N42   1.436594 S    
C90   H46   1.080320 S    
N42   O20   1.300721 A    
C93   H49   1.080235 S    
C19   N19   1.339789 A    
C59   C63   1.535107 S    
N37   O9    1.299699 A    
C70   C74   1.385838 A    
C49   C51   1.541058 S    
C14   N46   1.436481 S    
C30   H14   1.075523 S    
C37   C87   1.424513 S    
C57   C61   1.535099 S    
C50   C58   1.557045 S    
C38   C88   1.417574 S    
C49   C57   1.531704 S    
C7    N39   1.436412 S    
C70   H34   1.083353 S    
C56   C59   1.531504 S    
C8    N40   1.429922 S    
C53   C55   1.546092 S    
C68   C80   1.385674 A    
N40   O16   1.299726 A    
N6    Ni6   1.861828 S    
C95   H51   1.080315 S    
C1    C33   1.381560 A    
C39   C85   1.417808 S    
C22   C44   1.388077 A    
C89   C98   1.402978 A    
C12   N44   1.429412 S    
C78   C86   1.395580 A    
N3    Ni3   1.861847 S    
C3    C35   1.370330 A    
C25   N25   1.334865 A    
C16   N16   1.340323 A    
N2    Ni2   1.861828 S    
C96   H52   1.080231 S    
C27   H11   1.075683 S    
C32   N32   1.334921 A    
C4    N36   1.429929 S    
C26   H10   1.076300 S    
C23   N23   1.339774 A    
C29   N29   1.332027 A    
N38   O11   1.300851 A    
C24   N24   1.337457 A    
C15   C38   1.375038 A    
C10   N10   1.340871 A    
C3    N35   1.436457 S    
N47   O29   1.300724 A    
N31   Ni6   1.877372 S    
C55   C60   1.557343 S    
C27   C46   1.368988 A    
C4    N4    1.335814 A    
C11   C34   1.374922 A    
C19   H3    1.072552 S    
C16   C37   1.384600 A    
C72   C76   1.369892 A    
C52   C62   1.531403 S    
C29   C47   1.358955 A    
C20   N20   1.337469 A    
N2    N11   1.387162 A    
C5    C37   1.381439 A    
C28   C45   1.359322 A    
C67   H31   1.083348 S    
C13   C40   1.384249 A    
C89   H45   1.080234 S    
C22   N22   1.339776 A    
C8    N8    1.336058 A    
C93   C100  1.402956 A    
C25   C45   1.362140 A    
C12   C33   1.384220 A    
C53   H25   1.110106 S    
C70   C85   1.396578 A    
C58   C62   1.531922 S    
C72   H36   1.084476 S    
C90   C97   1.403007 A    
C27   N27   1.335426 A    
C52   H24   1.110148 S    
C79   H43   1.083215 S    
N42   O19   1.300256 A    
C76   C84   1.391332 A    
C5    N37   1.429899 S    
N8    Ni8   1.861847 S    
C60   C64   1.531827 S    
C90   C92   1.385719 A    
N37   O10   1.300867 A    
C36   C82   1.424350 S    
N48   O32   1.300917 A    
N11   Ni4   1.835354 S    
C18   N18   1.339798 A    
C46   C61   1.446530 S    
C40   C86   1.424090 S    
N36   O7    1.300866 A    
C21   C43   1.379398 A    
C49   H21   1.110556 S    
C1    N1    1.336048 A    
C71   C88   1.391340 A    
C73   C81   1.391356 A    
C17   H1    1.075268 S    
N34   O4    1.300225 A    
N26   N27   1.367298 A    
C67   C79   1.385900 A    
N17   Ni3   1.858969 S    
C92   H48   1.080233 S    
N40   O15   1.300884 A    
C71   C75   1.369742 A    
C31   N31   1.337828 A    
C7    N7    1.333545 A    
C12   N12   1.339863 A    
N3    N10   1.387158 A    
N33   O2    1.300889 A    
N41   O17   1.300918 A    
C43   C99   1.466700 S    
C31   C48   1.372271 A    
C80   C88   1.396493 A    
N27   Ni2   1.877372 S    
C60   H20   1.109915 S    
N4    Ni4   1.861847 S    
C77   H41   1.084473 S    
C8    C40   1.381549 A    
C15   N15   1.340855 A    
C52   C57   1.534341 S    
C1    N33   1.429940 S    
C18   C42   1.388090 A    
C51   C58   1.551186 S    
N45   O25   1.300919 A    
C17   C41   1.379392 A    
C66   H30   1.083354 S    
C35   C81   1.417658 S    
C69   H33   1.084476 S    
C92   C98   1.402974 A    
N39   O13   1.300158 A    
C4    C36   1.381484 A    
C67   C84   1.396611 A    
N17   N20   1.435337 A    
C13   N45   1.429412 S    
C50   H22   1.109929 S    
C53   C64   1.531435 S    
N46   O28   1.300838 A    
C10   C35   1.375029 A    
C33   C83   1.424035 S    
C66   C81   1.396498 A    
C11   N43   1.436596 S    
C54   C63   1.532463 S    
N18   N19   1.435337 A    
C7    C39   1.370337 A    
C14   C39   1.374801 A    
C56   C64   1.529766 S    
N16   Ni7   1.835355 S    
C28   H12   1.076613 S    
C69   C86   1.395212 A    
C58   H18   1.109890 S    
C89   C91   1.385715 A    
N36   O8    1.299700 A    
C54   H26   1.110026 S    
C48   C63   1.446623 S    
C57   H17   1.111106 S    
C71   H35   1.084479 S    
N12   Ni3   1.835355 S    
C55   C63   1.530254 S    
C69   C73   1.369756 A    
C73   H37   1.084478 S    
C31   H15   1.076286 S    
N44   O23   1.299693 A    
C72   C87   1.395298 A    
N44   O24   1.300920 A    
C15   N47   1.436588 S    
C96   C100  1.402990 A    
C47   C64   1.445233 S    
N25   N28   1.367298 A    
C65   C77   1.369779 A    
C20   H4    1.075333 S    
C21   H5    1.075343 S    
C45   C62   1.445723 S    
C2    N2    1.333578 A    
C54   C60   1.550652 S    
C23   C44   1.388065 A    
C16   N48   1.429381 S    
C26   N26   1.337831 A    
N7    N14   1.387158 A    
C23   H7    1.072441 S    
C42   C98   1.468188 S    
N21   N24   1.435337 A    
C29   H13   1.076567 S    
C24   H8    1.075268 S    
N48   O31   1.299644 A    
N1    Ni1   1.861828 S    
C14   N14   1.340829 A    
N39   O14   1.300859 A    
N30   Ni7   1.877460 S    
N30   N31   1.367298 A    
C91   H47   1.080320 S    
C5    N5    1.335818 A    
C30   N30   1.335108 A    
C32   C47   1.362155 A    
C25   H9    1.077085 S    
N34   O3    1.300802 A    
C78   H42   1.083226 S    
C91   C97   1.403001 A    
C94   C96   1.385710 A    
N43   O22   1.300240 A    
C49   C62   1.530017 S    
C68   C83   1.395570 A    
N32   Ni5   1.877373 S    
N41   O18   1.299655 A    
N23   Ni5   1.858947 S    
N26   Ni3   1.877460 S    
C59   H19   1.111121 S    
C6    C38   1.370278 A    
N4    N9    1.387158 A    
C9    C36   1.384559 A    
C9    N9    1.340204 A    
N15   Ni8   1.835354 S    
N28   Ni1   1.877373 S    
C21   N21   1.337474 A    
C6    N6    1.333157 A    
C68   H32   1.083226 S    
N38   O12   1.300182 A    
C65   C82   1.395299 A    
C9    N41   1.429401 S    
C55   H27   1.109949 S    
C94   C99   1.402985 A    
N29   N32   1.367298 A    
N8    N13   1.387158 A    
C66   C78   1.385694 A    
C50   C52   1.545667 S    
C93   C95   1.385698 A    
N21   Ni7   1.858969 S    
C75   C83   1.395216 A    
C34   C84   1.418078 S    
N14   Ni5   1.835269 S    
N20   Ni2   1.858948 S    
N46   O27   1.300203 A    
C28   N28   1.332258 A    
N13   Ni6   1.835270 S    
C2    N34   1.436436 S    
C32   H16   1.077107 S    
C24   C43   1.379364 A    
C26   C46   1.372185 A    
C54   C56   1.540429 S    
N18   Ni4   1.858968 S    
C56   H28   1.110644 S    
C2    C34   1.370416 A    
C53   C59   1.534508 S    
N10   Ni1   1.835269 S    
N24   Ni6   1.858948 S    
C6    N38   1.436429 S    
C94   H50   1.080324 S    
C19   C42   1.388084 A    
C79   C87   1.395624 A    
N9    Ni2   1.835270 S    
N35   O5    1.300247 A    
C95   C99   1.403015 A    
C80   H44   1.083361 S    
N45   O26   1.299692 A    
N33   O1    1.299720 A    
C17   N17   1.337488 A    
C77   C85   1.391277 A    
N35   O6    1.300806 A    
C41   C97   1.466729 S    
N29   Ni8   1.877461 S    
N22   Ni8   1.858968 S    
C65   H29   1.084482 S    
N7    Ni7   1.861847 S    
N5    Ni5   1.861828 S    
C74   H38   1.083217 S    
C44   C100  1.468162 S    
N1    N12   1.387162 A    
C75   H39   1.084485 S    
C11   N11   1.340922 A    
C74   C82   1.395608 A    
