data_mof_unit_15020.cif
_audit_creation_date              2012-12-11T14:50:37-0500
_audit_creation_method            fapswitch 2.2
_symmetry_space_group_name_H-M    P1
_symmetry_Int_Tables_number       1
_space_group_crystal_system       triclinic
_cell_length_a                    11.205067
_cell_length_b                    11.148833
_cell_length_c                    18.732325
_cell_angle_alpha                 90.140421
_cell_angle_beta                  90.684267
_cell_angle_gamma                 59.899781
_cell_volume                      2024.38033419

loop_
_atom_site_label
_atom_site_type_symbol
_atom_type_description
_atom_site_fract_x
_atom_site_fract_y
_atom_site_fract_z
_atom_type_partial_charge
C1    C     C_R   0.239743 0.644327 0.610220 0.515714
C2    C     C_3   0.722533 0.504388 0.808881 -0.237632
C3    C     C_3   0.687635 0.657463 0.815941 -0.003219
C4    C     C_3   0.645895 0.605413 0.683464 -0.018562
C5    C     C_3   0.721628 0.686644 0.684547 -0.125567
C6    C     C_3   0.724913 0.468230 0.728171 0.152893
C7    C     C_R   0.778990 0.116301 0.708794 0.032346
C8    C     C_R   0.800934 0.104614 0.782310 -0.001343
C9    C     C_R   0.688847 0.169703 0.828963 0.053800
C10   C     C_R   0.561699 0.270409 0.802388 -0.137961
C11   C     C_R   0.545620 0.293578 0.729335 -0.151274
C12   C     C_R   0.626319 0.582196 0.607649 0.538511
C13   C     C_R   0.648821 0.207616 0.681553 0.056018
C14   C     C_R   0.208720 0.545852 0.727020 -0.004535
C15   C     C_R   0.200163 0.559354 0.801519 -0.108762
C16   C     C_R   0.180286 0.679333 0.835328 0.043545
C17   C     C_R   0.179875 0.787680 0.794283 0.020276
C18   C     C_R   0.176447 0.778380 0.720230 -0.084452
C19   C     C_R   0.197699 0.658025 0.685787 0.035601
C20   C     C_R   0.755257 0.540669 0.277444 -0.162523
C21   C     C_R   0.753537 0.539197 0.203824 0.006075
C22   C     C_R   0.667089 0.666263 0.167959 0.012830
C23   C     C_R   0.623138 0.237662 0.605239 0.539475
C24   C     C_R   0.570359 0.781046 0.205653 -0.107719
C25   C     C_R   0.548280 0.768130 0.276778 0.233501
C26   C     C_R   0.650923 0.651772 0.315704 0.001365
C27   C     C_R   0.512200 0.210229 0.276509 0.011481
C28   C     C_R   0.524619 0.207420 0.203048 -0.097129
C29   C     C_R   0.650703 0.167479 0.172674 0.007453
C30   C     C_R   0.761416 0.152621 0.214185 -0.155702
C31   C     C_R   0.749156 0.168979 0.286711 -0.154517
C32   C     C_R   0.626671 0.196137 0.318992 0.041040
C33   C     C_R   0.071724 0.821365 0.309834 -0.073937
C34   C     C_R   0.213159 0.653660 0.404483 0.579758
C35   C     C_R   0.043341 0.836790 0.237236 -0.085016
C36   C     C_R   0.043329 0.730624 0.197237 0.032169
C37   C     C_R   0.056695 0.614313 0.233475 -0.135195
C38   C     C_R   0.095406 0.594321 0.305962 -0.139425
C39   C     C_R   0.118014 0.692052 0.342127 0.041609
C40   C     C_R   0.699490 0.107936 0.898878 0.548983
C41   C     C_R   0.719915 0.684625 0.889907 0.539816
C42   C     C_R   0.121417 0.706259 0.907509 0.581933
C43   C     C_R   0.675456 0.107742 0.102641 0.525302
C44   C     C_R   0.698375 0.688863 0.096683 0.536656
C45   C     C_R   0.638775 0.620635 0.390726 0.571565
C46   C     C_R   0.028063 0.746376 0.118846 0.563303
C47   C     C_R   0.610477 0.236984 0.393317 0.555392
C48   C     C_3   0.533399 0.743939 0.795905 -0.262115
C49   C     C_3   0.506705 0.696828 0.721796 -0.308763
C50   C     C_3   0.777280 0.681482 0.759604 0.140815
Cr1   Cr    Cr6+3 0.392930 0.397900 0.502230 0.995474
Cr2   Cr    Cr6+3 0.398240 0.708600 0.501260 1.092846
Cr3   Cr    Cr6+3 0.708800 0.393470 0.496460 1.059897
Cr4   Cr    Cr6+3 0.937620 0.938540 0.007640 0.996091
Cr5   Cr    Cr6+3 0.625150 0.937450 0.994520 1.018228
Cr6   Cr    Cr6+3 0.937990 0.625080 0.001190 1.001124
H1    H     H_    0.502713 0.854836 0.795342 0.199404
H2    H     H_    0.885573 0.594596 0.763987 0.196888
H3    H     H_    0.804771 0.653959 0.644986 0.207134
H4    H     H_    0.863309 0.053284 0.673427 0.177854
H5    H     H_    0.900742 0.028183 0.801371 0.174583
H6    H     H_    0.477018 0.331562 0.837901 0.104510
H7    H     H_    0.464228 0.391283 0.710863 0.094721
H8    H     H_    0.205315 0.478076 0.834844 0.119030
H9    H     H_    0.472726 0.727605 0.837024 0.118880
H10   H     H_    0.165851 0.862726 0.687869 0.146322
H11   H     H_    0.831905 0.447022 0.304269 0.143490
H12   H     H_    0.500836 0.876228 0.177557 0.180818
H13   H     H_    0.439750 0.225331 0.168295 0.143981
H14   H     H_    0.858366 0.126509 0.190446 0.121171
H15   H     H_    0.835920 0.159881 0.317441 0.120481
H16   H     H_    0.078154 0.903346 0.337565 0.155396
H17   H     H_    0.454354 0.635710 0.729433 0.110489
H18   H     H_    0.032515 0.927710 0.211452 0.133580
H19   H     H_    0.044694 0.536381 0.205121 0.121185
H20   H     H_    0.113824 0.500581 0.332396 0.113464
H21   H     H_    0.438269 0.787870 0.688368 0.163324
H22   H     H_    0.646088 0.794887 0.667245 0.175552
H23   H     H_    0.818755 0.433820 0.837950 0.203934
H24   H     H_    0.643095 0.489576 0.836289 0.075050
H25   H     H_    0.667451 0.415408 0.722029 0.097197
O1    O     O_R   0.507430 0.255570 0.581420 -0.528895
O2    O     O_R   0.524460 0.695920 0.424060 -0.413206
O3    O     O_R   0.736530 0.504260 0.414810 -0.543799
O4    O     O_R   0.691460 0.277160 0.422180 -0.504474
O5    O     O_3   0.499990 0.499990 0.499980 -0.303120
O6    O     O_R   0.089490 0.825610 0.930610 -0.526879
O7    O     O_R   0.818370 0.054540 0.929880 -0.523175
O8    O     O_R   0.605870 0.077310 0.915530 -0.489863
O9    O     O_R   0.646440 0.806700 0.917570 -0.495948
O10   O     O_R   0.837200 0.593290 0.915250 -0.530668
O11   O     O_R   0.065330 0.635370 0.931590 -0.486598
O12   O     O_R   0.280190 0.527390 0.578910 -0.540500
O13   O     O_R   0.068300 0.828790 0.091860 -0.498079
O14   O     O_R   0.798730 0.057480 0.079370 -0.538435
O15   O     O_R   0.584680 0.080480 0.076790 -0.528742
O16   O     O_R   0.626790 0.809640 0.067050 -0.509184
O17   O     O_R   0.816010 0.596460 0.076500 -0.542642
O18   O     O_R   0.045680 0.638310 0.081070 -0.508749
O19   O     O_3   0.833590 0.833690 0.001120 -0.303607
O20   O     O_R   0.260310 0.739740 0.584580 -0.536946
O21   O     O_R   0.532250 0.695150 0.573830 -0.524562
O22   O     O_R   0.744930 0.503430 0.576380 -0.456344
O23   O     O_R   0.699250 0.276390 0.571950 -0.469934
O24   O     O_R   0.499020 0.256400 0.419850 -0.537152
O25   O     O_R   0.272400 0.528160 0.429140 -0.520334
O26   O     O_R   0.251910 0.740570 0.423020 -0.434953
S1    S     S_3+6 0.897386 0.346931 0.700316 -0.083208
O27   O     O_2   0.979961 0.275944 0.765601 -0.395232
O28   O     O_2   0.904514 0.239849 0.649749 -0.321221
O29   O     O_3   0.967178 0.426497 0.657987 -0.578382
H26   H     H_    0.003736 0.375053 0.612803 0.369716
C51   C     C_3   0.225465 0.415340 0.691523 -0.250992
C52   C     C_3   0.224983 0.306741 0.740559 -0.391665
H27   H     H_    0.320258 0.255813 0.773880 0.147155
H28   H     H_    0.135067 0.355730 0.776023 0.228256
H29   H     H_    0.221280 0.225755 0.707646 0.197621
H30   H     H_    0.147696 0.450175 0.649141 0.210411
H31   H     H_    0.319899 0.358074 0.661218 0.190136
C53   C     C_3   0.183180 0.912075 0.828469 -0.274588
C54   C     C_3   0.204042 0.007593 0.778807 -0.441075
H32   H     H_    0.299586 0.956653 0.749359 0.126300
H33   H     H_    0.120936 0.051250 0.738214 0.232804
H34   H     H_    0.205414 0.090604 0.810968 0.182862
H35   H     H_    0.085282 0.982788 0.854977 0.200496
H36   H     H_    0.264177 0.874497 0.870654 0.148896
C55   C     C_3   0.847463 0.401283 0.167025 -0.240622
C56   C     C_3   0.771703 0.367731 0.108453 -0.394805
H37   H     H_    0.673097 0.382030 0.128961 0.160247
H38   H     H_    0.746635 0.433076 0.060180 0.169945
H39   H     H_    0.839018 0.259836 0.090353 0.147328
H40   H     H_    0.940942 0.397936 0.145571 0.166234
H41   H     H_    0.888833 0.315344 0.206554 0.109603
S2    S     S_3+6 0.373110 0.844391 0.295797 -0.024640
O30   O     O_2   0.352151 0.722402 0.300134 -0.273445
O31   O     O_2   0.336860 0.924257 0.364552 -0.306942
O32   O     O_3   0.271894 0.947058 0.229111 -0.578005
H42   H     H_    0.182157 0.010041 0.251484 0.336299
C57   C     C_3   0.379631 0.225143 0.307799 -0.248116
C58   C     C_3   0.274620 0.224186 0.255248 -0.455374
H43   H     H_    0.230061 0.317221 0.220502 0.130513
H44   H     H_    0.324850 0.130563 0.221469 0.208527
H45   H     H_    0.189222 0.224867 0.285073 0.151801
H46   H     H_    0.408398 0.138095 0.345772 0.205390
H47   H     H_    0.324893 0.324545 0.336419 0.191375
S3    S     S_3+6 0.787187 0.832933 0.765069 -0.070759
O33   O     O_2   0.858410 0.838759 0.698824 -0.335342
O34   O     O_2   0.644751 0.957369 0.768051 -0.330890
O35   O     O_3   0.882572 0.826289 0.834562 -0.532045
H48   H     H_    0.823679 0.843483 0.875696 0.386246

loop_
_geom_bond_atom_site_label_1
_geom_bond_atom_site_label_2
_ccdc_geom_bond_type
C46   O18   A    
C35   H18   S    
C23   O1    A    
C1    O20   A    
C20   H11   S    
O29   H26   S    
C58   H45   S    
Cr6   O17   S    
C56   H37   S    
S2    O32   S    
C52   H27   S    
C48   H1    S    
C10   H6    S    
Cr4   O6    S    
Cr2   O21   S    
C33   C39   A    
Cr3   O3    S    
C34   O26   A    
C47   O4    A    
C36   C37   A    
C58   H44   S    
S3    O33   D    
Cr5   O9    S    
C11   H7    S    
C38   C39   A    
C53   H36   S    
C57   H47   S    
Cr3   O23   S    
C15   C16   A    
C3    C48   S    
S1    O27   D    
C13   C23   S    
C18   C19   A    
C44   O16   A    
C55   H40   S    
C54   H34   S    
C2    H23   S    
C17   C53   S    
C51   H31   S    
C44   O17   A    
Cr6   O10   S    
C22   C44   S    
C35   C36   A    
Cr2   O26   S    
S1    O28   D    
C16   C17   A    
C47   O24   A    
Cr5   O19   S    
C43   O14   A    
C15   H8    S    
C36   C46   S    
Cr3   O5    S    
C48   H9    S    
C21   C55   S    
C29   C30   A    
C9    C10   A    
C42   O11   A    
C33   H16   S    
C8    H5    S    
C50   S3    S    
C31   H15   S    
C41   O9    A    
C37   H19   S    
C6    H25   S    
C21   C22   A    
C29   C43   S    
Cr4   O19   S    
C2    C6    S    
Cr1   O5    S    
C30   H14   S    
C3    C50   S    
C43   O15   A    
S3    O34   D    
Cr2   O20   S    
C1    C19   S    
C54   H33   S    
C5    H3    S    
C34   C39   S    
C34   O25   A    
C45   O2    A    
C2    H24   S    
C24   C25   A    
C12   O22   A    
C4    C6    S    
C53   H35   S    
C8    C9    A    
C38   H20   S    
C25   C26   A    
C9    C40   S    
C27   C57   S    
C50   H2    S    
Cr2   O2    S    
C12   O21   A    
C37   C38   A    
S3    O35   S    
C57   H46   S    
C52   H28   S    
C31   C32   A    
C46   O13   A    
C7    C13   A    
Cr1   O24   S    
Cr5   O16   S    
C28   H13   S    
C17   C18   A    
Cr4   O14   S    
C58   H43   S    
C25   S2    S    
Cr1   O1    S    
C54   H32   S    
Cr1   O12   S    
C48   C49   S    
C41   O10   A    
C40   O8    A    
C32   C47   S    
C49   H17   S    
C5    C50   S    
C45   O3    A    
C4    C12   S    
Cr6   O19   S    
C55   C56   S    
C28   C29   A    
C56   H39   S    
C16   C42   S    
C7    H4    S    
C53   C54   S    
C51   C52   S    
C3    C41   S    
C27   C32   A    
C14   C19   A    
C55   H41   S    
Cr5   O15   S    
C56   H38   S    
S2    O31   D    
C57   C58   S    
S2    O30   D    
C18   H10   S    
C14   C51   S    
O32   H42   S    
S1    O29   S    
C4    C49   S    
C40   O7    A    
C26   C45   S    
Cr2   O5    S    
C2    C3    S    
Cr5   O8    S    
O35   H48   S    
Cr4   O7    S    
C11   C13   A    
C30   C31   A    
C20   C26   A    
Cr3   O22   S    
Cr1   O25   S    
C4    C5    S    
C33   C35   A    
C49   H21   S    
C22   C24   A    
C23   O23   A    
Cr4   O13   S    
C52   H29   S    
C7    C8    A    
C10   C11   A    
C24   H12   S    
C51   H30   S    
Cr6   O11   S    
C20   C21   A    
C1    O12   A    
C27   C28   A    
C6    S1    S    
C14   C15   A    
Cr3   O4    S    
C42   O6    A    
Cr6   O18   S    
C5    H22   S    
