data_mof_unit_19438.cif
_audit_creation_date              2013-03-05T16:48:11-0500
_audit_creation_method            fapswitch 2.2
_symmetry_space_group_name_H-M    P1
_symmetry_Int_Tables_number       1
_space_group_crystal_system       triclinic
_cell_length_a                    10.833686
_cell_length_b                    12.306654
_cell_length_c                    13.241353
_cell_angle_alpha                 116.736895
_cell_angle_beta                  77.410394
_cell_angle_gamma                 101.28369
_cell_volume                      1529.07916693

loop_
_atom_site_label
_atom_site_type_symbol
_atom_site_description
_atom_site_fract_x
_atom_site_fract_y
_atom_site_fract_z
_atom_type_partial_charge
O1    O     O_R   0.536940 0.972510 0.318130 -0.524819
O2    O     O_R   0.487330 0.806530 0.359650 -0.592946
C1    C     C_R   0.518957 0.854616 0.286887 0.959359
O3    O     O_R   0.705160 0.082990 0.479250 -0.527170
O4    O     O_R   0.655550 0.917010 0.520760 -0.613227
C2    C     C_R   0.737288 0.000023 0.500543 0.843491
Cu1   Cu    Cu3+1 0.529370 0.098270 0.475420 1.003579
Cu2   Cu    Cu3+1 0.470630 0.901730 0.524580 0.971919
O5    O     O_R   0.512670 0.193470 0.640350 -0.601552
O6    O     O_R   0.463060 0.027490 0.681870 -0.578581
O7    O     O_R   0.344450 0.082990 0.479240 -0.614862
O8    O     O_R   0.294840 0.917010 0.520750 -0.566928
C3    C     C_R   0.481230 0.145057 0.713082 0.760999
C4    C     C_R   0.262897 0.999518 0.498071 0.891975
C5    C     C_R   0.657319 0.990350 0.825045 0.596828
C6    C     C_R   0.755347 0.019034 0.750019 -0.297343
H1    H     H_    0.779622 0.113454 0.762417 0.155510
C7    C     C_R   0.818546 0.926027 0.656790 0.080185
C8    C     C_R   0.785943 0.804238 0.641906 -0.188878
H2    H     H_    0.833388 0.731441 0.569965 0.178679
C9    C     C_R   0.687054 0.775351 0.716684 -0.315189
H3    H     H_    0.660562 0.680574 0.702182 0.210496
C10   C     C_R   0.620719 0.868046 0.807170 0.399911
C11   C     C_R   0.038658 0.951964 0.562809 -0.230351
H4    H     H_    0.068175 0.917770 0.615370 0.170660
C12   C     C_R   0.129533 0.999857 0.495811 -0.124876
C13   C     C_R   0.090836 0.051667 0.432982 -0.053306
C14   C     C_R   0.961741 0.046510 0.432761 0.578848
C15   C     C_R   0.871245 0.000199 0.501140 -0.215048
C16   C     C_R   0.909946 0.956319 0.569806 -0.020756
C17   C     C_R   0.179603 0.245508 0.414105 -0.181557
H5    H     H_    0.118143 0.294635 0.492231 0.161753
C18   C     C_R   0.257730 0.309915 0.355501 -0.157268
H6    H     H_    0.256401 0.407690 0.388126 0.163310
C19   C     C_R   0.337861 0.248290 0.255011 -0.230127
H7    H     H_    0.399369 0.298490 0.210347 0.190855
C20   C     C_R   0.338147 0.121807 0.211798 -0.138056
H8    H     H_    0.398803 0.075051 0.132919 0.246001
C21   C     C_R   0.259249 0.056236 0.269382 0.695443
C22   C     C_R   0.179900 0.118229 0.371790 0.052958
C23   C     C_R   0.306784 0.288297 0.009241 -0.166254
H9    H     H_    0.301831 0.106021 0.875859 0.166913
H10   H     H_    0.218347 0.481297 0.187762 0.175676
H11   H     H_    0.223015 0.265018 0.060741 0.158968
C24   C     C_R   0.454432 0.227853 0.833569 -0.002958
C25   C     C_R   0.665430 0.799790 0.106052 0.636707
C26   C     C_R   0.714605 0.712554 0.001512 -0.137017
C27   C     C_R   0.653748 0.594070 0.958157 -0.202305
C28   C     C_R   0.537554 0.560811 0.016699 0.010855
C29   C     C_R   0.482195 0.652511 0.119963 -0.125644
C30   C     C_R   0.475857 0.438899 0.977159 0.101867
C31   C     C_R   0.364554 0.409437 0.043790 0.036228
C32   C     C_R   0.307815 0.501890 0.140629 -0.309590
C33   C     C_R   0.361718 0.622573 0.175067 0.659914
C34   C     C_R   0.518509 0.345766 0.871405 -0.188131
C35   C     C_R   0.352244 0.197440 0.904695 -0.087615
C36   C     C_R   0.550082 0.770952 0.166498 -0.159967
H12   H     H_    0.596619 0.363369 0.812798 0.138117
H13   H     H_    0.702359 0.530568 0.879838 0.155918
H14   H     H_    0.803775 0.735504 0.955710 0.184827
C37   C     C_R   0.703884 0.346840 0.329244 -0.280311
H15   H     H_    0.725887 0.168504 0.309206 0.219508
H16   H     H_    0.745393 0.547814 0.296536 0.166655
H17   H     H_    0.782934 0.345947 0.262762 0.163466
N1    N     N_R   0.573890 0.246290 0.438210 -0.209753
C38   C     C_R   0.323624 0.757116 0.641294 0.023147
C39   C     C_R   0.283784 0.658767 0.670188 0.622646
C40   C     C_R   0.350934 0.556703 0.617649 -0.266990
C41   C     C_R   0.458222 0.550995 0.533787 -0.104136
C42   C     C_R   0.494064 0.653244 0.505616 0.252931
C43   C     C_R   0.529811 0.447313 0.475521 0.012796
C44   C     C_R   0.633461 0.447288 0.389134 0.147550
C45   C     C_R   0.666157 0.547213 0.362499 -0.284308
C46   C     C_R   0.598374 0.647871 0.419621 -0.144720
C47   C     C_R   0.503005 0.342353 0.498118 0.032954
C48   C     C_R   0.672137 0.246509 0.355161 0.139211
N2    N     N_R   0.426890 0.754320 0.561170 -0.250938
H18   H     H_    0.426484 0.334588 0.562589 0.130702
H19   H     H_    0.271566 0.836403 0.682972 0.152117
H20   H     H_    0.316135 0.483325 0.643396 0.164790
H21   H     H_    0.631212 0.719277 0.392650 0.196936
S1    S     S_3+6 0.490269 0.832129 0.896680 0.031314
O9    O     O_2   0.518590 0.895610 0.017084 -0.266089
O10   O     O_2   0.374462 0.878457 0.891457 -0.265123
O11   O     O_3   0.462826 0.680145 0.856759 -0.564140
H22   H     H_    0.384076 0.668490 0.907109 0.396278
F1    F     F_    0.259191 0.933069 0.225078 -0.613230
F2    F     F_    0.733889 0.911307 0.150537 -0.634298
F3    F     F_    0.596219 0.081618 0.913543 -0.647115
F4    F     F_    0.292235 0.709757 0.260006 -0.624294
F5    F     F_    0.180180 0.662755 0.750097 -0.643832
F6    F     F_    0.924863 0.087256 0.365051 -0.640154

loop_
_geom_bond_atom_site_label_1
_geom_bond_atom_site_label_2
_geom_bond_distance
_ccdc_geom_bond_type
C40   H20   1.077761 S    
C3    C24   1.455672 S    
C10   S1    1.759027 S    
C45   C46   1.384435 A    
C19   H7    1.082277 S    
C21   F1    1.356979 S    
Cu1   Cu2   2.704220 S    
C32   C33   1.386388 A    
Cu1   O7    1.966812 S    
C38   H19   1.081610 S    
C12   C13   1.417161 A    
C15   C16   1.410921 A    
N1    C48   1.354066 A    
C14   C15   1.401621 A    
C8    C9    1.399932 A    
C11   C12   1.402274 A    
C33   F4    1.357944 S    
O4    C2    1.299318 A    
O7    C4    1.295104 A    
C5    F3    1.356996 S    
C5    C6    1.395817 A    
C17   C22   1.406765 A    
C7    C8    1.402648 A    
C41   C43   1.437190 A    
O5    C3    1.300909 A    
H9    C35   1.083405 S    
C26   H14   1.082946 S    
H10   C32   1.084297 S    
C26   C27   1.387807 A    
C24   C35   1.397568 A    
C6    H1    1.083488 S    
C28   C30   1.423090 A    
C42   C46   1.406622 A    
C17   C18   1.396927 A    
C7    C16   1.480146 S    
C23   C31   1.403412 A    
C5    C10   1.401977 A    
C38   C39   1.392064 A    
C9    H3    1.082221 S    
C42   N2    1.384045 A    
H15   C48   1.081489 S    
O3    Cu1   1.963596 S    
C25   F2    1.358399 S    
C37   C48   1.387188 A    
C39   C40   1.393417 A    
C11   H4    1.084865 S    
O3    C2    1.297714 A    
C21   C22   1.406226 A    
C40   C41   1.410020 A    
H16   C45   1.084572 S    
O11   H22   0.991527 S    
C30   C31   1.420158 A    
O1    C1    1.303299 A    
C37   H17   1.083896 S    
C23   C35   1.390931 A    
C20   H8    1.077880 S    
Cu1   N1    2.038111 S    
C17   H5    1.083300 S    
C13   C22   1.485144 S    
Cu2   O8    1.963595 S    
C39   F5    1.356065 S    
C18   H6    1.082156 S    
C14   F6    1.361602 S    
C29   C33   1.417828 A    
C4    C12   1.452501 S    
C1    C36   1.462771 S    
C37   C44   1.400838 A    
C6    C7    1.403448 A    
C27   C28   1.418270 A    
O8    C4    1.303133 A    
C28   C29   1.421911 A    
S1    O10   1.502374 D    
C9    C10   1.403203 A    
C25   C36   1.405066 A    
Cu2   N2    2.026008 S    
C23   H11   1.083963 S    
C46   H21   1.063477 S    
C31   C32   1.390681 A    
C27   H13   1.075781 S    
Cu1   O5    1.945054 S    
C38   N2    1.357640 A    
C25   C26   1.384814 A    
C19   C20   1.396450 A    
O1    Cu1   1.953113 S    
C29   C36   1.419551 A    
O2    Cu2   1.945055 S    
C44   C45   1.388332 A    
O6    C3    1.299589 A    
O4    Cu2   1.966813 S    
S1    O11   1.681528 S    
N1    C47   1.364749 A    
C8    H2    1.083104 S    
O2    C1    1.298337 A    
C43   C44   1.417484 A    
C20   C21   1.400992 A    
C43   C47   1.416134 A    
C18   C19   1.394781 A    
C30   C34   1.403250 A    
C41   C42   1.428754 A    
C47   H18   1.076593 S    
C11   C16   1.387206 A    
C2    C15   1.452561 S    
C24   C34   1.393517 A    
Cu2   O6    1.953111 S    
S1    O9    1.498346 D    
C34   H12   1.076337 S    
C13   C14   1.388140 A    
