data_mof_unit_5078.cif
_audit_creation_date              2012-12-10T18:45:08-0500
_audit_creation_method            fapswitch 2.2
_symmetry_space_group_name_H-M    P1
_symmetry_Int_Tables_number       1
_space_group_crystal_system       triclinic
_cell_length_a                    10.718638
_cell_length_b                    9.907465
_cell_length_c                    10.669912
_cell_angle_alpha                 90.3342
_cell_angle_beta                  90.801349
_cell_angle_gamma                 89.768513
_cell_volume                      1132.94732485

loop_
_atom_site_label
_atom_site_type_symbol
_atom_type_description
_atom_site_fract_x
_atom_site_fract_y
_atom_site_fract_z
_atom_type_partial_charge
C1    C     C_R   0.260037 0.500686 0.507327 0.822632
C2    C     C_R   0.499043 0.500358 0.739219 0.968082
C3    C     C_R   0.274738 0.539476 0.129669 -0.196988
C4    C     C_R   0.272571 0.547226 0.870033 -0.277340
C5    C     C_R   0.163188 0.570279 0.066575 0.046078
C6    C     C_R   0.161129 0.571440 0.934005 0.000960
C7    C     C_R   0.386839 0.524147 0.934662 0.066264
C8    C     C_R   0.387684 0.520208 0.065039 0.076303
C9    C     C_R   0.501489 0.495306 0.128331 -0.102455
C10   C     C_R   0.499943 0.500945 0.871837 -0.106941
C11   C     C_R   0.613305 0.466477 0.065545 -0.082236
C12   C     C_R   0.739414 0.500125 0.489258 0.988890
C13   C     C_R   0.612856 0.470232 0.935128 -0.076562
C14   C     C_R   0.063977 0.379727 0.499310 -0.202611
C15   C     C_R   0.936562 0.379137 0.490610 -0.119835
C16   C     C_R   0.872562 0.501437 0.478560 -0.136977
C17   C     C_R   0.126466 0.502688 0.512431 -0.195055
C18   C     C_2   0.732404 0.438161 0.134676 0.321355
C19   C     C_2   0.729694 0.436583 0.866447 0.441399
C20   C     C_2   0.052555 0.594766 0.144800 0.431587
C21   C     C_2   0.045486 0.585239 0.857107 0.427152
C22   C     C_2   0.886233 0.741868 0.398911 0.480214
C23   C     C_R   0.937499 0.624769 0.471482 -0.022750
C24   C     C_2   0.107514 0.745408 0.589850 0.432134
C25   C     C_2   0.699544 0.866785 0.626157 0.459767
C26   C     C_2   0.299967 0.867494 0.375256 0.437653
C27   C     C_R   0.059859 0.626062 0.517057 0.000407
C28   C     C_R   0.595118 0.073124 0.554830 -0.093312
C29   C     C_R   0.404757 0.073364 0.445543 -0.108220
C30   C     C_R   0.594752 0.930248 0.557815 -0.008451
C31   C     C_R   0.405004 0.930571 0.442859 0.027976
C32   C     C_R   0.503604 0.499155 0.260907 0.923983
H1    H     H_    0.272362 0.532147 0.230793 0.149960
H2    H     H_    0.038853 0.533221 0.767648 0.063989
H3    H     H_    0.795949 0.736053 0.352375 0.079470
H4    H     H_    0.198502 0.744196 0.634954 0.070826
H5    H     H_    0.793085 0.905570 0.614294 0.101547
H6    H     H_    0.206114 0.905517 0.389244 0.098637
H7    H     H_    0.268935 0.546402 0.768747 0.096346
H8    H     H_    0.112802 0.283751 0.499458 0.184793
H9    H     H_    0.888754 0.282990 0.491285 0.186121
H10   H     H_    0.670360 0.128959 0.599504 0.130691
H11   H     H_    0.329429 0.129287 0.401012 0.130265
H12   H     H_    0.818974 0.479870 0.101407 0.098752
H13   H     H_    0.795319 0.363431 0.904623 0.043753
H14   H     H_    0.036905 0.531497 0.225715 0.034450
N1    N     N_R   0.500000 0.857200 0.500000 -0.105758
N2    N     N_R   0.500000 0.142810 0.500000 -0.077621
O1    O     O_R   0.316770 0.614620 0.499990 -0.638674
O2    O     O_2   0.755813 0.492738 0.768963 -0.535979
O3    O     O_2   0.983631 0.691004 0.126137 -0.486174
O4    O     O_2   0.958871 0.657145 0.888886 -0.448544
O5    O     O_2   0.948218 0.842827 0.380860 -0.526337
O6    O     O_2   0.041430 0.843517 0.610153 -0.541261
O7    O     O_2   0.682483 0.780042 0.704264 -0.455653
O8    O     O_2   0.317237 0.782392 0.294829 -0.530992
O9    O     O_R   0.683230 0.614620 0.500010 -0.637215
O10   O     O_R   0.316800 0.385290 0.500000 -0.629330
O11   O     O_R   0.683200 0.385290 0.500000 -0.591919
O12   O     O_R   0.500010 0.614690 0.316770 -0.577930
O13   O     O_R   0.499990 0.614690 0.683230 -0.554547
O14   O     O_R   0.500040 0.385360 0.316770 -0.582623
O15   O     O_R   0.499960 0.385360 0.683230 -0.631017
O16   O     O_2   0.735920 0.362931 0.224731 -0.567308
Zn1   Zn    Zn3+2 0.500000 0.653120 0.500000 1.025909
Zn2   Zn    Zn3+2 0.500000 0.346880 0.500000 1.000270

loop_
_geom_bond_atom_site_label_1
_geom_bond_atom_site_label_2
_ccdc_geom_bond_type
C8    C9    A    
C7    C10   A    
C32   O12   A    
C2    O13   A    
C11   C18   S    
C26   H6    S    
C18   H12   S    
C22   O5    D    
C11   C13   A    
C1    C17   S    
C19   O2    D    
C4    H7    S    
C24   C27   S    
C25   H5    S    
C19   H13   S    
C25   O7    D    
O15   Zn2   S    
C32   O14   A    
C7    C8    A    
C29   C31   A    
C5    C20   S    
C31   N1    A    
C1    O10   A    
C29   H11   S    
C22   H3    S    
C9    C11   A    
C14   C17   A    
C18   O16   D    
C24   H4    S    
O1    Zn1   S    
C4    C7    A    
C12   O9    A    
C26   O8    D    
C28   H10   S    
N1    Zn1   S    
O12   Zn1   S    
C16   C23   A    
C23   C27   A    
C6    C21   S    
C22   C23   S    
O11   Zn2   S    
C5    C6    A    
C3    H1    S    
C29   N2    A    
C24   O6    D    
C15   C16   A    
C2    C10   S    
O13   Zn1   S    
C30   N1    A    
C26   C31   S    
C2    O15   A    
C15   H9    S    
C4    C6    A    
C3    C8    A    
C1    O1    A    
C25   C30   S    
O14   Zn2   S    
C20   O3    D    
C28   N2    A    
C13   C19   S    
C21   H2    S    
C9    C32   S    
N2    Zn2   S    
C14   C15   A    
C12   O11   A    
C14   H8    S    
O10   Zn2   S    
C21   O4    D    
C20   H14   S    
C12   C16   S    
O9    Zn1   S    
C28   C30   A    
C3    C5    A    
C10   C13   A    
C17   C27   A    
