data_mof_unit_46827.cif
_audit_creation_date              2012-12-10T18:04:41-0500
_audit_creation_method            fapswitch 2.2
_symmetry_space_group_name_H-M    P1
_symmetry_Int_Tables_number       1
_space_group_crystal_system       triclinic
_cell_length_a                    18.959699
_cell_length_b                    17.969964
_cell_length_c                    12.763887
_cell_angle_alpha                 89.170701
_cell_angle_beta                  100.14206
_cell_angle_gamma                 89.385543
_cell_volume                      4279.93158701

loop_
_atom_site_label
_atom_site_type_symbol
_atom_type_description
_atom_site_fract_x
_atom_site_fract_y
_atom_site_fract_z
_atom_type_partial_charge
C1    C     C_R   0.409474 0.101273 0.442341 0.847597
C2    C     C_R   0.680655 0.687001 0.549678 0.177161
C3    C     C_R   0.282621 0.716336 0.649978 0.193768
C4    C     C_R   0.180655 0.187000 0.549677 0.177161
C5    C     C_R   0.349823 0.748093 0.677925 -0.273543
C6    C     C_R   0.204988 0.115596 0.532001 -0.237444
C7    C     C_R   0.849823 0.248092 0.677924 -0.273543
C8    C     C_R   0.704989 0.615596 0.532001 -0.237445
C9    C     C_R   0.381616 0.781893 0.599812 -0.220270
C10   C     C_R   0.261913 0.106884 0.477955 -0.205202
C11   C     C_R   0.881616 0.281893 0.599810 -0.220269
C12   C     C_R   0.412243 0.896442 0.445526 0.843551
C13   C     C_R   0.761913 0.606884 0.477955 -0.205202
C14   C     C_R   0.682234 0.184184 0.515182 -0.274630
C15   C     C_R   0.688790 0.820204 0.529530 -0.262347
C16   C     C_R   0.182235 0.684184 0.515183 -0.274631
C17   C     C_R   0.188790 0.320204 0.529530 -0.262347
C18   C     C_R   0.677264 0.161264 0.700268 -0.214063
C19   C     C_R   0.602248 0.768546 0.627392 -0.200914
C20   C     C_R   0.177264 0.661265 0.700268 -0.214063
C21   C     C_R   0.102248 0.268546 0.627391 -0.200915
C22   C     C_R   0.367019 0.832097 0.415120 -0.104784
C23   C     C_R   0.909474 0.601273 0.442341 0.847598
C24   C     C_R   0.360317 0.162979 0.405476 -0.105237
C25   C     C_R   0.867019 0.332097 0.415119 -0.104783
C26   C     C_R   0.860317 0.662979 0.405475 -0.105237
C27   C     C_R   0.647111 0.024846 0.144429 0.026165
C28   C     C_R   0.147111 0.524845 0.144429 0.026164
C29   C     C_R   0.376316 0.997528 0.766749 0.233858
C30   C     C_R   0.876316 0.497528 0.766749 0.233858
C31   C     C_R   0.351430 0.019165 0.857500 -0.216625
C32   C     C_R   0.851430 0.519165 0.857500 -0.216624
C33   C     C_R   0.589420 0.897693 0.556295 0.853098
C34   C     C_R   0.912243 0.396442 0.445526 0.843550
C35   C     C_R   0.590107 0.101460 0.556204 0.855920
C36   C     C_R   0.089420 0.397693 0.556295 0.853098
C37   C     C_R   0.090107 0.601460 0.556204 0.855920
C38   C     C_R   0.399618 0.034057 0.948440 -0.205373
C39   C     C_R   0.899618 0.534056 0.948440 -0.205373
C40   C     C_R   0.473228 0.021847 0.951888 0.004241
C41   C     C_R   0.973228 0.521847 0.951888 0.004241
C42   C     C_R   0.498063 0.011720 0.854297 0.178824
C43   C     C_R   0.998063 0.511720 0.854297 0.178824
C44   C     C_R   0.522692 0.018916 0.049481 -0.011372
C45   C     C_R   0.751929 0.209813 0.540880 0.073224
C46   C     C_R   0.022692 0.518916 0.049481 -0.011371
C47   C     C_R   0.596771 0.027620 0.048739 0.071028
C48   C     C_R   0.096771 0.527619 0.048739 0.071028
C49   C     C_R   0.619924 0.031512 0.952294 -0.338355
C50   C     C_R   0.119924 0.531512 0.952294 -0.338355
C51   C     C_R   0.574114 0.014145 0.858757 0.105786
C52   C     C_R   0.074114 0.514145 0.858757 0.105786
C53   C     C_R   0.502472 0.000307 0.147367 0.165710
C54   C     C_R   0.002472 0.500307 0.147367 0.165711
C55   C     C_R   0.622525 0.012253 0.238491 -0.025757
C56   C     C_R   0.708929 0.749467 0.502233 0.083155
C57   C     C_R   0.122525 0.512253 0.238491 -0.025757
C58   C     C_R   0.744533 0.193019 0.729082 -0.208331
C59   C     C_R   0.628321 0.697176 0.613629 -0.195530
C60   C     C_R   0.244533 0.693020 0.729083 -0.208331
C61   C     C_R   0.128320 0.197176 0.613629 -0.195530
C62   C     C_R   0.648196 0.152755 0.592332 -0.053051
C63   C     C_R   0.631045 0.829725 0.581392 -0.055815
C64   C     C_R   0.148196 0.652755 0.592332 -0.053051
C65   C     C_R   0.131045 0.329725 0.581392 -0.055815
C66   C     C_R   0.339499 0.821776 0.306958 -0.248382
C67   C     C_R   0.251929 0.709813 0.540880 0.073224
C68   C     C_R   0.383304 0.220530 0.344961 -0.246879
C69   C     C_R   0.839498 0.321778 0.306957 -0.248383
C70   C     C_R   0.883303 0.720530 0.344961 -0.246879
C71   C     C_R   0.294692 0.762879 0.275213 -0.132422
C72   C     C_R   0.341133 0.284125 0.319958 -0.130159
C73   C     C_R   0.794690 0.262881 0.275212 -0.132422
C74   C     C_R   0.841133 0.784125 0.319958 -0.130159
C75   C     C_R   0.269929 0.718333 0.350738 0.097832
C76   C     C_R   0.279139 0.294604 0.363316 0.098286
C77   C     C_R   0.769927 0.218335 0.350737 0.097832
C78   C     C_R   0.208929 0.249467 0.502233 0.083155
C79   C     C_R   0.779139 0.794604 0.363316 0.098286
C80   C     C_R   0.289075 0.735497 0.460896 0.040648
C81   C     C_R   0.259779 0.239191 0.434565 0.038739
C82   C     C_R   0.789075 0.235498 0.460895 0.040649
C83   C     C_R   0.759779 0.739190 0.434565 0.038740
C84   C     C_R   0.346909 0.783490 0.492268 0.073246
C85   C     C_R   0.294284 0.169155 0.439536 0.071444
C86   C     C_R   0.846908 0.283490 0.492267 0.073245
C87   C     C_R   0.794284 0.669155 0.439536 0.071444
C88   C     C_R   0.782621 0.216335 0.649978 0.193768
H1    H     H_    0.649098 0.142336 0.762043 0.161070
H2    H     H_    0.232339 0.582664 0.112235 0.194686
H3    H     H_    0.440084 0.916303 0.177199 0.201975
H4    H     H_    0.410593 0.002219 0.207206 0.222223
H5    H     H_    0.940084 0.416303 0.177199 0.201975
H6    H     H_    0.910593 0.502219 0.207206 0.222223
H7    H     H_    0.334301 0.915585 0.671099 0.212663
H8    H     H_    0.330650 0.001411 0.612759 0.235630
H9    H     H_    0.834301 0.415585 0.671099 0.212662
H10   H     H_    0.830650 0.501410 0.612759 0.235630
H11   H     H_    0.378351 0.054508 0.015860 0.173338
H12   H     H_    0.557236 0.775411 0.668158 0.142326
H13   H     H_    0.878351 0.554508 0.015860 0.173338
H14   H     H_    0.294433 0.022856 0.858139 0.159274
H15   H     H_    0.794433 0.522856 0.858140 0.159274
H16   H     H_    0.632216 0.934076 0.806518 0.173973
H17   H     H_    0.651559 0.019361 0.767316 0.162343
H18   H     H_    0.132216 0.434076 0.806517 0.173974
H19   H     H_    0.151559 0.519361 0.767316 0.162343
H20   H     H_    0.375821 0.750713 0.760487 0.148955
H21   H     H_    0.182021 0.066898 0.563310 0.152960
H22   H     H_    0.875822 0.250712 0.760485 0.148955
H23   H     H_    0.149097 0.642337 0.762043 0.161070
H24   H     H_    0.682021 0.566898 0.563310 0.152960
H25   H     H_    0.766969 0.198707 0.812691 0.134027
H26   H     H_    0.605597 0.649935 0.648919 0.137468
H27   H     H_    0.266968 0.698708 0.812692 0.134026
H28   H     H_    0.105597 0.149935 0.648918 0.137468
H29   H     H_    0.653450 0.187553 0.434571 0.158490
H30   H     H_    0.714406 0.869309 0.505563 0.139351
H31   H     H_    0.153450 0.687552 0.434571 0.158490
H32   H     H_    0.214406 0.369310 0.505563 0.139351
H33   H     H_    0.353499 0.858337 0.246270 0.158706
H34   H     H_    0.057236 0.275411 0.668158 0.142326
H35   H     H_    0.433688 0.216066 0.316372 0.163896
H36   H     H_    0.853497 0.358339 0.246269 0.158706
H37   H     H_    0.933687 0.716066 0.316372 0.163896
H38   H     H_    0.739137 0.110953 0.375436 0.195778
H39   H     H_    0.682414 0.162099 0.280013 0.182387
H40   H     H_    0.679059 0.844121 0.324769 0.209914
H41   H     H_    0.749659 0.904012 0.357499 0.177378
H42   H     H_    0.239139 0.610951 0.375438 0.195777
H43   H     H_    0.182416 0.662096 0.280014 0.182387
H44   H     H_    0.179059 0.344122 0.324769 0.209914
H45   H     H_    0.676518 0.035789 0.949712 0.146888
H46   H     H_    0.249659 0.404012 0.357499 0.177378
H47   H     H_    0.279061 0.751709 0.191197 0.145340
H48   H     H_    0.356902 0.325862 0.266823 0.151625
H49   H     H_    0.779058 0.251712 0.191196 0.145340
H50   H     H_    0.856902 0.825861 0.266822 0.151625
H51   H     H_    0.432936 0.807391 0.625052 0.175531
H52   H     H_    0.280033 0.051322 0.463832 0.133928
H53   H     H_    0.932936 0.307390 0.625051 0.175530
H54   H     H_    0.780033 0.551322 0.463833 0.133928
H55   H     H_    0.659192 0.011503 0.313648 0.148141
H56   H     H_    0.176518 0.535789 0.949712 0.146887
H57   H     H_    0.159192 0.511503 0.313648 0.148142
H58   H     H_    0.740834 0.988338 0.106132 0.190462
H59   H     H_    0.732339 0.082664 0.112236 0.194687
H60   H     H_    0.240834 0.488338 0.106132 0.190462
N1    N     N_R   0.552340 0.000000 0.237260 -0.139681
N2    N     N_3   0.824622 0.472079 0.680655 -0.475056
N3    N     N_3   0.609154 0.985465 0.778761 -0.362212
N4    N     N_3   0.109154 0.485466 0.778760 -0.362212
N5    N     N_3   0.735748 0.150502 0.313917 -0.465724
N6    N     N_3   0.732327 0.854812 0.319124 -0.469793
N7    N     N_3   0.235750 0.650500 0.313919 -0.465724
N8    N     N_3   0.232327 0.354812 0.319124 -0.469793
N9    N     N_R   0.052340 0.500000 0.237260 -0.139681
N10   N     N_R   0.448170 0.000000 0.762060 -0.136096
N11   N     N_R   0.948170 0.500000 0.762060 -0.136095
N12   N     N_3   0.722781 0.032007 0.148219 -0.460460
N13   N     N_3   0.222781 0.532007 0.148219 -0.460459
N14   N     N_3   0.433138 0.971804 0.152112 -0.480821
N15   N     N_3   0.933138 0.471804 0.152112 -0.480821
N16   N     N_3   0.324622 0.972079 0.680655 -0.475056
O1    O     O_R   0.448200 0.076800 0.373930 -0.619076
O2    O     O_R   0.585240 0.076800 0.457600 -0.623247
O3    O     O_R   0.085240 0.423200 0.457600 -0.607997
O4    O     O_R   0.085240 0.576800 0.457600 -0.623247
O5    O     O_R   0.551780 0.923190 0.626070 -0.600584
O6    O     O_R   0.551780 0.076810 0.626070 -0.590014
O7    O     O_R   0.051780 0.423190 0.626070 -0.600584
O8    O     O_R   0.051780 0.576810 0.626070 -0.590014
O9    O     O_R   0.448200 0.923200 0.373930 -0.621215
O10   O     O_R   0.948200 0.576800 0.373930 -0.619076
O11   O     O_R   0.948200 0.423200 0.373930 -0.621215
O12   O     O_R   0.414750 0.076790 0.542400 -0.606393
O13   O     O_R   0.414750 0.923210 0.542400 -0.643875
O14   O     O_R   0.914750 0.576790 0.542400 -0.606393
O15   O     O_R   0.914750 0.423210 0.542400 -0.643875
O16   O     O_R   0.585240 0.923200 0.457600 -0.607997
Zn1   Zn    Zn3+2 0.522330 0.000000 0.387520 0.912749
Zn2   Zn    Zn3+2 0.022330 0.500000 0.387520 0.912749
Zn3   Zn    Zn3+2 0.477660 1.000000 0.612480 0.931974
Zn4   Zn    Zn3+2 0.977660 0.500000 0.612480 0.931974

loop_
_geom_bond_atom_site_label_1
_geom_bond_atom_site_label_2
_ccdc_geom_bond_type
O12   Zn3   S    
C83   C87   A    
C1    O12   A    
C8    C13   A    
C57   H57   S    
O6    Zn3   S    
C45   C82   A    
C80   C84   A    
C33   O5    A    
O10   Zn2   S    
C37   O8    A    
C39   C41   A    
C23   O10   A    
C28   C57   A    
C7    C11   A    
C74   H50   S    
C41   C46   A    
H60   N13   S    
H16   N3    S    
C38   C40   A    
C43   N11   A    
C8    H24   S    
C71   H47   S    
H41   N6    S    
C27   C55   A    
C43   C52   A    
C30   N2    S    
O3    Zn2   S    
H58   N12   S    
H5    N15   S    
C11   C86   A    
C27   C47   A    
C14   C62   A    
C12   C22   S    
C35   O2    A    
C10   C85   A    
C4    C78   A    
C32   C39   A    
C21   H34   S    
C23   C26   S    
O5    Zn3   S    
C23   O14   A    
C57   N9    A    
C34   O11   A    
C17   H32   S    
C77   N5    S    
C44   C53   A    
C18   C58   A    
C7    H22   S    
H46   N8    S    
C7    C88   A    
C19   C63   A    
C26   C87   A    
C49   C51   A    
C70   C74   A    
C58   H25   S    
C50   C52   A    
H9    N2    S    
H3    N14   S    
C69   C73   A    
H42   N7    S    
C54   N15   S    
C20   C60   A    
C24   C85   A    
C21   C61   A    
C46   C54   A    
C44   C47   A    
C68   C72   A    
C42   C51   A    
C3    C60   A    
C40   C42   A    
C12   O13   A    
O9    Zn1   S    
C33   O16   A    
N1    Zn1   S    
C41   C43   A    
C29   N16   S    
H39   N5    S    
C34   O15   A    
C42   N10   A    
O2    Zn1   S    
C10   H52   S    
H59   N12   S    
C68   H35   S    
C50   H56   S    
C28   N13   S    
C55   N1    A    
C14   C45   A    
C37   O4    A    
H17   N3    S    
C46   C48   A    
C66   H33   S    
H18   N4    S    
H2    N13   S    
C30   C32   A    
C31   H14   S    
O7    Zn4   S    
C45   C88   A    
C55   H55   S    
C47   C49   A    
C16   H31   S    
C53   N1    A    
C2    C59   A    
C18   C62   A    
C69   H36   S    
C19   C59   A    
C27   N12   S    
O13   Zn3   S    
C4    C61   A    
C76   N8    S    
C36   O3    A    
H8    N16   S    
C22   C84   A    
C20   C64   A    
C5    C9    A    
C20   H23   S    
O8    Zn4   S    
C66   C71   A    
C1    O1    A    
C33   C63   S    
C14   H29   S    
C13   C87   A    
C61   H28   S    
C32   H15   S    
C72   C76   A    
C16   C67   A    
C13   H54   S    
C48   C50   A    
C11   H53   S    
O11   Zn2   S    
H19   N4    S    
C70   H37   S    
C4    C6    A    
O4    Zn2   S    
C74   C79   A    
N11   Zn4   S    
C6    H21   S    
C25   C86   A    
C25   C69   A    
N9    Zn2   S    
C37   C64   S    
O16   Zn1   S    
C56   C83   A    
O15   Zn4   S    
H10   N2    S    
H4    N14   S    
C49   H45   S    
C28   C48   A    
C36   O7    A    
C73   C77   A    
C21   C65   A    
C36   C65   S    
C18   H1    S    
C3    C67   A    
C67   C80   A    
C38   H11   S    
C3    C5    A    
C58   C88   A    
C76   C81   A    
C6    C10   A    
C19   H12   S    
C30   N11   A    
C22   C66   A    
C29   N10   A    
H40   N6    S    
C25   C34   S    
C17   C65   A    
C15   H30   S    
C31   C38   A    
O1    Zn1   S    
C52   N4    S    
C39   H13   S    
C29   C31   A    
C82   C86   A    
H7    N16   S    
C15   C56   A    
C54   N9    A    
C71   C75   A    
C9    H51   S    
C78   C81   A    
C73   H49   S    
C77   C82   A    
C59   H26   S    
C26   C70   A    
H43   N7    S    
C17   C78   A    
H44   N8    S    
C35   C62   S    
C53   N14   S    
O14   Zn4   S    
C72   H48   S    
C24   C68   A    
C9    C84   A    
C51   N3    S    
C79   C83   A    
H38   N5    S    
C75   N7    S    
C40   C44   A    
C75   C80   A    
C1    C24   S    
C2    C8    A    
C35   O6    A    
C15   C63   A    
C60   H27   S    
C2    C56   A    
C16   C64   A    
H6    N15   S    
C81   C85   A    
N10   Zn3   S    
C12   O9    A    
C79   N6    S    
C5    H20   S    
