data_mof_unit_11726.cif
_audit_creation_date              2012-12-10T17:47:44-0500
_audit_creation_method            fapswitch 2.2
_symmetry_space_group_name_H-M    P1
_symmetry_Int_Tables_number       1
_space_group_crystal_system       triclinic
_cell_length_a                    10.731106
_cell_length_b                    10.692659
_cell_length_c                    9.880616
_cell_angle_alpha                 88.999688
_cell_angle_beta                  90.746636
_cell_angle_gamma                 93.255735
_cell_volume                      1131.65727904

loop_
_atom_site_label
_atom_site_type_symbol
_atom_type_description
_atom_site_fract_x
_atom_site_fract_y
_atom_site_fract_z
_atom_type_partial_charge
C1    C     C_R   0.512662 0.260861 0.502573 0.863572
C2    C     C_3   0.878358 0.496806 0.496797 0.048721
C3    C     C_3   0.935524 0.621018 0.557319 -0.475956
C4    C     C_3   0.928145 0.490594 0.346931 0.387774
C5    C     C_R   0.535302 0.101672 0.765139 0.528470
C6    C     C_R   0.480614 0.037832 0.876361 -0.215079
C7    C     C_R   0.405366 0.929401 0.857623 -0.226794
C8    C     C_R   0.396301 0.876660 0.729970 -0.187528
C9    C     C_R   0.460252 0.934836 0.619216 0.043889
C10   C     C_R   0.509310 0.057717 0.631691 -0.029794
C11   C     C_R   0.529787 0.128007 0.509603 -0.138734
C12   C     C_R   0.257536 0.498545 0.498867 0.829021
C13   C     C_R   0.539058 0.067316 0.386399 -0.234685
C14   C     C_R   0.522995 0.939413 0.382285 -0.222228
C15   C     C_R   0.483141 0.872751 0.498072 -0.106316
C16   C     C_R   0.349444 0.318440 0.140174 -0.281301
C17   C     C_R   0.289829 0.218774 0.069306 0.482033
C18   C     C_R   0.280663 0.228084 0.929377 -0.287677
C19   C     C_R   0.342664 0.326512 0.859846 -0.231386
C20   C     C_R   0.422131 0.414435 0.927846 0.205913
C21   C     C_R   0.423202 0.413020 0.072510 0.104474
C22   C     C_R   0.573307 0.583199 0.071122 -0.092967
C23   C     C_R   0.490584 0.739402 0.498924 0.876451
C24   C     C_R   0.573668 0.582807 0.927778 -0.106785
C25   C     C_R   0.742297 0.499925 0.499947 0.818552
C26   C     C_3   0.067695 0.387604 0.585553 -0.417062
C27   C     C_3   0.925009 0.388936 0.588239 -0.418278
C28   C     C_3   0.079113 0.623042 0.551420 -0.421819
C29   C     C_3   0.069308 0.478702 0.349384 -0.441152
C30   C     C_3   0.121103 0.497324 0.496078 0.131097
H1    H     H_    0.104996 0.395311 0.690940 0.190861
H2    H     H_    0.915648 0.586376 0.304325 0.110334
H3    H     H_    0.114373 0.701754 0.484684 0.166010
H4    H     H_    0.901680 0.703650 0.500600 0.156257
H5    H     H_    0.555880 0.118747 0.292407 0.179833
H6    H     H_    0.498120 0.072061 0.977737 0.178279
H7    H     H_    0.359911 0.882521 0.943171 0.185344
H8    H     H_    0.340568 0.789769 0.718851 0.164811
H9    H     H_    0.539104 0.893365 0.287774 0.172344
H10   H     H_    0.633253 0.650912 0.124759 0.139580
H11   H     H_    0.096060 0.296854 0.545884 0.146682
H12   H     H_    0.338994 0.317146 0.246942 0.208292
H13   H     H_    0.232106 0.153773 0.873034 0.177212
H14   H     H_    0.332041 0.326248 0.752549 0.215292
H15   H     H_    0.633888 0.650266 0.873272 0.142682
H16   H     H_    0.884026 0.295451 0.561153 0.143608
H17   H     H_    0.897625 0.406237 0.694016 0.194082
H18   H     H_    0.118861 0.639796 0.654585 0.188129
H19   H     H_    0.906456 0.630221 0.664320 0.204013
H20   H     H_    0.113064 0.550328 0.278823 0.162463
H21   H     H_    0.092572 0.386013 0.311955 0.169580
N1    N     N_R   0.498810 0.498800 0.142780 -0.109881
N2    N     N_R   0.498760 0.498720 0.857170 -0.105483
O1    O     O_R   0.500000 0.316780 0.614690 -0.585072
O2    O     O_R   0.499990 0.316750 0.385360 -0.655631
O3    O     O_R   0.314800 0.499990 0.614670 -0.654069
O4    O     O_R   0.314790 0.499970 0.385330 -0.639747
O5    O     O_R   0.500010 0.683250 0.614640 -0.622291
O6    O     O_R   0.500000 0.683220 0.385310 -0.624762
O7    O     O_R   0.685210 0.500030 0.614670 -0.603004
O8    O     O_R   0.685200 0.500010 0.385330 -0.606778
Zn1   Zn    Zn3+2 0.500010 0.500020 0.653130 0.953410
Zn2   Zn    Zn3+2 0.499990 0.499980 0.346870 0.929199
O9    O     O_3   0.622705 0.198372 0.791336 -0.626563
C31   C     C_3   0.744215 0.154389 0.781276 0.063734
H22   H     H_    0.809473 0.237519 0.782624 0.176729
H23   H     H_    0.758139 0.105787 0.684157 0.120439
C32   C     C_3   0.779266 0.072005 0.903213 -0.391901
H24   H     H_    0.756385 0.120066 0.997570 0.236152
H25   H     H_    0.725396 0.980287 0.899822 0.213156
C33   C     C_3   0.918221 0.048013 0.904449 -0.949025
H26   H     H_    0.943423 0.001078 0.809994 0.266106
H27   H     H_    0.940038 0.986412 0.992193 0.265036
H28   H     H_    0.975177 0.137595 0.913672 0.261352
O10   O     O_3   0.270170 0.101052 0.129022 -0.651415
C34   C     C_3   0.179755 0.098759 0.231420 0.051638
H29   H     H_    0.094309 0.049466 0.190313 0.179887
H30   H     H_    0.157305 0.193027 0.265234 0.095186
C35   C     C_3   0.226224 0.024971 0.354132 -0.302067
H31   H     H_    0.269176 0.939140 0.319584 0.244850
H32   H     H_    0.296754 0.085303 0.408138 0.226279
C36   C     C_3   0.123620 0.986044 0.454226 -1.011849
H33   H     H_    0.077782 0.068938 0.491368 0.267671
H34   H     H_    0.165352 0.937775 0.542804 0.266925
H35   H     H_    0.053646 0.919767 0.406708 0.267132
O11   O     O_3   0.867437 0.412504 0.246403 -0.644582
C37   C     C_3   0.809393 0.295683 0.287127 0.207011
H36   H     H_    0.729978 0.276956 0.215681 0.168811
H37   H     H_    0.766770 0.292661 0.387587 0.107339
C38   C     C_3   0.897519 0.190743 0.274368 -0.444875
H38   H     H_    0.940407 0.197385 0.172632 0.239400
H39   H     H_    0.970006 0.202556 0.354064 0.216938
C39   C     C_3   0.830675 0.061893 0.293407 -0.974776
H40   H     H_    0.894552 0.987474 0.271082 0.262840
H41   H     H_    0.750156 0.050110 0.222664 0.258637
H42   H     H_    0.798819 0.049195 0.399496 0.277792

loop_
_geom_bond_atom_site_label_1
_geom_bond_atom_site_label_2
_ccdc_geom_bond_type
O5    Zn1   S    
C23   O5    A    
C37   H36   S    
C16   C21   A    
C4    H2    S    
C19   C20   A    
C1    C11   S    
C34   C35   S    
C1    O1    A    
C3    H19   S    
C7    C8    A    
C23   O6    A    
C26   C27   S    
C39   H40   S    
C24   H15   S    
C3    C28   S    
C34   H30   S    
C13   H5    S    
C5    C6    A    
C4    O11   S    
C8    C9    A    
O7    Zn1   S    
C18   C19   A    
O8    Zn2   S    
C14   H9    S    
C16   C17   A    
C31   H23   S    
O2    Zn2   S    
C2    C27   S    
C25   O7    A    
C9    C10   A    
C4    C29   S    
C15   C23   S    
C26   H1    S    
C39   H41   S    
C13   C14   A    
C8    H8    S    
O4    Zn2   S    
C29   H20   S    
C34   H29   S    
C35   H32   S    
O11   C37   S    
C32   H24   S    
O1    Zn1   S    
C3    H4    S    
C24   N2    A    
C5    O9    S    
C2    C4    S    
O10   C34   S    
C29   C30   S    
C35   C36   S    
N2    Zn1   S    
C38   H39   S    
C31   C32   S    
C22   H10   S    
C17   C18   A    
C7    H7    S    
C25   O8    A    
C12   O3    A    
C12   O4    A    
C27   H16   S    
C28   H3    S    
C26   C30   S    
C39   H42   S    
C36   H34   S    
C37   H37   S    
O3    Zn1   S    
C16   H12   S    
C19   H14   S    
C38   C39   S    
C22   N1    A    
C29   H21   S    
C27   H17   S    
C28   H18   S    
C12   C30   S    
C20   N2    A    
N1    Zn2   S    
C33   H28   S    
C6    C7    A    
C36   H35   S    
O6    Zn2   S    
O9    C31   S    
C28   C30   S    
C2    C3    S    
C1    O2    A    
C5    C10   A    
C18   H13   S    
C11   C13   A    
C38   H38   S    
C32   C33   S    
C6    H6    S    
C2    C25   S    
C22   C24   A    
C31   H22   S    
C9    C15   A    
C10   C11   A    
C35   H31   S    
C33   H26   S    
C20   C21   A    
C32   H25   S    
C36   H33   S    
C37   C38   S    
C33   H27   S    
C17   O10   S    
C14   C15   A    
C21   N1    A    
C26   H11   S    
