data_mof_unit_33552.cif
_audit_creation_date              2013-03-05T15:45:42-0500
_audit_creation_method            fapswitch 2.2
_symmetry_space_group_name_H-M    P1
_symmetry_Int_Tables_number       1
_space_group_crystal_system       triclinic
_cell_length_a                    6.940308
_cell_length_b                    16.726159
_cell_length_c                    16.870708
_cell_angle_alpha                 101.295291
_cell_angle_beta                  89.811548
_cell_angle_gamma                 91.00899
_cell_volume                      1920.19986446

loop_
_atom_site_label
_atom_site_type_symbol
_atom_site_description
_atom_site_fract_x
_atom_site_fract_y
_atom_site_fract_z
_atom_type_partial_charge
O1    O     O_R   0.506340 0.439070 0.579550 -0.576678
O2    O     O_R   0.170010 0.404890 0.412100 -0.581009
O3    O     O_R   0.005010 0.560930 0.420450 -0.567294
C1    C     C_R   0.339057 0.381390 0.383311 1.017984
O4    O     O_R   0.176280 0.429360 0.578400 -0.552018
O5    O     O_R   0.011320 0.585570 0.587940 -0.572751
C2    C     C_R   0.343479 0.413828 0.605299 1.111728
O6    O     O_R   0.500030 0.414430 0.412060 -0.591897
O7    O     O_3   0.340950 0.551220 0.502940 -0.274921
V1    V     V_3+5 0.064020 0.490500 0.499460 1.315219
O8    O     O_R   0.681910 0.595110 0.587900 -0.611425
C3    C     C_R   0.852034 0.618427 0.616357 1.029178
O9    O     O_R   0.675640 0.570640 0.421600 -0.607288
C4    C     C_R   0.845312 0.585853 0.394647 1.088590
V2    V     V_3+5 0.564670 0.509500 0.500540 1.267801
O10   O     O_3   0.837610 0.448780 0.497060 -0.245115
C5    C     C_R   0.908263 0.860858 0.166205 -0.545002
C6    C     C_R   0.857793 0.632614 0.328421 -0.366903
C7    C     C_R   0.866035 0.639801 0.184950 0.774168
C8    C     C_R   0.855991 0.592903 0.246151 0.133741
C9    C     C_R   0.871517 0.718039 0.347744 -0.156016
C10   C     C_R   0.882423 0.764781 0.286796 -0.000580
C11   C     C_R   0.876933 0.726120 0.204162 -0.240356
C12   C     C_R   0.887072 0.775047 0.143529 0.324079
C13   C     C_R   0.914477 0.897410 0.248378 0.785295
C14   C     C_R   0.900487 0.849994 0.307847 -0.222631
H1    H     H_    0.905135 0.880154 0.370843 0.186973
H2    H     H_    0.874468 0.748225 0.410810 0.169206
C15   C     C_3   0.840893 0.820458 0.727059 -0.130234
C16   C     C_3   0.003388 0.762788 0.692921 0.344508
H3    H     H_    0.814527 0.876996 0.704456 0.225949
C17   C     C_3   0.867866 0.688704 0.686622 -0.281053
C18   C     C_3   0.702757 0.745429 0.721879 -0.142536
C19   C     C_3   0.763624 0.737317 0.808446 -0.053427
C20   C     C_3   0.929224 0.680061 0.772538 -0.091440
C21   C     C_3   0.067910 0.755055 0.778039 -0.179864
C22   C     C_3   0.901551 0.811471 0.812725 -0.162800
H4    H     H_    0.552273 0.741503 0.699162 0.182834
H5    H     H_    0.663853 0.727057 0.857176 0.176068
H6    H     H_    0.964496 0.621934 0.791161 0.205105
H7    H     H_    0.218981 0.759295 0.800141 0.158071
C23   C     C_3   0.485477 0.236954 0.313203 -0.234167
C24   C     C_3   0.324633 0.181148 0.268880 0.858935
H8    H     H_    0.568853 0.224815 0.365426 0.212027
C25   C     C_3   0.410247 0.189639 0.186936 -0.327103
C26   C     C_3   0.571407 0.246001 0.230225 -0.148284
C27   C     C_3   0.441821 0.320775 0.230323 0.006532
C28   C     C_3   0.280380 0.263714 0.186401 -0.164848
C29   C     C_3   0.193713 0.254789 0.269327 -0.205656
C30   C     C_3   0.355560 0.310947 0.312446 -0.224126
H9    H     H_    0.726242 0.242682 0.213581 0.171169
H10   H     H_    0.488198 0.379527 0.214667 0.184134
H11   H     H_    0.197189 0.274960 0.133678 0.200643
H12   H     H_    0.038953 0.257696 0.286116 0.165605
C31   C     C_R   0.422190 0.137517 0.831831 -0.498915
C32   C     C_R   0.343703 0.362200 0.667927 -0.545452
C33   C     C_R   0.190540 0.326222 0.787548 0.253084
C34   C     C_R   0.203517 0.375463 0.729228 0.679664
C35   C     C_R   0.475338 0.298421 0.665616 0.340058
C36   C     C_R   0.458396 0.245815 0.722116 -0.088301
C37   C     C_R   0.315235 0.259281 0.783652 -0.278499
C38   C     C_R   0.298798 0.204361 0.838128 0.798933
C39   C     C_R   0.556962 0.122678 0.768053 0.320268
C40   C     C_R   0.576188 0.177276 0.715325 -0.107624
H13   H     H_    0.679129 0.163357 0.666481 0.203774
O11   O     O_R   0.266070 0.085680 0.087850 -0.588438
O12   O     O_R   0.590090 0.070660 0.921580 -0.584923
O13   O     O_R   0.754780 0.914400 0.912080 -0.586469
C41   C     C_R   0.422626 0.086786 0.895179 1.110966
O14   O     O_R   0.596110 0.095130 0.087880 -0.598397
O15   O     O_R   0.760850 0.939050 0.079570 -0.600377
C42   C     C_R   0.426978 0.118824 0.116467 1.020013
O16   O     O_R   0.260010 0.061030 0.920360 -0.559495
O17   O     O_3   0.425070 0.948840 0.997010 -0.279249
V3    V     V_3+5 0.702100 0.009490 0.000550 1.285316
O18   O     O_R   0.090200 0.929250 0.078500 -0.573443
C43   C     C_R   0.920408 0.913159 0.104587 1.129788
O19   O     O_R   0.084180 0.904770 0.912200 -0.596272
C44   C     C_R   0.914564 0.881574 0.883463 1.038156
V4    V     V_3+5 0.201420 0.990350 0.999580 1.298482
O20   O     O_3   0.928580 0.051150 0.002990 -0.265411
N1    N     N_R   0.870340 0.738856 0.059390 0.265796
O21   O     O_R   0.705127 0.708942 0.030356 -0.324865
O22   O     O_R   0.011909 0.745304 0.010170 -0.391228
F1    F     F_    0.265067 0.108292 0.288829 -0.633037
F2    F     F_    0.164196 0.214950 0.897704 -0.657776
F3    F     F_    0.932654 0.979662 0.271156 -0.638973
N2    N     N_R   0.665915 0.049068 0.752854 0.242697
O23   O     O_R   0.837565 0.048261 0.721406 -0.383010
O24   O     O_R   0.582965 0.980410 0.759779 -0.415739
N3    N     N_R   0.050117 0.345923 0.850523 0.302953
O25   O     O_R   0.869153 0.350420 0.832158 -0.300411
O26   O     O_R   0.106623 0.374542 0.924250 -0.250463
F4    F     F_    0.081571 0.439025 0.734320 -0.655164
N4    N     N_R   0.620252 0.284766 0.603772 0.245551
O27   O     O_R   0.570735 0.265286 0.528060 -0.417797
O28   O     O_R   0.801842 0.293583 0.623028 -0.356166
F5    F     F_    0.875407 0.599957 0.106801 -0.574075
N5    N     N_R   0.844425 0.505175 0.223584 0.243548
O29   O     O_R   0.755077 0.470418 0.157794 -0.298973
O30   O     O_R   0.934400 0.459455 0.265033 -0.429343
N6    N     N_R   0.136225 0.780610 0.631254 0.229599
O31   O     O_R   0.250366 0.844170 0.647698 -0.352176
O32   O     O_R   0.131902 0.737389 0.558282 -0.416304

loop_
_geom_bond_atom_site_label_1
_geom_bond_atom_site_label_2
_geom_bond_distance
_ccdc_geom_bond_type
C16   C17   1.529529 S    
C39   N2    1.435713 S    
C19   C22   1.543849 S    
C4    C6    1.485539 S    
O2    C1    1.305599 A    
N4    O27   1.300662 A    
C1    O6    1.290577 A    
C25   C26   1.540015 S    
O13   V3    1.994494 S    
C38   F2    1.358015 S    
C14   H1    1.083814 S    
C35   N4    1.435310 S    
C21   C22   1.543873 S    
O5    C3    1.291779 A    
O19   V4    2.006109 S    
V2    O10   2.160303 S    
C6    C9    1.403525 A    
C31   C38   1.407584 A    
C15   C18   1.554632 S    
C13   F3    1.357711 S    
C19   C20   1.553050 S    
C23   C26   1.553250 S    
C12   N1    1.434174 S    
O8    V2    2.006187 S    
O11   C42   1.290131 A    
N5    O29   1.301334 A    
C31   C39   1.411085 A    
C11   C12   1.430533 A    
C41   O16   1.300472 A    
O1    V2    1.980698 S    
O7    V1    2.153499 S    
O13   C44   1.295529 A    
C35   C36   1.421546 A    
O17   V4    1.708502 S    
O9    C4    1.299785 A    
C3    C17   1.499827 S    
C25   C42   1.510684 S    
C21   H7    1.110383 S    
N6    O31   1.300378 A    
C23   H8    1.108998 S    
C2    C32   1.489801 S    
C7    F5    1.357715 S    
C27   C30   1.544439 S    
C28   H11   1.110245 S    
C5    C12   1.416290 A    
O17   V3    2.153523 S    
C19   H5    1.110021 S    
C24   F1    1.382447 S    
C17   C20   1.546443 S    
O18   C43   1.298691 A    
N3    O25   1.301562 A    
O4    C2    1.296246 A    
O19   C44   1.298198 A    
C24   C29   1.542263 S    
C13   C14   1.397631 A    
C26   H9    1.109369 S    
C1    C30   1.510885 S    
C36   C37   1.423089 A    
O12   C41   1.297484 A    
C20   C21   1.555936 S    
C7    C11   1.417153 A    
C15   C16   1.533110 S    
N3    O26   1.301307 A    
C22   C44   1.502027 S    
C27   C28   1.551166 S    
C16   N6    1.458299 S    
C5    C43   1.485283 S    
C18   C19   1.553524 S    
N6    O32   1.299983 A    
C24   C25   1.533928 S    
C31   C41   1.489149 S    
O3    C4    1.297014 A    
C23   C30   1.546099 S    
C28   C29   1.553844 S    
N5    O30   1.301100 A    
C9    H2    1.084759 S    
N2    O24   1.301028 A    
C29   C30   1.540695 S    
O6    V2    2.001879 S    
N1    O22   1.300968 A    
O9    V2    1.977774 S    
O12   V3    1.998726 S    
C23   C24   1.540110 S    
O2    V1    1.991718 S    
O15   C43   1.297511 A    
C25   C28   1.546395 S    
C26   C27   1.553022 S    
C33   N3    1.433357 S    
O1    C2    1.302446 A    
V3    O20   1.705443 S    
O18   V4    1.977739 S    
V4    O20   2.160412 S    
O5    V1    1.994401 S    
O8    C3    1.300323 A    
N4    O28   1.301153 A    
C33   C37   1.418395 A    
C27   H10   1.108619 S    
O11   V4    2.002611 S    
C18   H4    1.110105 S    
C32   C35   1.411379 A    
C16   C21   1.535720 S    
C36   C40   1.405920 A    
C5    C13   1.401772 A    
C40   H13   1.081900 S    
C7    C8    1.414602 A    
C20   H6    1.110154 S    
O7    V2    1.710583 S    
O4    V1    1.998705 S    
C15   H3    1.104984 S    
O3    V1    1.991969 S    
V1    O10   1.705426 S    
C17   C18   1.542674 S    
O15   V3    1.991828 S    
C33   C34   1.403126 A    
C8    N5    1.442817 S    
O16   V4    1.986862 S    
C32   C34   1.405865 A    
C6    C8    1.416498 A    
C34   F4    1.359936 S    
C37   C38   1.424010 A    
C39   C40   1.398665 A    
N2    O23   1.301720 A    
N1    O21   1.300973 A    
C10   C14   1.403201 A    
C15   C22   1.542689 S    
O14   V3    1.991706 S    
C10   C11   1.417550 A    
O14   C42   1.305875 A    
C9    C10   1.409447 A    
C29   H12   1.109365 S    
