data_mof_unit_36615.cif
_audit_creation_date              2013-03-05T15:52:55-0500
_audit_creation_method            fapswitch 2.2
_symmetry_space_group_name_H-M    P1
_symmetry_Int_Tables_number       1
_space_group_crystal_system       triclinic
_cell_length_a                    10.713956
_cell_length_b                    10.783807
_cell_length_c                    17.087037
_cell_angle_alpha                 99.777557
_cell_angle_beta                  99.76684
_cell_angle_gamma                 60.830275
_cell_volume                      1690.10414007

loop_
_atom_site_label
_atom_site_type_symbol
_atom_site_description
_atom_site_fract_x
_atom_site_fract_y
_atom_site_fract_z
_atom_type_partial_charge
O1    O     O_R   0.749810 0.499790 0.438040 -0.554264
O2    O     O_R   0.477660 0.726260 0.439290 -0.524724
C1    C     C_R   0.382447 0.710033 0.387026 0.571185
O3    O     O_R   0.260150 0.743000 0.412270 -0.437140
O4    O     O_R   0.297740 0.466550 0.394720 -0.484728
C2    C     C_R   0.369538 0.346244 0.357579 0.552886
O5    O     O_R   0.488080 0.253500 0.386430 -0.522864
O6    O     O_R   0.722670 0.303800 0.421940 -0.518790
C3    C     C_R   0.778829 0.373458 0.404432 0.533216
O7    O     O_R   0.751130 0.502220 0.613520 -0.505516
O8    O     O_R   0.478890 0.728510 0.601960 -0.482838
C4    C     C_R   0.357768 0.770072 0.627303 0.557922
O9    O     O_R   0.261470 0.745430 0.587750 -0.513592
O10   O     O_R   0.298970 0.468800 0.557390 -0.492382
C5    C     C_R   0.392947 0.366098 0.597933 0.536519
O11   O     O_R   0.489400 0.255930 0.561910 -0.518115
O12   O     O_R   0.723890 0.306050 0.584610 -0.525212
C6    C     C_R   0.773980 0.380659 0.629565 0.538059
Cr1   Cr    Cr6+3 0.608100 0.610860 0.522250 0.996025
Cr2   Cr    Cr6+3 0.288890 0.599990 0.488420 1.059078
Cr3   Cr    Cr6+3 0.603040 0.289190 0.489390 0.991956
O13   O     O_3   0.500010 0.500010 0.500020 -0.282596
C7    C     C_1   0.343396 0.334975 0.274265 -0.003857
C8    C     C_1   0.332041 0.324855 0.203485 0.005476
H1    H     H_    0.943846 0.459061 0.352744 0.136786
C9    C     C_R   0.861906 0.322443 0.169652 0.013212
C10   C     C_R   0.806641 0.239208 0.190439 0.015377
C11   C     C_R   0.813851 0.225742 0.271899 0.027012
C12   C     C_R   0.909979 0.393576 0.308608 -0.147532
C13   C     C_R   0.920628 0.391720 0.229333 -0.141336
C14   C     C_R   0.748712 0.165653 0.132290 -0.085414
C15   C     C_R   0.714494 0.068222 0.153994 -0.092975
C16   C     C_R   0.731549 0.047079 0.233606 -0.085652
C17   C     C_R   0.784527 0.120984 0.291695 -0.026659
C18   C     C_R   0.847091 0.319959 0.330225 0.004583
H2    H     H_    0.728934 0.182616 0.069839 0.146315
H3    H     H_    0.974631 0.446345 0.214851 0.174541
H4    H     H_    0.675799 0.008067 0.108919 0.171318
H5    H     H_    0.702856 0.974186 0.251132 0.133801
H6    H     H_    0.807730 0.089155 0.351255 0.167122
C19   C     C_R   0.356266 0.784605 0.144244 -0.015468
C20   C     C_R   0.487704 0.751400 0.190213 -0.005834
C21   C     C_R   0.495899 0.741039 0.273335 -0.038513
C22   C     C_R   0.266596 0.731543 0.247430 0.180944
C23   C     C_R   0.259553 0.751692 0.169252 -0.114744
C24   C     C_R   0.609763 0.729730 0.155796 0.225765
C25   C     C_R   0.729790 0.722607 0.205644 -0.111411
C26   C     C_R   0.731671 0.733206 0.287694 -0.190031
C27   C     C_R   0.618247 0.740954 0.321294 -0.101071
C28   C     C_R   0.380114 0.734406 0.303248 -0.028753
H7    H     H_    0.165148 0.759746 0.130466 0.184148
H8    H     H_    0.823198 0.707835 0.180860 0.194302
H9    H     H_    0.824176 0.731544 0.325765 0.153151
H10   H     H_    0.632426 0.750045 0.384981 0.175353
C29   C     C_R   0.283446 0.255999 0.794551 -0.029635
C30   C     C_R   0.414173 0.164746 0.760370 0.028925
C31   C     C_R   0.457668 0.222155 0.710188 0.025743
C32   C     C_R   0.209985 0.413664 0.691329 -0.046968
C33   C     C_R   0.179484 0.375951 0.757128 -0.154922
C34   C     C_R   0.512301 0.027011 0.783621 -0.073820
C35   C     C_R   0.657870 0.967081 0.775288 -0.098231
C36   C     C_R   0.705908 0.042788 0.742218 -0.112703
C37   C     C_R   0.606969 0.166203 0.707220 -0.089028
C38   C     C_R   0.351944 0.337449 0.668000 -0.005259
H11   H     H_    0.479843 0.970044 0.813730 0.156548
H12   H     H_    0.077520 0.444365 0.781549 0.148667
H13   H     H_    0.733723 0.866856 0.798909 0.130090
H14   H     H_    0.819091 0.006606 0.743887 0.119402
H15   H     H_    0.648194 0.220257 0.680810 0.147610
C39   C     C_1   0.820558 0.341573 0.708650 -0.064814
C40   C     C_1   0.847835 0.312766 0.776227 -0.060626
C41   C     C_1   0.338908 0.810993 0.709316 -0.061805
C42   C     C_1   0.313025 0.838575 0.777371 -0.075293
O14   O     O_R   0.171100 0.914680 0.053100 -0.523371
O15   O     O_R   0.941680 0.184840 0.050710 -0.508651
C43   C     C_R   0.897619 0.308103 0.089571 0.565149
O16   O     O_R   0.922080 0.403420 0.072610 -0.471134
O17   O     O_R   0.196880 0.369150 0.083850 -0.473533
C44   C     C_R   0.319171 0.299248 0.120182 0.565033
O18   O     O_R   0.411730 0.181020 0.091530 -0.533566
O19   O     O_R   0.365010 0.944360 0.063320 -0.464259
C45   C     C_R   0.299302 0.880483 0.080425 0.595675
O20   O     O_R   0.159380 0.906670 0.876210 -0.516154
O21   O     O_R   0.930820 0.177420 0.886730 -0.505783
C46   C     C_R   0.887869 0.296637 0.858673 0.559027
O22   O     O_R   0.910360 0.395420 0.895720 -0.487859
O23   O     O_R   0.186010 0.361730 0.919870 -0.490957
C47   C     C_R   0.274686 0.246566 0.878025 0.544930
O24   O     O_R   0.400000 0.173010 0.914630 -0.510213
O25   O     O_R   0.354140 0.936940 0.899340 -0.510531
C48   C     C_R   0.279115 0.884735 0.857213 0.558265
Cr4   Cr    Cr6+3 0.053960 0.052250 0.967380 1.027259
Cr5   Cr    Cr6+3 0.059890 0.373160 0.992710 1.091897
Cr6   Cr    Cr6+3 0.373370 0.061690 0.991710 1.058316
O26   O     O_3   0.162410 0.162370 0.983930 -0.301356
C49   C     C_R   0.099327 0.545533 0.656981 0.039655
C50   C     C_R   0.093369 0.676235 0.689750 -0.071004
C51   C     C_R   0.004224 0.799306 0.651448 -0.083071
C52   C     C_R   0.915996 0.794053 0.582150 -0.103730
C53   C     C_R   0.918679 0.664772 0.550294 -0.089108
C54   C     C_R   0.010335 0.540194 0.587366 -0.034920
H16   H     H_    0.162593 0.681042 0.742902 0.124635
H17   H     H_    0.007697 0.897682 0.673942 0.111657
H18   H     H_    0.847413 0.889585 0.552434 0.107297
H19   H     H_    0.852474 0.661252 0.495694 0.119521
H20   H     H_    0.015569 0.439438 0.560608 0.121190
N1    N     N_R   0.146672 0.724744 0.269435 0.088770
O27   O     O_R   0.047399 0.838934 0.304214 -0.358858
O28   O     O_R   0.112575 0.628424 0.231791 -0.400084
N2    N     N_R   0.619367 0.699718 0.070986 0.086123
O29   O     O_R   0.698723 0.732997 0.038146 -0.360019
O30   O     O_R   0.565142 0.622126 0.028188 -0.344164

loop_
_geom_bond_atom_site_label_1
_geom_bond_atom_site_label_2
_geom_bond_distance
_ccdc_geom_bond_type
C6    C39   1.418587 S    
O23   C47   1.317161 A    
O11   Cr3   2.057923 S    
C29   C33   1.399137 A    
C19   C20   1.398915 A    
C29   C30   1.417724 A    
O19   C45   1.290901 A    
O4    Cr2   1.943978 S    
C46   O22   1.250198 A    
O20   Cr4   2.050602 S    
O8    Cr1   1.929210 S    
C53   H19   1.079197 S    
C16   H5    1.071830 S    
C17   H6    1.079325 S    
C33   H12   1.084581 S    
C37   H15   1.070725 S    
O4    C2    1.261253 A    
C23   H7    1.084569 S    
O17   Cr5   1.940818 S    
C51   H17   1.081518 S    
C50   C51   1.396147 A    
O24   Cr6   2.062895 S    
C30   C31   1.390247 A    
C20   C24   1.423711 A    
O14   Cr4   2.054437 S    
C29   C47   1.468871 S    
C32   C49   1.475202 S    
N2    O29   1.301618 A    
C40   C46   1.415737 S    
C52   C53   1.396157 A    
C11   C18   1.428544 A    
O6    C3    1.262437 A    
C9    C43   1.445955 S    
C5    C38   1.469082 S    
O25   Cr6   1.944746 S    
C39   C40   1.197524 T    
C15   H4    1.081670 S    
C27   H10   1.067296 S    
C50   H16   1.081913 S    
C52   H18   1.082685 S    
C4    C41   1.413670 S    
C11   C17   1.414616 A    
Cr5   O26   1.975416 S    
Cr3   O13   1.975221 S    
H1    C12   1.084046 S    
N1    O28   1.299742 A    
Cr6   O26   1.964690 S    
O14   C45   1.260072 A    
C1    C28   1.492716 S    
C31   C37   1.414804 A    
C32   C38   1.422518 A    
C26   H9    1.083358 S    
O1    Cr1   2.047769 S    
C10   C14   1.415840 A    
C25   C26   1.384664 A    
O10   Cr2   1.943225 S    
Cr1   O13   1.990061 S    
O1    C3    1.290109 A    
C43   O16   1.264411 A    
C42   C48   1.414987 S    
O17   C44   1.261160 A    
C21   C27   1.422830 A    
C32   C33   1.394899 A    
O5    Cr3   2.063293 S    
Cr4   O26   1.989905 S    
O12   Cr3   1.941906 S    
C30   C34   1.416264 A    
C13   H3    1.083200 S    
C34   C35   1.389931 A    
O15   C43   1.274969 A    
C12   C13   1.374505 A    
O22   Cr5   2.056746 S    
C35   H13   1.082671 S    
C8    C44   1.399414 S    
C14   C15   1.389183 A    
O7    Cr1   2.052477 S    
N1    O27   1.299984 A    
C49   C50   1.400201 A    
C36   C37   1.390160 A    
O12   C6    1.263540 A    
C9    C10   1.407170 A    
O21   C46   1.285376 A    
C25   H8    1.082459 S    
O15   Cr4   1.931807 S    
C26   C27   1.390974 A    
Cr2   O13   1.965009 S    
C34   H11   1.067380 S    
C9    C13   1.405570 A    
C24   N2    1.440226 S    
C20   C21   1.428109 A    
O18   Cr6   2.065489 S    
C1    O3    1.309530 A    
C22   C23   1.373225 A    
C31   C38   1.415293 A    
C22   N1    1.436210 S    
C22   C28   1.422276 A    
C54   H20   1.083199 S    
C24   C25   1.392618 A    
O9    Cr2   2.059792 S    
O2    Cr1   1.934649 S    
C14   H2    1.081136 S    
C41   C42   1.195468 T    
O6    Cr3   1.937939 S    
O8    C4    1.276796 A    
C21   C28   1.455789 A    
C2    O5    1.254256 A    
O20   C48   1.275301 A    
C12   C18   1.387843 A    
C36   H14   1.074416 S    
C15   C16   1.384293 A    
O2    C1    1.296379 A    
C19   C45   1.473995 S    
O19   Cr6   1.944122 S    
O25   C48   1.260310 A    
O7    C6    1.280618 A    
C2    C7    1.399636 S    
O23   Cr5   1.935527 S    
O16   Cr5   2.052648 S    
C53   C54   1.400851 A    
C16   C17   1.386969 A    
C35   C36   1.384083 A    
N2    O30   1.301665 A    
C7    C8    1.186431 T    
C44   O18   1.252532 A    
O3    Cr2   2.061298 S    
C47   O24   1.291690 A    
C51   C52   1.395894 A    
C10   C11   1.409155 A    
C3    C18   1.459587 S    
C19   C23   1.393735 A    
O10   C5    1.287325 A    
O21   Cr4   1.934078 S    
C4    O9    1.249612 A    
C49   C54   1.404559 A    
C5    O11   1.276269 A    
