data_mof_unit_23423.cif
_audit_creation_date              2012-10-26T21:33:22-0400
_audit_creation_method            fapswitch 2.2
_symmetry_space_group_name_H-M    P1
_symmetry_Int_Tables_number       1
_space_group_crystal_system       triclinic
_cell_length_a                    28.250379
_cell_length_b                    18.28296
_cell_length_c                    16.976983
_cell_angle_alpha                 90.189937
_cell_angle_beta                  61.312475
_cell_angle_gamma                 90.485224
_cell_volume                      7692.00030967

loop_
_atom_site_label
_atom_site_type_symbol
_atom_type_description
_atom_site_fract_x
_atom_site_fract_y
_atom_site_fract_z
_atom_type_partial_charge
C1    C     C_R   0.702260 0.269974 0.675928 0.872945
C2    C     C_R   0.090967 0.508369 0.534129 -0.025631
C3    C     C_R   0.213265 0.172779 0.881313 0.082910
C4    C     C_R   0.081648 0.084820 0.926530 0.927310
C5    C     C_R   0.924535 0.900999 0.066734 0.911341
C6    C     C_R   0.927727 0.102343 0.063958 0.928988
C7    C     C_R   0.070260 0.895388 0.937711 0.874438
C8    C     C_R   0.581487 0.585293 0.926702 0.926846
C9    C     C_R   0.424541 0.400991 0.066728 0.911314
C10   C     C_R   0.427726 0.602342 0.063958 0.928489
C11   C     C_R   0.570265 0.395393 0.937707 0.875086
C12   C     C_R   0.521682 0.129566 0.596206 0.103485
C13   C     C_R   0.400398 0.009355 0.502480 -0.025879
C14   C     C_R   0.476400 0.897615 0.420191 0.100189
C15   C     C_R   0.428021 0.131802 0.575865 0.111325
C16   C     C_R   0.573426 0.898813 0.433942 0.100144
C17   C     C_R   0.021686 0.629564 0.596187 0.103484
C18   C     C_R   0.976413 0.397606 0.420171 0.100167
C19   C     C_R   0.928027 0.631796 0.575841 0.111325
C20   C     C_R   0.073438 0.398812 0.433924 0.100151
C21   C     C_R   0.488553 0.191299 0.621064 -0.221233
C22   C     C_R   0.516174 0.843879 0.377834 -0.216733
C23   C     C_R   0.443560 0.193146 0.608878 -0.241448
C24   C     C_R   0.590961 0.008368 0.534143 -0.025640
C25   C     C_R   0.563679 0.844987 0.383974 -0.226984
C26   C     C_R   0.988558 0.691298 0.621039 -0.221222
C27   C     C_R   0.016188 0.343870 0.377818 -0.216721
C28   C     C_R   0.943565 0.693143 0.608850 -0.241446
C29   C     C_R   0.063693 0.344983 0.383957 -0.226964
C30   C     C_R   0.462537 0.071138 0.544819 0.010900
C31   C     C_R   0.534107 0.953049 0.477138 0.012324
C32   C     C_R   0.509834 0.070432 0.554076 0.006907
C33   C     C_R   0.486046 0.952993 0.469434 0.008661
C34   C     C_R   0.962544 0.571133 0.544796 0.010902
C35   C     C_R   0.122329 0.401039 0.438985 0.156176
C36   C     C_R   0.034118 0.453047 0.477118 0.012325
C37   C     C_R   0.009841 0.570431 0.554056 0.006901
C38   C     C_R   0.986057 0.452988 0.469412 0.008660
C39   C     C_R   0.949491 0.510930 0.505990 -0.052824
C40   C     C_R   0.044679 0.510258 0.522553 -0.050883
C41   C     C_R   0.449481 0.010936 0.506015 -0.052856
C42   C     C_R   0.544671 0.010258 0.522571 -0.050889
C43   C     C_R   0.886362 0.448518 0.464753 0.016988
C44   C     C_R   0.103310 0.567788 0.574430 0.040127
C45   C     C_R   0.126986 0.448876 0.501421 0.004240
C46   C     C_R   0.878279 0.629716 0.575359 0.139310
C47   C     C_R   0.865382 0.569641 0.534457 0.032772
C48   C     C_R   0.386347 0.948529 0.464779 0.016823
C49   C     C_R   0.603308 0.067788 0.574439 0.040127
C50   C     C_R   0.626980 0.948875 0.501434 0.004244
C51   C     C_R   0.365372 0.069649 0.534489 0.033014
C52   C     C_R   0.830421 0.441478 0.484598 -0.156668
C53   C     C_R   0.153576 0.566996 0.573437 -0.177876
C54   C     C_R   0.165872 0.441435 0.533184 -0.141487
C55   C     C_R   0.818176 0.566310 0.524292 -0.129432
C56   C     C_R   0.330402 0.941489 0.484630 -0.156433
C57   C     C_R   0.928171 0.398007 0.412543 0.157703
C58   C     C_R   0.653575 0.066996 0.573440 -0.177885
C59   C     C_R   0.665869 0.941434 0.533188 -0.141479
C60   C     C_R   0.318163 0.066320 0.524334 -0.129829
C61   C     C_R   0.794893 0.499103 0.529412 0.069730
C62   C     C_R   0.174615 0.500509 0.578417 0.074269
C63   C     C_R   0.294877 0.999117 0.529463 0.070354
C64   C     C_R   0.674614 0.000508 0.578419 0.074274
C65   C     C_3   0.734656 0.489821 0.596539 -0.376300
C66   C     C_3   0.721846 0.514355 0.690861 -0.889077
C67   C     C_3   0.202720 0.495733 0.635908 -0.336760
C68   C     C_R   0.066546 0.626339 0.611675 0.159473
C69   C     C_3   0.172133 0.445635 0.717187 -0.860302
C70   C     C_3   0.234675 0.989861 0.596810 -0.377109
C71   C     C_3   0.222193 0.013606 0.691241 -0.889313
C72   C     C_3   0.702722 0.995733 0.635907 -0.336740
C73   C     C_3   0.672134 0.945640 0.717189 -0.860337
C74   C     C_3   0.172069 0.366898 0.363742 -0.870297
C75   C     C_3   0.836592 0.685794 0.630703 -0.848496
C76   C     C_3   0.926313 0.353814 0.338273 -0.875225
C77   C     C_3   0.071044 0.680121 0.676389 -0.871210
C78   C     C_3   0.672057 0.866898 0.363753 -0.870294
C79   C     C_R   0.622319 0.901038 0.439000 0.156181
C80   C     C_3   0.336592 0.185810 0.630717 -0.848572
C81   C     C_3   0.426301 0.853838 0.338285 -0.875270
C82   C     C_3   0.571046 0.180122 0.676398 -0.871224
C83   C     C_3   0.717994 0.110219 0.926245 -0.420152
C84   C     C_3   0.658669 0.088196 0.968215 -0.859924
C85   C     C_3   0.280420 0.866184 0.064575 -0.425668
C86   C     C_3   0.234989 0.902168 0.147465 -0.861070
C87   C     C_3   0.195165 0.264467 0.166855 -0.432122
C88   C     C_3   0.165772 0.196730 0.222267 -0.874468
C89   C     C_3   0.830284 0.622202 0.826287 -0.417171
C90   C     C_R   0.378274 0.129725 0.575383 0.139245
C91   C     C_3   0.853674 0.553944 0.846719 -0.876965
C92   C     C_3   0.217974 0.610190 0.926253 -0.420172
C93   C     C_3   0.158648 0.588168 0.968221 -0.859914
C94   C     C_3   0.780426 0.366226 0.064569 -0.425686
C95   C     C_3   0.734978 0.402229 0.147418 -0.861112
C96   C     C_3   0.695130 0.764473 0.166901 -0.432168
C97   C     C_3   0.665748 0.696718 0.222279 -0.874458
C98   C     C_3   0.330308 0.122117 0.826275 -0.417092
C99   C     C_3   0.353721 0.053868 0.846672 -0.876904
C100  C     C_3   0.599259 0.304991 0.061976 -0.401514
C101  C     C_R   0.428157 0.898020 0.412563 0.157716
C102  C     C_3   0.587447 0.229874 0.106896 -0.885471
C103  C     C_3   0.388857 0.681234 0.945606 -0.366315
C104  C     C_3   0.378089 0.613202 0.903181 -0.807950
C105  C     C_3   0.367888 0.348063 0.960173 -0.379177
C106  C     C_3   0.420901 0.321640 0.881112 -0.820077
C107  C     C_3   0.662940 0.567594 0.990748 -0.386053
C108  C     C_3   0.713704 0.529222 0.977724 -0.915872
C109  C     C_3   0.099248 0.804975 0.061980 -0.401512
C110  C     C_3   0.087424 0.729856 0.106897 -0.885493
C111  C     C_3   0.888872 0.181252 0.945598 -0.366256
C112  C     C_R   0.296628 0.728052 0.324874 0.917868
C113  C     C_R   0.566544 0.126340 0.611687 0.159470
C114  C     C_3   0.878102 0.113222 0.903172 -0.807993
C115  C     C_3   0.867829 0.848152 0.960233 -0.379127
C116  C     C_3   0.920822 0.821729 0.881126 -0.820029
C117  C     C_3   0.162984 0.067539 0.990894 -0.386382
C118  C     C_3   0.213723 0.029054 0.977805 -0.915683
C119  C     C_R   0.712870 0.248692 0.959725 0.065244
C120  C     C_R   0.273868 0.726965 0.050729 0.050557
C121  C     C_R   0.289044 0.227834 0.043313 0.017125
C122  C     C_R   0.742792 0.691204 0.932155 0.044445
C123  C     C_R   0.212855 0.748661 0.959738 0.065270
C124  C     C_R   0.773887 0.227006 0.050711 0.050517
C125  C     C_R   0.789013 0.727890 0.043333 0.017116
C126  C     C_R   0.242819 0.191109 0.932155 0.044490
C127  C     C_R   0.727927 0.176931 0.970097 0.164946
C128  C     C_R   0.299798 0.264802 0.323611 0.924682
C129  C     C_R   0.260654 0.798530 0.037101 0.182143
C130  C     C_R   0.233893 0.241521 0.072326 0.178407
C131  C     C_R   0.796332 0.668721 0.907910 0.154340
C132  C     C_R   0.227908 0.676898 0.970110 0.164964
C133  C     C_R   0.760668 0.298569 0.037086 0.182129
C134  C     C_R   0.733859 0.741560 0.072359 0.178364
C135  C     C_R   0.296357 0.168626 0.907914 0.154345
C136  C     C_R   0.756016 0.167325 0.019137 -0.252263
C137  C     C_R   0.230124 0.807934 0.992530 -0.264862
C138  C     C_R   0.212421 0.225835 0.014991 -0.234996
C139  C     C_R   0.702563 0.730041 0.676330 0.855040
C140  C     C_R   0.818852 0.689680 0.962848 -0.221243
C141  C     C_R   0.255995 0.667287 0.019152 -0.252283
C142  C     C_R   0.730135 0.307969 0.992518 -0.264738
C143  C     C_R   0.712387 0.725892 0.015019 -0.234839
C144  C     C_R   0.318880 0.189598 0.962844 -0.221326
C145  C     C_R   0.629893 0.301951 0.958967 0.143151
C146  C     C_R   0.359174 0.680290 0.048071 0.132602
C147  C     C_R   0.357467 0.315439 0.050205 0.141822
C148  C     C_R   0.670334 0.621400 0.916186 0.142745
C149  C     C_R   0.129885 0.801938 0.958971 0.143207
C150  C     C_R   0.202261 0.769976 0.675928 0.873167
C151  C     C_R   0.859186 0.180310 0.048063 0.132573
C152  C     C_R   0.857434 0.815490 0.050234 0.141799
C153  C     C_R   0.170411 0.121183 0.916168 0.142889
C154  C     C_R   0.609381 0.335909 0.905363 -0.123204
C155  C     C_R   0.384933 0.656009 0.098275 -0.124825
C156  C     C_R   0.383152 0.343900 0.099741 -0.114121
C157  C     C_R   0.631998 0.623995 0.883769 -0.133954
C158  C     C_R   0.109378 0.835904 0.905365 -0.122904
C159  C     C_R   0.884937 0.156015 0.098273 -0.124916
C160  C     C_R   0.883138 0.843921 0.099753 -0.114121
C161  C     C_R   0.796631 0.228059 0.324872 0.917845
C162  C     C_R   0.132148 0.123578 0.883602 -0.134285
C163  C     C_R   0.631181 0.319619 0.815158 -0.290545
C164  C     C_R   0.365529 0.676094 0.186506 -0.299637
C165  C     C_R   0.367076 0.320634 0.186100 -0.297494
C166  C     C_R   0.641212 0.664342 0.809544 -0.290574
C167  C     C_R   0.131182 0.819621 0.815158 -0.290645
C168  C     C_R   0.865530 0.176095 0.186507 -0.299616
C169  C     C_R   0.867074 0.820636 0.186101 -0.297491
C170  C     C_R   0.141384 0.163865 0.809311 -0.289876
C171  C     C_R   0.677942 0.280031 0.772544 -0.051932
C172  C     C_R   0.799798 0.764802 0.323612 0.924641
C173  C     C_R   0.317395 0.712070 0.230545 -0.064022
C174  C     C_R   0.325313 0.271724 0.226861 -0.066910
C175  C     C_R   0.686543 0.706419 0.767750 -0.052688
C176  C     C_R   0.177940 0.780028 0.772545 -0.051944
C177  C     C_R   0.817403 0.212088 0.230539 -0.064008
C178  C     C_R   0.825308 0.771732 0.226863 -0.066894
C179  C     C_R   0.186613 0.206167 0.767674 -0.052837
C180  C     C_R   0.703854 0.255610 0.820704 -0.258318
C181  C     C_R   0.286974 0.727275 0.186541 -0.228998
C182  C     C_R   0.303781 0.236337 0.177342 -0.242801
C183  C     C_R   0.202587 0.229961 0.676320 0.855318
C184  C     C_R   0.720255 0.716363 0.807943 -0.285861
C185  C     C_R   0.203846 0.755594 0.820710 -0.258416
C186  C     C_R   0.786991 0.227319 0.186525 -0.229025
C187  C     C_R   0.803764 0.736362 0.177350 -0.242821
C188  C     C_R   0.220265 0.216219 0.807956 -0.286226
C189  C     C_R   0.690356 0.130493 0.540625 0.895754
C190  C     C_R   0.305803 0.873019 0.475522 0.897118
C191  C     C_R   0.296067 0.130407 0.502456 0.920889
C192  C     C_R   0.694796 0.873185 0.524088 0.925444
C193  C     C_R   0.190356 0.630493 0.540625 0.895737
C194  C     C_R   0.900410 0.509348 0.502452 -0.025939
C195  C     C_R   0.805817 0.373014 0.475483 0.896883
C196  C     C_R   0.796077 0.630400 0.502432 0.921193
C197  C     C_R   0.194796 0.373184 0.524087 0.925533
C198  C     C_R   0.680381 0.265608 0.913749 0.102182
C199  C     C_R   0.307585 0.712309 0.095046 0.040114
C200  C     C_R   0.318019 0.259156 0.090075 0.046969
C201  C     C_R   0.713236 0.672917 0.881304 0.082949
C202  C     C_R   0.180370 0.765586 0.913757 0.102138
C203  C     C_R   0.807603 0.212348 0.095031 0.040105
C204  C     C_R   0.817989 0.759202 0.090097 0.046968
H1    H     H_    0.092321 0.302247 0.350341 0.166150
H2    H     H_    0.265741 0.612498 0.030559 0.154968
H3    H     H_    0.234251 0.619650 0.853337 0.199722
H4    H     H_    0.240329 0.562400 0.931708 0.197240
H5    H     H_    0.699793 0.413395 0.137164 0.250744
H6    H     H_    0.721526 0.366446 0.207045 0.257951
H7    H     H_    0.749647 0.454794 0.161066 0.251842
H8    H     H_    0.814083 0.353827 0.078481 0.213564
H9    H     H_    0.796762 0.406031 0.008093 0.203098
H10   H     H_    0.633183 0.679662 0.207029 0.251223
H11   H     H_    0.693933 0.650267 0.207066 0.259673
H12   H     H_    0.647908 0.708121 0.294980 0.237122
H13   H     H_    0.360191 0.175681 0.943372 0.166792
H14   H     H_    0.716342 0.793181 0.198153 0.218599
H15   H     H_    0.665245 0.803810 0.167188 0.200610
H16   H     H_    0.387734 0.068952 0.859044 0.252138
H17   H     H_    0.323144 0.023689 0.905859 0.262095
H18   H     H_    0.369738 0.016737 0.787693 0.257139
H19   H     H_    0.306697 0.104312 0.792858 0.226890
H20   H     H_    0.365293 0.155704 0.779472 0.217938
H21   H     H_    0.568532 0.193292 0.077415 0.261746
H22   H     H_    0.624295 0.204885 0.101771 0.280869
H23   H     H_    0.558694 0.235885 0.179633 0.249990
H24   H     H_    0.670351 0.738157 0.037117 0.150097
H25   H     H_    0.621725 0.339328 0.087161 0.207364
H26   H     H_    0.558678 0.328569 0.087750 0.234752
H27   H     H_    0.361141 0.567217 0.951730 0.254559
H28   H     H_    0.349676 0.626179 0.877494 0.231246
H29   H     H_    0.416319 0.594820 0.845080 0.238204
H30   H     H_    0.377861 0.730903 0.920555 0.187297
H31   H     H_    0.432932 0.687518 0.920794 0.199197
H32   H     H_    0.453376 0.316002 0.899691 0.264309
H33   H     H_    0.415166 0.267909 0.856447 0.230654
H34   H     H_    0.434446 0.361173 0.824756 0.232014
H35   H     H_    0.220851 0.862537 0.980582 0.149342
H36   H     H_    0.334893 0.335679 0.944390 0.191106
H37   H     H_    0.366615 0.408635 0.964010 0.208701
H38   H     H_    0.739585 0.514573 0.906123 0.277244
H39   H     H_    0.735363 0.562388 0.004999 0.286456
H40   H     H_    0.701942 0.478505 0.018041 0.236833
H41   H     H_    0.643449 0.595620 0.056894 0.210496
H42   H     H_    0.637234 0.520889 0.993179 0.243164
H43   H     H_    0.068498 0.693290 0.077417 0.261744
H44   H     H_    0.124268 0.704848 0.101765 0.280877
H45   H     H_    0.058674 0.735869 0.179635 0.249994
H46   H     H_    0.765762 0.112537 0.030547 0.154970
H47   H     H_    0.121719 0.839299 0.087170 0.207348
H48   H     H_    0.058672 0.828568 0.087753 0.234793
H49   H     H_    0.861142 0.067241 0.951726 0.254532
H50   H     H_    0.849698 0.126206 0.877468 0.231252
H51   H     H_    0.916334 0.094830 0.845082 0.238229
H52   H     H_    0.877881 0.230923 0.920542 0.187304
H53   H     H_    0.932947 0.187531 0.920791 0.199300
H54   H     H_    0.953312 0.816047 0.899663 0.264331
H55   H     H_    0.915067 0.768018 0.856442 0.230636
H56   H     H_    0.934362 0.861289 0.824796 0.232006
H57   H     H_    0.860164 0.675765 0.943372 0.166786
H58   H     H_    0.834813 0.835800 0.944490 0.191089
H59   H     H_    0.866568 0.908723 0.964098 0.208673
H60   H     H_    0.239541 0.014300 0.906219 0.277237
H61   H     H_    0.235475 0.062209 0.004920 0.286396
H62   H     H_    0.201921 0.978400 0.018239 0.236866
H63   H     H_    0.143640 0.095750 0.056922 0.210502
H64   H     H_    0.137130 0.020905 0.993686 0.242892
H65   H     H_    0.170388 0.238109 0.037077 0.150144
H66   H     H_    0.613696 0.342394 0.776119 0.186315
H67   H     H_    0.386844 0.660439 0.222557 0.185390
H68   H     H_    0.384578 0.345022 0.224656 0.187842
H69   H     H_    0.920798 0.743355 0.627010 0.150459
H70   H     H_    0.613588 0.661295 0.782068 0.185101
H71   H     H_    0.113701 0.842404 0.776116 0.186339
H72   H     H_    0.886838 0.160425 0.222564 0.185399
H73   H     H_    0.884588 0.845006 0.224649 0.187840
H74   H     H_    0.113822 0.160678 0.781725 0.185348
H75   H     H_    0.743313 0.230857 0.785349 0.157490
H76   H     H_    0.246990 0.750138 0.223436 0.171035
H77   H     H_    0.272973 0.194618 0.208981 0.176760
H78   H     H_    0.752730 0.756258 0.780893 0.170245
H79   H     H_    0.243303 0.730836 0.785357 0.157495
H80   H     H_    0.010939 0.299781 0.339994 0.156111
H81   H     H_    0.747014 0.250203 0.223411 0.171052
H82   H     H_    0.772957 0.694642 0.208986 0.176751
H83   H     H_    0.252680 0.256205 0.780983 0.170293
H84   H     H_    0.746634 0.483510 0.714000 0.264126
H85   H     H_    0.730018 0.573435 0.691646 0.255555
H86   H     H_    0.678531 0.503975 0.738484 0.257483
H87   H     H_    0.709710 0.520970 0.574165 0.222871
H88   H     H_    0.720458 0.432607 0.606372 0.240827
H89   H     H_    0.130212 0.465435 0.758668 0.253583
H90   H     H_    0.170635 0.388421 0.696822 0.260434
H91   H     H_    0.997320 0.739465 0.649086 0.154083
H92   H     H_    0.192598 0.446171 0.759038 0.240758
H93   H     H_    0.245496 0.479457 0.595905 0.226855
H94   H     H_    0.203892 0.550330 0.664031 0.198846
H95   H     H_    0.246986 0.982127 0.713825 0.264246
H96   H     H_    0.230593 0.072564 0.692555 0.255809
H97   H     H_    0.178883 0.003358 0.739005 0.257213
H98   H     H_    0.209674 0.021567 0.575041 0.222691
H99   H     H_    0.220289 0.932758 0.606149 0.241090
H100  H     H_    0.630222 0.965463 0.758693 0.253569
H101  H     H_    0.670610 0.888432 0.696829 0.260363
H102  H     H_    0.592307 0.802251 0.350355 0.166150
H103  H     H_    0.692615 0.946148 0.759016 0.240774
H104  H     H_    0.745497 0.979454 0.595903 0.226854
H105  H     H_    0.703897 0.050330 0.664025 0.198848
H106  H     H_    0.209959 0.386547 0.361384 0.228029
H107  H     H_    0.169567 0.306473 0.369310 0.264097
H108  H     H_    0.174993 0.383861 0.298879 0.218040
H109  H     H_    0.796000 0.663102 0.652978 0.234290
H110  H     H_    0.837163 0.700222 0.692889 0.191305
H111  H     H_    0.844420 0.737965 0.593201 0.268055
H112  H     H_    0.921610 0.294645 0.355043 0.254348
H113  H     H_    0.420790 0.243357 0.627048 0.150482
H114  H     H_    0.893775 0.371658 0.324071 0.226409
H115  H     H_    0.964335 0.362317 0.274415 0.223506
H116  H     H_    0.101505 0.663933 0.696405 0.227913
H117  H     H_    0.081457 0.735538 0.645996 0.252484
H118  H     H_    0.031987 0.682506 0.739566 0.221688
H119  H     H_    0.709948 0.886544 0.361394 0.228040
H120  H     H_    0.669554 0.806472 0.369316 0.264093
H121  H     H_    0.674980 0.883868 0.298894 0.218028
H122  H     H_    0.296004 0.163132 0.652952 0.234213
H123  H     H_    0.337146 0.200211 0.692927 0.191369
H124  H     H_    0.510924 0.799793 0.340007 0.156098
H125  H     H_    0.344434 0.237983 0.593215 0.268039
H126  H     H_    0.421604 0.794667 0.355040 0.254349
H127  H     H_    0.393759 0.871682 0.324092 0.226421
H128  H     H_    0.464321 0.862353 0.274427 0.223491
H129  H     H_    0.601509 0.163934 0.696408 0.227913
H130  H     H_    0.581458 0.235539 0.646005 0.252494
H131  H     H_    0.531991 0.182506 0.739578 0.221683
H132  H     H_    0.641260 0.081134 0.041899 0.261641
H133  H     H_    0.635578 0.129390 0.953212 0.271468
H134  H     H_    0.655033 0.035303 0.939126 0.245788
H135  H     H_    0.497316 0.239464 0.649113 0.154088
H136  H     H_    0.734271 0.119675 0.853327 0.199718
H137  H     H_    0.740349 0.062432 0.931704 0.197238
H138  H     H_    0.199768 0.913281 0.137294 0.250735
H139  H     H_    0.221590 0.866397 0.207091 0.257954
H140  H     H_    0.249652 0.954758 0.161068 0.251841
H141  H     H_    0.314100 0.853784 0.078431 0.213541
H142  H     H_    0.296731 0.906002 0.008114 0.203085
H143  H     H_    0.133194 0.179685 0.207048 0.251202
H144  H     H_    0.193946 0.150265 0.207057 0.259681
H145  H     H_    0.147950 0.208149 0.294961 0.237131
H146  H     H_    0.720855 0.362573 0.980580 0.149304
H147  H     H_    0.216378 0.293190 0.198095 0.218586
H148  H     H_    0.165286 0.303802 0.167119 0.200613
H149  H     H_    0.887679 0.569015 0.859113 0.252157
H150  H     H_    0.823083 0.523781 0.905911 0.262147
H151  H     H_    0.869696 0.516805 0.787749 0.257151
H152  H     H_    0.806677 0.604404 0.792859 0.226848
H153  H     H_    0.865280 0.655773 0.779489 0.217943
H154  H     H_    0.141244 0.581083 0.041901 0.261639
H155  H     H_    0.135556 0.629376 0.953242 0.271477
H156  H     H_    0.155012 0.535288 0.939108 0.245796
O1    O     O_R   0.746490 0.236330 0.638080 -0.639769
O2    O     O_R   0.325830 0.813840 0.483730 -0.609825
O3    O     O_R   0.325830 0.186160 0.483730 -0.624704
O4    O     O_R   0.674170 0.813840 0.516270 -0.616692
O5    O     O_R   0.174170 0.686160 0.516270 -0.608408
O6    O     O_R   0.825830 0.313840 0.483730 -0.609797
O7    O     O_R   0.825830 0.686160 0.483730 -0.624821
O8    O     O_R   0.174170 0.313840 0.516270 -0.616659
O9    O     O_R   0.739960 0.127620 0.525000 -0.633777
O10   O     O_R   0.260040 0.872380 0.475000 -0.636206
O11   O     O_R   0.260040 0.127620 0.475000 -0.628438
O12   O     O_R   0.253510 0.763670 0.361920 -0.631378
O13   O     O_R   0.739960 0.872380 0.525000 -0.627656
O14   O     O_R   0.239960 0.627620 0.525000 -0.633782
O15   O     O_R   0.760040 0.372380 0.475000 -0.636175
O16   O     O_R   0.760040 0.627620 0.475000 -0.628291
O17   O     O_R   0.239960 0.372380 0.525000 -0.627648
O18   O     O_R   0.680700 0.294870 0.629350 -0.651682
O19   O     O_R   0.319300 0.705130 0.370650 -0.628838
O20   O     O_R   0.319300 0.294870 0.370650 -0.625898
O21   O     O_R   0.680700 0.705130 0.629350 -0.630995
O22   O     O_R   0.180700 0.794870 0.629350 -0.651705
O23   O     O_R   0.253510 0.236330 0.361920 -0.640089
O24   O     O_R   0.819300 0.205130 0.370650 -0.628838
O25   O     O_R   0.819300 0.794870 0.370650 -0.625898
O26   O     O_R   0.180700 0.205130 0.629350 -0.631230
O27   O     O_R   0.062020 0.072840 0.007170 -0.641143
O28   O     O_R   0.937980 0.927160 0.992830 -0.614716
O29   O     O_R   0.937980 0.072840 0.992830 -0.606048
O30   O     O_R   0.062020 0.927160 0.007170 -0.656123
O31   O     O_R   0.562020 0.572840 0.007170 -0.641406
O32   O     O_R   0.437980 0.427160 0.992830 -0.614713
O33   O     O_R   0.437980 0.572840 0.992830 -0.606084
O34   O     O_R   0.746490 0.763670 0.638080 -0.654353
O35   O     O_R   0.562020 0.427160 0.007170 -0.655779
O36   O     O_R   0.947860 0.073950 0.109290 -0.614609
O37   O     O_R   0.052140 0.926050 0.890710 -0.624915
O38   O     O_R   0.052140 0.073950 0.890710 -0.623952
O39   O     O_R   0.947860 0.926050 0.109290 -0.623658
O40   O     O_R   0.447860 0.573950 0.109290 -0.614689
O41   O     O_R   0.552140 0.426050 0.890710 -0.624541
O42   O     O_R   0.552140 0.573950 0.890710 -0.623877
O43   O     O_R   0.447860 0.426050 0.109290 -0.623638
O44   O     O_R   0.246490 0.736330 0.638080 -0.639801
O45   O     O_R   0.753510 0.263670 0.361920 -0.631375
O46   O     O_R   0.753510 0.736330 0.361920 -0.640105
O47   O     O_R   0.246490 0.263670 0.638080 -0.654313
O48   O     O_R   0.674170 0.186160 0.516270 -0.608391
Zn1   Zn    Zn3+2 0.792340 0.208750 0.507670 0.929616
Zn2   Zn    Zn3+2 0.494040 0.500000 0.919480 0.909021
Zn3   Zn    Zn3+2 0.005960 0.000000 0.080520 0.906214
Zn4   Zn    Zn3+2 0.994040 0.000000 0.919480 0.908909
Zn5   Zn    Zn3+2 0.207660 0.791250 0.492330 0.926296
Zn6   Zn    Zn3+2 0.207660 0.208750 0.492330 0.926399
Zn7   Zn    Zn3+2 0.792340 0.791250 0.507670 0.911583
Zn8   Zn    Zn3+2 0.292340 0.708750 0.507670 0.929608
Zn9   Zn    Zn3+2 0.707660 0.291250 0.492330 0.926289
Zn10  Zn    Zn3+2 0.707660 0.708750 0.492330 0.926492
Zn11  Zn    Zn3+2 0.292340 0.291250 0.507670 0.911633
Zn12  Zn    Zn3+2 0.505960 0.500000 0.080520 0.906220

loop_
_geom_bond_atom_site_label_1
_geom_bond_atom_site_label_2
_ccdc_geom_bond_type
C49   C113  A    
C81   H126  S    
C190  O2    A    
C31   C42   A    
O29   Zn4   S    
O31   Zn12  S    
C83   H136  S    
C88   H143  S    
C50   C79   A    
C14   C33   A    
C19   C46   A    
C16   C31   A    
C124  C133  A    
C43   C194  A    
C50   C59   A    
C57   C76   S    
C78   H121  S    
C52   C61   A    
O19   Zn8   S    
C7    O37   A    
C24   C42   A    
C22   C25   A    
C70   H99   S    
O7    Zn7   S    
C141  H2    S    
C131  C140  A    
C11   C154  S    
C85   C129  S    
C172  O25   A    
C13   C51   A    
C44   C53   A    
C9    C156  S    
C94   H9    S    
C93   H154  S    
C99   H18   S    
C2    C45   A    
C58   C64   A    
C80   H123  S    
C136  H46   S    
C147  C200  A    
C8    C157  S    
C105  H37   S    
C158  C167  A    
C110  H45   S    
C114  H50   S    
C84   H134  S    
C163  H66   S    
C71   H97   S    
C127  C136  A    
C179  C188  A    
C91   H151  S    
O4    Zn10  S    
C187  C204  A    
C1    C171  S    
C102  H21   S    
C177  C186  A    
C120  C129  A    
C185  C202  A    
C193  O14   A    
C188  H83   S    
C36   C40   A    
C73   H100  S    
C164  C173  A    
O23   Zn6   S    
O24   Zn1   S    
C81   H128  S    
O47   Zn11  S    
C78   H119  S    
C67   H94   S    
C117  C153  S    
C6    O29   A    
O45   Zn9   S    
C161  C177  S    
C130  C138  A    
O25   Zn7   S    
C87   C130  S    
C15   C30   A    
C68   C77   S    
C109  H47   S    
C95   H6    S    
O9    Zn1   S    
C72   C73   S    
C10   O33   A    
C89   C131  S    
O26   Zn6   S    
O27   Zn3   S    
C18   C38   A    
O12   Zn5   S    
C107  C148  S    
C28   H69   S    
C48   C101  A    
C93   H156  S    
C36   C38   A    
C170  H74   S    
C71   H95   S    
C117  H64   S    
C180  C198  A    
C72   H104  S    
C89   H152  S    
C2    C40   A    
C128  O23   A    
C129  C137  A    
C99   H16   S    
C112  O19   A    
C98   C99   S    
C77   H117  S    
C69   H90   S    
C11   O41   A    
C9    O43   A    
C75   H111  S    
C110  H43   S    
C125  C204  S    
C94   H8    S    
C165  H68   S    
C123  C132  A    
C27   C29   A    
C119  C198  S    
C112  O12   A    
C121  C130  A    
C73   H101  S    
C174  C182  A    
C81   C101  S    
C85   C86   S    
C91   H149  S    
C133  C142  A    
O18   Zn9   S    
O8    Zn6   S    
C74   H106  S    
C122  C201  S    
C100  H25   S    
C92   C132  S    
C37   C40   A    
C51   C90   A    
C38   C39   A    
C43   C52   A    
C115  C116  S    
C120  C199  S    
C29   H1    S    
C166  H70   S    
C74   H107  S    
C20   C35   A    
O34   Zn7   S    
O30   Zn3   S    
C2    C44   A    
C97   H12   S    
C98   H20   S    
C107  C108  S    
C30   C41   A    
C89   C91   S    
C149  C158  A    
C55   C196  S    
C134  C143  A    
O40   Zn12  S    
C121  C144  A    
C122  C143  A    
C46   C75   S    
C139  O21   A    
C72   H105  S    
C125  C140  A    
C6    O36   A    
C197  O8    A    
C56   C190  S    
C124  C203  S    
C34   C39   A    
C9    O32   A    
C23   H113  S    
C27   H80   S    
C104  H27   S    
C96   C134  S    
O36   Zn3   S    
C165  C174  A    
C77   H116  S    
C98   C135  S    
C151  C159  A    
C137  H35   S    
O10   Zn5   S    
C183  O47   A    
C61   C65   S    
C118  H61   S    
C83   C84   S    
O42   Zn2   S    
C100  C145  S    
C85   H142  S    
C5    C160  S    
C69   H92   S    
C111  C151  S    
C19   C28   A    
C24   C50   A    
C75   H109  S    
C116  H55   S    
C7    O30   A    
C145  C154  A    
C65   H88   S    
C164  H67   S    
C192  O4    A    
C106  H34   S    
C189  O48   A    
C86   H140  S    
C73   H103  S    
C122  C131  A    
C172  C178  S    
C132  C141  A    
C1    O18   A    
C135  C144  A    
C103  H31   S    
C184  C201  A    
C82   H129  S    
C120  C141  A    
C88   H144  S    
C82   C113  S    
C83   C127  S    
C10   C155  S    
C123  C137  A    
C195  O6    A    
C128  C174  S    
C170  C179  A    
C95   H7    S    
C14   C22   A    
C145  C198  A    
C92   H3    S    
C117  C118  S    
C8    O31   A    
C55   C61   A    
C108  H39   S    
C186  C203  A    
C4    O27   A    
C148  C157  A    
C171  C180  A    
C168  H72   S    
C51   C60   A    
O38   Zn4   S    
C149  C202  A    
C181  C199  A    
C125  C134  A    
O1    Zn1   S    
C87   C88   S    
C99   H17   S    
C35   C74   S    
O13   Zn7   S    
C34   C37   A    
C53   C193  S    
C107  H42   S    
O14   Zn8   S    
C87   H148  S    
O15   Zn9   S    
C13   C41   A    
C3    C126  S    
C176  C185  A    
C76   H115  S    
C196  O16   A    
C114  H51   S    
C166  C175  A    
C54   C197  S    
O35   Zn12  S    
O43   Zn12  S    
C187  H82   S    
C168  C177  A    
O17   Zn11  S    
C102  H22   S    
C94   C133  S    
O44   Zn8   S    
C88   H145  S    
C195  O15   A    
C172  O46   A    
C146  C155  A    
C66   H85   S    
C66   H84   S    
C160  C169  A    
C86   H138  S    
C70   C71   S    
C163  C171  A    
O48   Zn9   S    
O20   Zn11  S    
C173  C181  A    
C81   H127  S    
C78   H120  S    
C67   H93   S    
C70   H98   S    
C59   C192  S    
C52   C195  S    
C161  O24   A    
C124  C136  A    
O11   Zn6   S    
C95   H5    S    
C182  C200  A    
C14   C101  A    
C54   C62   A    
C183  O26   A    
C196  O7    A    
C1    O1    A    
C121  C200  S    
C115  H58   S    
C18   C57   A    
O39   Zn3   S    
C76   H112  S    
C93   H155  S    
C161  O45   A    
C147  C156  A    
C185  H79   S    
C117  H63   S    
C106  H32   S    
C178  C187  A    
O3    Zn11  S    
C126  C135  A    
C21   C23   A    
C4    O38   A    
C4    C162  S    
C5    O39   A    
C116  H54   S    
C96   C97   S    
C110  H44   S    
C111  H52   S    
C114  H49   S    
C46   C47   A    
C82   H131  S    
C17   C68   A    
C83   H137  S    
C192  O13   A    
C21   H135  S    
C186  H81   S    
C181  H76   S    
O37   Zn4   S    
C96   H15   S    
C105  C106  S    
C197  O17   A    
C153  C162  A    
C16   C79   A    
C33   C41   A    
C100  H26   S    
C80   H122  S    
C144  H13   S    
C109  C110  S    
C193  O5    A    
C156  C165  A    
C92   C93   S    
C139  O34   A    
C111  C114  S    
C189  O9    A    
C94   C95   S    
C74   H108  S    
C191  O3    A    
C20   C36   A    
C118  H60   S    
C97   H11   S    
C108  H38   S    
C103  C104  S    
C119  C142  A    
C32   C42   A    
C152  C204  A    
C111  H53   S    
C175  C184  A    
C138  H65   S    
C150  C176  S    
C152  C160  A    
C109  H48   S    
C16   C25   A    
C47   C194  A    
C139  C175  S    
O21   Zn10  S    
C143  H24   S    
O5    Zn5   S    
C3    C188  A    
C182  H77   S    
C6    C159  S    
C25   H102  S    
C7    C158  S    
C10   O40   A    
C59   C64   A    
C62   C67   S    
C60   C63   A    
C17   C26   A    
C96   H14   S    
C104  H28   S    
C76   H114  S    
C105  C147  S    
C3    C153  A    
C159  C168  A    
C146  C199  A    
C71   H96   S    
C89   H153  S    
C118  H62   S    
C142  H146  S    
C8    O42   A    
C162  C170  A    
C115  C152  S    
C77   H118  S    
C31   C33   A    
C116  H56   S    
O16   Zn10  S    
C65   H87   S    
C15   C23   A    
C112  C173  S    
C12   C32   A    
C180  H75   S    
C150  O44   A    
C148  C201  A    
C190  O10   A    
C179  C183  S    
C20   C29   A    
C91   H150  S    
O46   Zn10  S    
C39   C194  A    
C150  O22   A    
C154  C163  A    
C82   H130  S    
C167  H71   S    
C43   C57   A    
C78   C79   S    
C12   C21   A    
C106  H33   S    
C49   C58   A    
C67   C69   S    
C109  C149  S    
C92   H4    S    
O32   Zn2   S    
C53   C62   A    
C63   C70   S    
C191  O11   A    
C98   H19   S    
C108  H40   S    
C58   C189  S    
C100  C102  S    
C56   C63   A    
C17   C37   A    
C115  H59   S    
C104  H29   S    
C45   C54   A    
C140  H57   S    
C26   H91   S    
C44   C68   A    
C169  H73   S    
O41   Zn2   S    
C169  C178  A    
C47   C55   A    
C12   C113  A    
C84   H133  S    
O22   Zn5   S    
C24   C49   A    
C48   C56   A    
C11   O35   A    
C126  C138  A    
C123  C202  S    
C107  H41   S    
C5    O28   A    
C18   C27   A    
C151  C203  A    
C19   C34   A    
C87   H147  S    
C157  C166  A    
C13   C48   A    
C155  C164  A    
C103  H30   S    
C84   H132  S    
C26   C28   A    
C80   H125  S    
C97   H10   S    
O6    Zn1   S    
C15   C90   A    
C30   C32   A    
C128  O20   A    
C60   C191  S    
O2    Zn8   S    
C22   H124  S    
C102  H23   S    
O28   Zn4   S    
C105  H36   S    
O33   Zn2   S    
C69   H89   S    
C64   C72   S    
C80   C90   S    
C75   H110  S    
C66   H86   S    
C184  H78   S    
C65   C66   S    
C85   H141  S    
C86   H139  S    
C103  C146  S    
C119  C127  A    
C167  C176  A    
C35   C45   A    
