data_mof_unit_10909.cif
_audit_creation_date              2012-10-26T18:25:38-0400
_audit_creation_method            fapswitch 2.2
_symmetry_space_group_name_H-M    P1
_symmetry_Int_Tables_number       1
_space_group_crystal_system       triclinic
_cell_length_a                    7.525657
_cell_length_b                    8.695941
_cell_length_c                    11.107829
_cell_angle_alpha                 88.05697
_cell_angle_beta                  71.654085
_cell_angle_gamma                 102.027398
_cell_volume                      670.945677816

loop_
_atom_site_label
_atom_site_type_symbol
_atom_type_description
_atom_site_fract_x
_atom_site_fract_y
_atom_site_fract_z
_atom_type_partial_charge
C1    C     C_R   0.452842 0.200556 0.507465 0.544111
C2    C     C_2   0.571364 0.965721 0.467632 -0.033969
C3    C     C_2   0.306942 0.348142 0.140570 0.273589
C4    C     C_2   0.693055 0.651860 0.859431 0.273588
C5    C     C_2   0.261622 0.956497 0.646824 0.224989
C6    C     C_2   0.738378 0.043503 0.353176 0.224988
C7    C     C_2   0.898452 0.312433 0.599322 0.487461
C8    C     C_2   0.101548 0.687566 0.400677 0.487460
C9    C     C_R   0.547158 0.799444 0.492535 0.544111
C10   C     C_R   0.422932 0.495699 0.741792 0.554813
C11   C     C_R   0.577068 0.504301 0.258208 0.554813
C12   C     C_2   0.379241 0.480019 0.879036 -0.077635
C13   C     C_2   0.620759 0.519980 0.120964 -0.077637
C14   C     C_2   0.515323 0.530675 0.933215 0.008714
C15   C     C_2   0.484676 0.469325 0.066785 0.008712
C16   C     C_2   0.428636 0.034279 0.532368 -0.033969
Cu1   Cu    Cu3+1 0.688910 0.517800 0.485820 1.082549
Cu2   Cu    Cu3+1 0.311090 0.482200 0.514180 1.082546
H1    H     H_    0.760826 0.593175 0.067780 0.171655
H2    H     H_    0.239175 0.406821 0.932219 0.171653
H3    H     H_    0.319761 0.241529 0.187687 0.121262
H4    H     H_    0.680233 0.758474 0.812315 0.121263
H5    H     H_    0.127510 0.994631 0.668417 0.121683
H6    H     H_    0.872490 0.005369 0.331583 0.121683
H7    H     H_    0.883637 0.209196 0.548051 0.059808
H8    H     H_    0.116366 0.790803 0.451948 0.059809
N1    N     N_2   0.027170 0.455360 0.535550 -0.161905
N2    N     N_2   0.972830 0.544640 0.464450 -0.161905
O1    O     O_R   0.622710 0.286400 0.490790 -0.497745
O2    O     O_2   0.852799 0.627917 0.843023 -0.444613
O3    O     O_2   0.275661 0.857411 0.721806 -0.457888
O4    O     O_2   0.724339 0.142589 0.278194 -0.457889
O5    O     O_2   0.816793 0.300635 0.714198 -0.480138
O6    O     O_2   0.183204 0.699363 0.285801 -0.480137
O7    O     O_R   0.377290 0.713600 0.509210 -0.497746
O8    O     O_R   0.303660 0.256330 0.514730 -0.562823
O9    O     O_R   0.696340 0.743670 0.485270 -0.562822
O10   O     O_R   0.600900 0.509520 0.671740 -0.484970
O11   O     O_R   0.399100 0.490480 0.328260 -0.484973
O12   O     O_R   0.281840 0.479450 0.695690 -0.448942
O13   O     O_R   0.718160 0.520550 0.304310 -0.448941
O14   O     O_2   0.147199 0.372087 0.156976 -0.444613

loop_
_geom_bond_atom_site_label_1
_geom_bond_atom_site_label_2
_ccdc_geom_bond_type
C2    C9    S    
C6    O4    D    
Cu2   O11   S    
C3    O14   D    
Cu1   O9    S    
C2    C16   D    
Cu1   O1    S    
Cu2   O7    S    
C7    H7    S    
C10   O10   A    
C6    H6    S    
C12   H2    S    
C1    O1    A    
Cu1   Cu2   S    
C7    N1    S    
C1    C16   S    
C8    O6    D    
C11   O11   A    
C11   C13   S    
C2    C6    S    
C10   C12   S    
C9    O9    A    
C12   C14   D    
C11   O13   A    
Cu1   O10   S    
C13   C15   D    
C4    C14   S    
C8    H8    S    
C8    N2    S    
Cu1   O13   S    
C3    H3    S    
C7    O5    D    
C3    C15   S    
C10   O12   A    
N1    N2    D    
C9    O7    A    
C4    H4    S    
C14   C15   S    
C13   H1    S    
Cu2   O12   S    
C5    O3    D    
Cu1   N2    S    
Cu2   O8    S    
C4    O2    D    
Cu2   N1    S    
C1    O8    A    
C5    C16   S    
C5    H5    S    
