data_mof_unit_45315.cif
_audit_creation_date              2013-03-05T15:48:39-0500
_audit_creation_method            fapswitch 2.2
_symmetry_space_group_name_H-M    P1
_symmetry_Int_Tables_number       1
_space_group_crystal_system       triclinic
_cell_length_a                    10.230584
_cell_length_b                    10.818681
_cell_length_c                    23.47447
_cell_angle_alpha                 90.874544
_cell_angle_beta                  81.202094
_cell_angle_gamma                 95.541486
_cell_volume                      2555.61745222

loop_
_atom_site_label
_atom_site_type_symbol
_atom_site_description
_atom_site_fract_x
_atom_site_fract_y
_atom_site_fract_z
_atom_type_partial_charge
O1    O     O_R   0.431060 0.692470 0.504730 -0.558110
O2    O     O_R   0.568940 0.307530 0.495270 -0.560298
O3    O     O_R   0.651120 0.659650 0.489640 -0.627956
O4    O     O_R   0.348880 0.340350 0.510360 -0.634406
C1    C     C_R   0.555790 0.732192 0.492905 0.927095
C2    C     C_R   0.444400 0.268316 0.501033 0.911145
O5    O     O_R   0.389950 0.516450 0.591390 -0.593634
O6    O     O_R   0.610050 0.483550 0.408610 -0.556098
O7    O     O_R   0.610020 0.483630 0.576300 -0.614197
O8    O     O_R   0.389980 0.516370 0.423700 -0.615421
C3    C     C_R   0.501417 0.504317 0.610449 0.922714
C4    C     C_R   0.500813 0.502472 0.389371 0.920067
Zn1   Zn    Zn3+2 0.353060 0.521920 0.510080 1.098914
Zn2   Zn    Zn3+2 0.646940 0.478080 0.489920 1.113092
C5    C     C_R   0.501825 0.439428 0.116587 0.645338
C6    C     C_R   0.566192 0.665796 0.877120 0.670224
N1    N     N_R   0.521567 0.547517 0.145986 -0.326718
N2    N     N_R   0.515576 0.562779 0.850893 -0.328236
C7    C     C_R   0.541031 0.659967 0.118939 0.646378
C8    C     C_R   0.458968 0.459543 0.881046 0.627972
C9    C     C_R   0.550425 0.666219 0.058412 -0.085434
C10   C     C_R   0.462887 0.451419 0.940514 -0.077138
C11   C     C_R   0.514393 0.556045 0.028700 -0.024405
C12   C     C_R   0.511249 0.559191 0.968931 -0.023760
C13   C     C_R   0.482447 0.442228 0.058823 -0.123186
C14   C     C_R   0.556921 0.669939 0.937550 -0.131716
C15   C     C_R   0.591991 0.777774 0.027030 -0.159664
C16   C     C_R   0.420665 0.340188 0.972245 -0.162421
C17   C     C_R   0.595650 0.779470 0.967002 0.288628
C18   C     C_R   0.432721 0.335148 0.030815 0.288515
O9    O     O_2   0.501157 0.330200 0.143713 -0.447128
O10   O     O_2   0.627205 0.762001 0.844272 -0.421119
O11   O     O_2   0.549501 0.764222 0.150935 -0.491492
O12   O     O_2   0.400928 0.365235 0.852657 -0.504025
C19   C     C_R   0.602440 0.475665 0.757618 0.245105
C20   C     C_R   0.628282 0.580744 0.232789 0.236828
C21   C     C_R   0.590994 0.454394 0.699541 0.199089
C22   C     C_R   0.621553 0.572958 0.292809 0.207493
C23   C     C_R   0.508274 0.523683 0.672224 -0.267103
C24   C     C_R   0.505364 0.515849 0.326685 -0.245887
C25   C     C_R   0.439398 0.616833 0.703481 -0.224579
C26   C     C_R   0.394828 0.472145 0.300105 -0.199212
C27   C     C_R   0.443432 0.631856 0.762654 0.304382
C28   C     C_R   0.397197 0.491572 0.241109 0.300735
C29   C     C_R   0.523748 0.560007 0.789494 0.032299
C30   C     C_R   0.515438 0.541709 0.207322 0.025153
C31   C     C_2   0.585637 0.865255 0.485504 -0.271128
C32   C     C_2   0.417562 0.143803 0.481059 -0.245953
C33   C     C_2   0.485679 0.931754 0.475903 0.199396
C34   C     C_2   0.470316 0.052173 0.505063 0.182599
N3    N     N_2   0.842710 0.448880 0.476480 -0.040046
N4    N     N_2   0.157290 0.551120 0.523520 -0.020781
C35   C     C_2   0.921560 0.507251 0.508721 0.001313
C36   C     C_2   0.062301 0.475470 0.507725 0.024428
C37   C     C_1   0.636753 0.891482 0.054768 0.472694
N5    N     N_1   0.672982 0.982289 0.076699 -0.015493
C38   C     C_1   0.363475 0.229099 0.946356 0.468467
N6    N     N_1   0.317572 0.140275 0.925983 -0.004481
N7    N     N_R   0.122406 0.636311 0.566650 0.266617
O13   O     O_R   0.156015 0.753953 0.557301 -0.289699
O14   O     O_R   0.083969 0.597621 0.619343 -0.342391
N8    N     N_R   0.897335 0.417169 0.420815 0.288500
O15   O     O_R   0.837401 0.326890 0.394617 -0.299109
O16   O     O_R   0.984975 0.494713 0.390345 -0.319035
N9    N     N_R   0.632768 0.894989 0.936782 0.243606
O17   O     O_R   0.753900 0.947056 0.932698 -0.290537
O18   O     O_R   0.542571 0.953420 0.917954 -0.273272
N10   N     N_R   0.383624 0.223418 0.062618 0.239708
O19   O     O_R   0.436623 0.120308 0.049118 -0.340286
O20   O     O_R   0.276810 0.221935 0.100727 -0.241686
N11   N     N_R   0.690469 0.408877 0.785262 0.244099
O21   O     O_R   0.765538 0.466859 0.819116 -0.320156
O22   O     O_R   0.691412 0.289225 0.779144 -0.217588
N12   N     N_R   0.749041 0.629944 0.197605 0.254773
O23   O     O_R   0.799229 0.568937 0.152610 -0.314435
O24   O     O_R   0.806665 0.737949 0.209202 -0.235614
N13   N     N_R   0.658901 0.358090 0.669188 0.249924
O25   O     O_R   0.598569 0.246619 0.669569 -0.225544
O26   O     O_R   0.786759 0.374780 0.652910 -0.305232
N14   N     N_R   0.733419 0.622455 0.318997 0.260674
O27   O     O_R   0.720565 0.711590 0.356683 -0.327565
O28   O     O_R   0.850378 0.585577 0.301901 -0.218115
C39   C     C_1   0.365553 0.699041 0.675545 0.421731
N15   N     N_1   0.306877 0.765935 0.653691 0.006808
C40   C     C_1   0.281027 0.400886 0.331784 0.399050
N16   N     N_1   0.189898 0.341883 0.356020 -0.080377
N17   N     N_R   0.363443 0.717428 0.796078 0.231952
O29   O     O_R   0.282666 0.679821 0.842146 -0.318196
O30   O     O_R   0.373759 0.833914 0.781483 -0.264782
N18   N     N_R   0.279941 0.460415 0.214813 0.236203
O31   O     O_R   0.240220 0.540681 0.182089 -0.297080
O32   O     O_R   0.216714 0.350002 0.220844 -0.258272
N19   N     N_R   0.510836 0.069335 0.560996 0.202916
O33   O     O_R   0.621024 0.136189 0.566199 -0.305795
O34   O     O_R   0.454155 0.997251 0.603274 -0.314466
N20   N     N_R   0.382839 0.877263 0.444650 0.236095
O35   O     O_R   0.258850 0.894941 0.461526 -0.295811
O36   O     O_R   0.413883 0.811515 0.398506 -0.330940
C41   C     C_1   0.379765 0.134121 0.423976 0.245892
N21   N     N_1   0.350352 0.126192 0.378282 -0.080189
C42   C     C_1   0.712698 0.921971 0.497586 0.314505
N22   N     N_1   0.814678 0.966561 0.506988 -0.049036
C43   C     C_1   0.090657 0.352428 0.488284 0.302876
N23   N     N_1   0.109400 0.252301 0.473473 -0.122158
C44   C     C_1   0.866431 0.596342 0.549751 0.395169
N24   N     N_1   0.823500 0.668616 0.582553 -0.122573

loop_
_geom_bond_atom_site_label_1
_geom_bond_atom_site_label_2
_geom_bond_distance
_ccdc_geom_bond_type
C37   N5    1.157646 T    
N19   O33   1.300301 A    
C31   C42   1.449167 S    
C15   C17   1.404254 A    
N17   O29   1.301175 A    
N18   O31   1.301271 A    
C23   C25   1.416649 A    
C16   C38   1.451466 S    
O5    C3    1.305607 A    
C1    C31   1.449925 S    
C42   N22   1.157555 T    
N12   O24   1.301280 A    
O1    C1    1.295931 A    
C19   C21   1.399760 A    
C12   C14   1.417754 A    
C40   N16   1.155084 T    
C15   C37   1.450843 S    
C5    C13   1.401259 A    
C25   C39   1.446012 S    
O4    Zn1   1.960771 S    
N8    O16   1.302377 A    
C39   N15   1.156163 T    
N4    C36   1.303476 D    
N10   O19   1.300866 A    
N9    O18   1.300912 A    
N20   O36   1.301933 A    
C11   C12   1.409349 A    
C20   C30   1.406330 A    
C8    O12   1.349440 S    
C24   C26   1.412538 A    
C9    C15   1.418538 A    
C19   N11   1.439812 S    
N7    O13   1.298916 A    
N19   O34   1.299863 A    
C10   C16   1.420594 A    
C25   C27   1.402462 A    
O2    C2    1.290844 A    
N3    N8    1.391913 S    
C26   C28   1.400117 A    
O8    C4    1.306681 A    
C28   C30   1.406955 A    
N13   O26   1.301243 A    
C6    C14   1.407503 A    
N7    O14   1.301966 A    
N12   O23   1.301218 A    
C36   C43   1.442198 S    
N1    C30   1.433642 S    
C31   C33   1.353397 D    
C7    O11   1.348692 S    
N11   O22   1.301037 A    
N13   O25   1.300114 A    
C21   N13   1.428831 S    
C5    O9    1.349824 S    
N3    C35   1.302356 D    
C4    C24   1.474007 S    
O7    Zn2   2.006067 S    
N8    O15   1.299801 A    
N4    N7    1.387937 S    
Zn1   N4    2.033856 S    
O7    C3    1.302798 A    
N18   O32   1.301253 A    
Zn2   N3    2.033855 S    
O5    Zn1   2.004302 S    
O6    C4    1.302389 A    
N20   O35   1.301300 A    
C26   C40   1.442960 S    
C3    C23   1.473344 S    
C27   C29   1.404628 A    
O3    Zn2   1.960770 S    
C2    C32   1.434748 S    
C17   N9    1.436098 S    
N14   O28   1.300926 A    
C8    C10   1.406980 A    
N9    O17   1.301038 A    
N17   O30   1.301200 A    
C10   C12   1.419518 A    
O4    C2    1.298719 A    
O1    Zn1   1.936258 S    
C20   C22   1.403478 A    
C19   C29   1.406198 A    
N2    C29   1.430939 S    
C28   N18   1.440758 S    
C13   C18   1.413637 A    
C5    N1    1.362689 A    
C32   C41   1.449993 S    
C20   N12   1.437381 S    
O6    Zn2   2.004302 S    
C7    C9    1.411565 A    
N14   O27   1.301043 A    
O3    C1    1.302345 A    
O8    Zn1   2.006070 S    
C34   N19   1.440284 S    
C35   C36   1.508979 S    
C6    O10   1.348806 S    
C44   N24   1.158309 T    
C41   N21   1.157322 T    
C27   N17   1.438789 S    
C9    C11   1.418261 A    
C16   C18   1.401402 A    
C21   C23   1.411569 A    
C22   C24   1.418136 A    
C38   N6    1.157674 T    
C22   N14   1.435703 S    
C32   C34   1.343477 D    
N1    C7    1.364160 A    
N2    C8    1.362961 A    
C11   C13   1.414637 A    
C33   N20   1.447718 S    
O2    Zn2   1.936259 S    
C35   C44   1.444042 S    
N11   O21   1.301268 A    
C14   C17   1.416773 A    
C6    N2    1.361779 A    
C33   C34   1.473056 S    
C43   N23   1.157276 T    
N10   O20   1.301036 A    
C18   N10   1.437489 S    
