data_mof_unit_16123.cif
_audit_creation_date              2012-10-26T18:32:00-0400
_audit_creation_method            fapswitch 2.2
_symmetry_space_group_name_H-M    P1
_symmetry_Int_Tables_number       1
_space_group_crystal_system       triclinic
_cell_length_a                    12.423678
_cell_length_b                    13.293494
_cell_length_c                    14.336702
_cell_angle_alpha                 93.831828
_cell_angle_beta                  108.16397
_cell_angle_gamma                 117.21213
_cell_volume                      1938.37380837

loop_
_atom_site_label
_atom_site_type_symbol
_atom_type_description
_atom_site_fract_x
_atom_site_fract_y
_atom_site_fract_z
_atom_type_partial_charge
C1    C     C_R   0.651705 0.714453 0.510670 0.571820
C2    C     C_R   0.149811 0.414141 0.000757 0.054778
C3    C     C_R   0.119567 0.456602 0.076496 0.038858
C4    C     C_R   0.618753 0.517095 0.686629 0.524057
C5    C     C_R   0.257057 0.395985 0.027831 -0.113756
C6    C     C_R   0.334391 0.419283 0.129595 -0.098104
C7    C     C_R   0.204222 0.486622 0.177949 -0.097971
C8    C     C_R   0.135912 0.963583 0.370560 -0.115508
C9    C     C_R   0.252783 0.161726 0.471482 0.011828
C10   C     C_R   0.746682 0.919860 0.595324 -0.129357
C11   C     C_R   0.848267 0.034767 0.627281 -0.134295
C12   C     C_R   0.838220 0.487149 0.919244 0.018761
C13   C     C_R   0.947264 0.069691 0.590202 -0.112763
C14   C     C_R   0.941829 0.991305 0.514287 0.005740
C15   C     C_R   0.829297 0.877553 0.473194 0.033957
C16   C     C_R   0.346734 0.285379 0.487421 0.571371
C17   C     C_R   0.044111 0.021686 0.477767 0.027109
C18   C     C_R   0.032343 0.938306 0.402300 0.009533
C19   C     C_R   0.914003 0.834176 0.353908 -0.067956
C20   C     C_R   0.810413 0.807014 0.384435 0.239346
C21   C     C_R   0.156198 0.133306 0.511365 -0.096669
C22   C     C_R   0.246737 0.074485 0.406263 -0.112267
C23   C     C_R   0.798805 0.517608 0.994953 0.031567
C24   C     C_R   0.739243 0.839152 0.521816 0.022272
C25   C     C_R   0.260509 0.688548 0.665516 0.197152
C26   C     C_R   0.657586 0.335161 0.367234 0.204932
C27   C     C_R   0.730814 0.281294 0.366121 -0.128150
C28   C     C_R   0.380478 0.481764 0.313240 0.615079
C29   C     C_R   0.861131 0.335314 0.429935 -0.108816
C30   C     C_R   0.925917 0.450794 0.486298 0.031062
C31   C     C_R   0.843939 0.493236 0.501691 0.170683
C32   C     C_R   0.067357 0.520918 0.534225 -0.018762
C33   C     C_R   0.122877 0.621770 0.612594 0.011991
C34   C     C_R   0.937835 0.456722 0.945253 0.037871
C35   C     C_R   0.039993 0.654846 0.635746 -0.138720
C36   C     C_R   0.904834 0.594044 0.580160 -0.111272
C37   C     C_R   0.156769 0.499561 0.504283 0.351877
C38   C     C_R   0.341626 0.657762 0.637590 0.040635
C39   C     C_R   0.682212 0.521661 0.793281 0.000319
C40   C     C_R   0.307395 0.463861 0.205239 0.022668
C41   C     C_R   0.704716 0.553451 0.967836 -0.099015
C42   C     C_R   0.645345 0.553121 0.867870 -0.132994
C43   C     C_R   0.780385 0.492586 0.819937 -0.121772
C44   C     C_2   0.811063 0.529701 0.177186 0.572781
C45   C     C_R   0.007820 0.470497 0.048668 0.009745
C46   C     C_2   0.531024 0.285142 0.278983 0.577637
C47   C     C_R   0.961307 0.492970 0.121031 -0.129735
C48   C     C_R   0.857000 0.514316 0.095733 0.050520
C49   C     C_R   0.969296 0.411960 0.871405 -0.115387
C50   C     C_R   0.072618 0.390133 0.899033 -0.116349
Cl1   Cl    Cl    0.653637 0.700124 0.296402 -0.617745
Cl2   Cl    Cl    0.336592 0.811786 0.767254 -0.606657
Cl3   Cl    Cl    0.100143 0.398849 0.389594 -0.615242
Cu1   Cu    Cu3+1 0.416420 0.526630 0.522910 1.019867
Cu2   Cu    Cu3+1 0.583580 0.473370 0.477090 1.011761
H1    H     H_    0.280218 0.362629 0.970328 0.130260
H2    H     H_    0.193255 0.530300 0.237336 0.159709
H3    H     H_    0.079362 0.730957 0.695694 0.186425
H4    H     H_    0.909013 0.284588 0.434698 0.177072
H5    H     H_    0.686898 0.197160 0.314509 0.147503
H6    H     H_    0.851413 0.627765 0.603117 0.171703
H7    H     H_    0.414657 0.402148 0.148835 0.190507
H8    H     H_    0.093140 0.355585 0.840230 0.104755
H9    H     H_    0.677702 0.584707 0.023169 0.182295
H10   H     H_    0.571772 0.579028 0.849337 0.144185
H11   H     H_    0.812574 0.477250 0.761824 0.126413
H12   H     H_    0.323129 0.093298 0.377890 0.174362
H13   H     H_    0.000136 0.487451 0.197835 0.179888
H14   H     H_    0.913332 0.388884 0.791161 0.104467
H15   H     H_    0.660357 0.502143 0.217391 0.377504
H16   H     H_    0.334204 0.211255 0.222912 0.323970
H17   H     H_    0.899149 0.777345 0.287702 0.174879
H18   H     H_    0.128694 0.899065 0.314843 0.131057
H19   H     H_    0.168369 0.202225 0.564791 0.122347
H20   H     H_    0.677412 0.892817 0.632137 0.140948
H21   H     H_    0.026284 0.158511 0.623162 0.104207
H22   H     H_    0.854059 0.095866 0.685177 0.127109
H23   H     H_    0.446826 0.708126 0.678860 0.154010
N1    N     N_R   0.290690 0.566960 0.557640 -0.254670
N2    N     N_R   0.709100 0.433710 0.442970 -0.254360
O1    O     O_R   0.545970 0.684450 0.528810 -0.511861
O2    O     O_R   0.678046 0.487920 0.154877 -0.667741
O3    O     O_2   0.530314 0.268419 0.193784 -0.503606
O4    O     O_R   0.412200 0.246905 0.290100 -0.691933
O5    O     O_R   0.687130 0.639470 0.490120 -0.490343
O6    O     O_R   0.519670 0.535100 0.660030 -0.518638
O7    O     O_R   0.660830 0.490120 0.621340 -0.539497
O8    O     O_R   0.312870 0.360530 0.509880 -0.465442
O9    O     O_R   0.454030 0.315550 0.471190 -0.463470
O10   O     O_R   0.339170 0.509880 0.378660 -0.443528
O11   O     O_R   0.480330 0.464900 0.339970 -0.450923
O12   O     O_2   0.889476 0.574208 0.265207 -0.527874

loop_
_geom_bond_atom_site_label_1
_geom_bond_atom_site_label_2
_ccdc_geom_bond_type
C30   C32   A    
C27   C29   A    
C41   C42   A    
C5    H1    S    
C19   C20   A    
C31   N2    A    
C4    O7    A    
C37   N1    A    
C12   C23   A    
C26   C27   A    
C35   H3    S    
C9    C16   S    
Cu1   O10   S    
C12   C43   A    
C44   O2    S    
C27   H5    S    
C5    C6    A    
C9    C22   A    
C4    O6    A    
C38   N1    A    
C28   C40   S    
C1    O1    A    
C18   C19   A    
Cu2   O11   S    
C11   H22   S    
C29   H4    S    
C42   H10   S    
C8    C22   A    
C7    C40   A    
C4    C39   S    
C2    C50   A    
C44   O12   D    
C37   Cl3   S    
C16   O9    A    
C49   H14   S    
C13   C14   A    
C50   H8    S    
C14   C17   A    
C19   H17   S    
C39   C42   A    
C45   C47   A    
C1    O5    A    
C15   C20   A    
Cu1   O6    S    
C26   C46   S    
C39   C43   A    
C38   H23   S    
C10   C24   A    
C21   H19   S    
C3    C45   A    
C26   N2    A    
C35   C36   A    
Cu2   O5    S    
C29   C30   A    
C25   C38   A    
C10   H20   S    
C47   C48   A    
C13   H21   S    
C17   C18   A    
C34   C45   A    
C32   C37   A    
C46   O4    S    
C15   C24   A    
C6    C40   A    
C2    C5    A    
C12   C34   A    
C36   H6    S    
C47   H13   S    
H16   O4    S    
Cu1   Cu2   S    
C34   C49   A    
C23   C48   A    
C14   C15   A    
C20   Cl1   S    
C3    C7    A    
C23   C41   A    
C32   C33   A    
C6    H7    S    
C2    C3    A    
C25   Cl2   S    
Cu2   O9    S    
Cu1   O8    S    
Cu2   N2    S    
C11   C13   A    
C9    C21   A    
C30   C31   A    
C43   H11   S    
C8    H18   S    
C33   C35   A    
C28   O11   A    
Cu2   O7    S    
H15   O2    S    
C8    C18   A    
C22   H12   S    
C10   C11   A    
Cu1   N1    S    
C46   O3    D    
C1    C24   S    
C49   C50   A    
C16   O8    A    
C31   C36   A    
C28   O10   A    
C41   H9    S    
C7    H2    S    
Cu1   O1    S    
C44   C48   S    
C25   C33   A    
C17   C21   A    
