data_mof_unit_59727.cif
_audit_creation_date              2013-03-05T16:33:41-0500
_audit_creation_method            fapswitch 2.2
_symmetry_space_group_name_H-M    P1
_symmetry_Int_Tables_number       1
_space_group_crystal_system       triclinic
_cell_length_a                    9.090948
_cell_length_b                    10.843647
_cell_length_c                    9.580968
_cell_angle_alpha                 90.704162
_cell_angle_beta                  90.788079
_cell_angle_gamma                 90.376021
_cell_volume                      944.300475021

loop_
_atom_site_label
_atom_site_type_symbol
_atom_site_description
_atom_site_fract_x
_atom_site_fract_y
_atom_site_fract_z
_atom_type_partial_charge
O1    O     O_R   0.500000 0.319640 0.618810 -0.582460
O2    O     O_R   0.500020 0.319680 0.381230 -0.551964
C1    C     C_R   0.497603 0.262533 0.499073 0.820196
O3    O     O_R   0.288380 0.499980 0.618770 -0.611600
O4    O     O_R   0.288400 0.500020 0.381190 -0.518267
C2    C     C_R   0.220751 0.499885 0.499352 0.854023
Cu1   Cu    Cu3+1 0.499990 0.499980 0.640670 0.971031
Cu2   Cu    Cu3+1 0.500010 0.500020 0.359330 1.024134
O5    O     O_R   0.499980 0.680320 0.618770 -0.584275
O6    O     O_R   0.500000 0.680360 0.381190 -0.580398
O7    O     O_R   0.711600 0.499980 0.618810 -0.557594
O8    O     O_R   0.711620 0.500020 0.381230 -0.575988
C3    C     C_R   0.496167 0.737730 0.500545 0.776826
C4    C     C_R   0.779245 0.500175 0.500592 0.828231
C5    C     C_1   0.065515 0.499915 0.498963 -0.141383
C6    C     C_1   0.934462 0.500055 0.500693 -0.136264
C7    C     C_R   0.450937 0.066163 0.617625 0.085645
C8    C     C_R   0.482689 0.129636 0.496172 -0.098218
C9    C     C_R   0.492186 0.062726 0.370254 -0.150998
H1    H     H_    0.508536 0.108898 0.272008 0.192743
C10   C     C_R   0.491897 0.934157 0.371787 -0.170583
H2    H     H_    0.508563 0.885034 0.274246 0.194873
C11   C     C_R   0.480599 0.871065 0.499095 -0.155759
C12   C     C_R   0.445716 0.939080 0.619326 0.076077
C13   C     C_3   0.506531 0.937855 0.765725 0.170331
C14   C     C_3   0.515889 0.077950 0.760815 -0.486737
H3    H     H_    0.615391 0.892861 0.775207 0.069309
H4    H     H_    0.442130 0.127476 0.833854 0.241952
H5    H     H_    0.631007 0.113276 0.760210 0.175454
C15   C     C_R   0.625209 0.526134 0.075640 0.157924
N1    N     N_R   0.500920 0.500930 0.147930 -0.242106
C16   C     C_R   0.381620 0.456764 0.070289 0.408413
C17   C     C_R   0.381729 0.459272 0.922227 -0.132241
H6    H     H_    0.286543 0.425476 0.864426 0.182943
N2    N     N_R   0.500930 0.500890 0.852020 -0.236896
C18   C     C_R   0.626242 0.523598 0.928954 0.258353
C19   C     C_3   0.721301 0.635674 0.924969 0.246859
C20   C     C_3   0.716159 0.640625 0.083942 -0.481118
H7    H     H_    0.666114 0.712237 0.869953 0.115100
H8    H     H_    0.824441 0.624915 0.135905 0.236429
H9    H     H_    0.654302 0.720893 0.125209 0.193257
N3    N     N_R   0.397612 0.895233 0.865998 0.143370
O9    O     O_R   0.267213 0.944088 0.870041 -0.369746
O10   O     O_R   0.433557 0.813429 0.958167 -0.425394
N4    N     N_R   0.256540 0.403225 0.135284 0.136581
O11   O     O_R   0.125621 0.442772 0.103431 -0.361835
O12   O     O_R   0.269569 0.297439 0.196498 -0.346622
O13   O     O_3   0.862533 0.604417 0.877920 -0.541950
C21   C     C_3   0.935327 0.710719 0.830259 0.035361
H10   H     H_    0.920155 0.792036 0.901020 0.157770
H11   H     H_    0.893569 0.733108 0.723874 0.133043
C22   C     C_3   0.098678 0.683876 0.823075 -0.583614
H12   H     H_    0.114373 0.588596 0.784154 0.249607
H13   H     H_    0.152993 0.748722 0.751091 0.220147
H14   H     H_    0.149921 0.692079 0.928706 0.268026

loop_
_geom_bond_atom_site_label_1
_geom_bond_atom_site_label_2
_geom_bond_distance
_ccdc_geom_bond_type
C13   N3    1.465642 S    
O4    Cu2   1.937964 S    
C20   H8    1.112067 S    
C11   C12   1.401320 A    
C19   C20   1.524768 S    
C13   H3    1.109345 S    
C16   N4    1.427414 S    
C14   H4    1.111818 S    
C9    H1    1.083173 S    
C22   H14   1.110607 S    
C15   C18   1.405488 A    
Cu2   O8    1.932274 S    
C21   C22   1.517464 S    
C16   C17   1.419187 A    
C21   H11   1.112940 S    
N4    O12   1.300096 A    
C7    C8    1.391907 A    
C2    C5    1.411192 S    
C20   H9    1.110953 S    
Cu1   Cu2   2.695516 S    
C19   H7    1.108050 S    
N4    O11   1.301342 A    
C22   H12   1.104904 S    
C19   O13   1.408700 S    
Cu1   O7    1.937965 S    
C15   C20   1.487818 S    
C15   N1    1.361324 A    
N3    O10   1.299447 A    
C1    C8    1.446462 S    
O3    Cu1   1.932273 S    
O13   C21   1.409404 S    
C7    C14   1.489807 S    
Cu2   O6    1.964167 S    
C18   C19   1.487787 S    
C17   N2    1.360703 A    
C22   H13   1.109347 S    
C10   H2    1.082952 S    
C17   H6    1.080486 S    
O2    C1    1.294965 A    
C10   C11   1.410455 A    
O4    C2    1.295792 A    
O7    C4    1.296245 A    
C4    C6    1.411070 S    
C7    C12   1.378853 A    
N3    O9    1.302483 A    
C5    C6    1.191751 T    
C12   C13   1.500828 S    
C3    C11   1.453880 S    
C14   H5    1.112186 S    
O3    C2    1.291378 A    
C21   H10   1.116081 S    
Cu1   O5    1.969332 S    
O5    C3    1.299350 A    
C8    C9    1.404099 A    
C9    C10   1.394397 A    
C13   C14   1.522298 S    
O1    Cu1   1.964167 S    
Cu2   N1    2.025693 S    
Cu1   N2    2.024742 S    
O6    C3    1.296077 A    
O2    Cu2   1.969329 S    
N1    C16   1.386069 A    
O8    C4    1.290885 A    
O1    C1    1.296796 A    
N2    C18   1.367664 A    
