data_mof_unit_57530.cif
_audit_creation_date              2012-12-10T17:46:21-0500
_audit_creation_method            fapswitch 2.2
_symmetry_space_group_name_H-M    P1
_symmetry_Int_Tables_number       1
_space_group_crystal_system       triclinic
_cell_length_a                    14.150418
_cell_length_b                    10.643879
_cell_length_c                    9.928858
_cell_angle_alpha                 89.916966
_cell_angle_beta                  89.960634
_cell_angle_gamma                 91.588851
_cell_volume                      1494.86137601

loop_
_atom_site_label
_atom_site_type_symbol
_atom_type_description
_atom_site_fract_x
_atom_site_fract_y
_atom_site_fract_z
_atom_type_partial_charge
C1    C     C_R   0.502436 0.260675 0.500124 0.845106
C2    C     C_R   0.439192 0.061995 0.429532 -0.214994
C3    C     C_R   0.439380 0.933610 0.429247 -0.198814
C4    C     C_R   0.329292 0.499676 0.500071 0.875769
C5    C     C_R   0.509459 0.872035 0.499408 -0.102118
C6    C     C_R   0.376703 0.334540 0.140181 -0.147173
C7    C     C_R   0.316397 0.252551 0.070257 -0.195865
C8    C     C_R   0.316422 0.252491 0.930903 -0.186369
C9    C     C_R   0.376779 0.334392 0.860551 -0.143091
C10   C     C_R   0.439429 0.418333 0.927916 0.165252
C11   C     C_R   0.439416 0.418399 0.072427 0.169300
C12   C     C_1   0.772192 0.500022 0.499973 -0.213288
C13   C     C_R   0.558023 0.578140 0.071243 -0.108478
C14   C     C_R   0.557999 0.578118 0.928251 -0.109026
C15   C     C_R   0.502853 0.739480 0.499881 0.865533
C16   C     C_R   0.670713 0.500338 0.499946 0.864903
C17   C     C_1   0.227796 0.499369 0.500172 -0.210409
C18   C     C_1   0.142526 0.499216 0.500230 -0.012972
C19   C     C_1   0.042615 0.499228 0.500252 0.003826
C20   C     C_1   0.957349 0.499388 0.500214 0.003182
C21   C     C_1   0.857448 0.499706 0.500098 -0.013111
C22   C     C_R   0.658562 0.136620 0.630374 -0.173155
C23   C     C_R   0.731366 0.073636 0.693715 -0.131968
C24   C     C_R   0.731503 0.942943 0.693458 -0.138913
C25   C     C_R   0.658859 0.874740 0.629805 -0.189293
C26   C     C_R   0.583656 0.937109 0.566726 0.096610
C27   C     C_R   0.583482 0.068891 0.567025 0.098845
C28   C     C_R   0.509096 0.128613 0.499967 -0.089160
H1    H     H_    0.383207 0.109654 0.377227 0.138574
H2    H     H_    0.371709 0.329407 0.246935 0.194382
H3    H     H_    0.269112 0.188916 0.124756 0.146421
H4    H     H_    0.371902 0.329137 0.753785 0.199312
H5    H     H_    0.269133 0.188826 0.876749 0.150171
H6    H     H_    0.605339 0.642080 0.874465 0.144923
H7    H     H_    0.662774 0.238127 0.629889 0.152054
H8    H     H_    0.788403 0.126456 0.741831 0.139587
H9    H     H_    0.788635 0.894237 0.741385 0.137410
H10   H     H_    0.663282 0.773520 0.628797 0.140704
H11   H     H_    0.383511 0.881858 0.376809 0.154248
H12   H     H_    0.605397 0.642090 0.124655 0.148688
N1    N     N_R   0.499190 0.498800 0.142780 -0.115182
N2    N     N_R   0.499160 0.498720 0.857170 -0.114655
O1    O     O_R   0.500000 0.316780 0.614690 -0.634825
O2    O     O_R   0.499990 0.316750 0.385360 -0.622355
O3    O     O_R   0.373720 0.500010 0.614690 -0.608940
O4    O     O_R   0.373710 0.499990 0.385360 -0.613897
O5    O     O_R   0.500010 0.683250 0.614640 -0.608503
O6    O     O_R   0.500000 0.683220 0.385310 -0.605825
O7    O     O_R   0.626290 0.500010 0.614640 -0.608584
O8    O     O_R   0.626280 0.499990 0.385310 -0.587318
Zn1   Zn    Zn3+2 0.500010 0.500020 0.653130 0.927227
Zn2   Zn    Zn3+2 0.499990 0.499980 0.346870 0.936257

loop_
_geom_bond_atom_site_label_1
_geom_bond_atom_site_label_2
_ccdc_geom_bond_type
C14   H6    S    
C1    C28   S    
O8    Zn2   S    
C23   C24   A    
C24   C25   A    
C6    C7    A    
C25   H10   S    
C10   N2    A    
C9    C10   A    
C1    O2    A    
C19   C20   T    
C15   O5    A    
N2    Zn1   S    
C14   N2    A    
O2    Zn2   S    
C13   N1    A    
C24   H9    S    
C8    C9    A    
C3    H11   S    
C7    C8    A    
C4    O4    A    
C13   C14   A    
C20   C21   S    
C22   H7    S    
O1    Zn1   S    
C26   C27   A    
C15   O6    A    
C2    H1    S    
C4    C17   S    
C6    H2    S    
C16   O8    A    
C11   N1    A    
C2    C3    A    
C22   C27   A    
C6    C11   A    
C5    C15   S    
C7    H3    S    
C10   C11   A    
O3    Zn1   S    
C4    O3    A    
C5    C26   A    
O4    Zn2   S    
O6    Zn2   S    
C16   O7    A    
C17   C18   T    
C23   H8    S    
C27   C28   A    
C22   C23   A    
C18   C19   S    
C13   H12   S    
C2    C28   A    
N1    Zn2   S    
C9    H4    S    
C3    C5    A    
C25   C26   A    
C12   C21   T    
C1    O1    A    
O5    Zn1   S    
C12   C16   S    
C8    H5    S    
O7    Zn1   S    
