data_mof_unit_39499.cif
_audit_creation_date              2012-12-10T18:45:07-0500
_audit_creation_method            fapswitch 2.2
_symmetry_space_group_name_H-M    P1
_symmetry_Int_Tables_number       1
_space_group_crystal_system       triclinic
_cell_length_a                    11.032539
_cell_length_b                    10.239015
_cell_length_c                    10.909854
_cell_angle_alpha                 91.50822
_cell_angle_beta                  96.725937
_cell_angle_gamma                 90.389067
_cell_volume                      1223.43630809

loop_
_atom_site_label
_atom_site_type_symbol
_atom_type_description
_atom_site_fract_x
_atom_site_fract_y
_atom_site_fract_z
_atom_type_partial_charge
C1    C     C_R   0.260255 0.499109 0.498896 0.855880
C2    C     C_R   0.739146 0.500776 0.503678 0.914509
C3    C     C_R   0.943780 0.605386 0.552025 -0.199317
C4    C     C_R   0.069410 0.604648 0.548866 -0.095445
C5    C     C_R   0.587941 0.072492 0.572662 0.004634
C6    C     C_R   0.421155 0.064166 0.415939 0.074768
C7    C     C_R   0.582165 0.931262 0.578761 -0.047041
C8    C     C_R   0.408453 0.925683 0.436401 -0.071050
C9    C     C_R   0.510874 0.498051 0.261341 0.903970
C10   C     C_R   0.492130 0.501390 0.738988 0.911806
C11   C     C_R   0.600055 0.725456 0.124079 0.021248
C12   C     C_R   0.435376 0.735978 0.906178 0.038254
C13   C     C_R   0.562593 0.843857 0.075539 -0.267902
C14   C     C_R   0.476531 0.849235 0.972241 -0.215192
C15   C     C_R   0.490540 0.617835 0.944505 0.005554
C16   C     C_R   0.545294 0.611565 0.067119 -0.026106
C17   C     C_R   0.534188 0.494250 0.129033 -0.102806
C18   C     C_R   0.478470 0.502667 0.873175 -0.154031
C19   C     C_R   0.525583 0.376758 0.057252 -0.057294
C20   C     C_R   0.471230 0.384603 0.934341 -0.095891
C21   C     C_R   0.052778 0.390325 0.447275 -0.208142
C22   C     C_R   0.925614 0.394380 0.443662 -0.162613
C23   C     C_R   0.871608 0.500220 0.500831 -0.030944
C24   C     C_R   0.126250 0.496555 0.499400 -0.097875
H1    H     H_    0.588379 0.930677 0.127157 0.169935
H2    H     H_    0.437285 0.941102 0.950063 0.190641
H3    H     H_    0.903025 0.689019 0.593336 0.181387
H4    H     H_    0.122155 0.689195 0.585364 0.191547
N1    N     N_R   0.500000 0.857200 0.500000 -0.152416
N2    N     N_R   0.500000 0.142810 0.500000 -0.130944
O1    O     O_R   0.316770 0.614620 0.499990 -0.587089
O2    O     O_R   0.683230 0.614620 0.500010 -0.563354
O3    O     O_R   0.316800 0.385290 0.500000 -0.629353
O4    O     O_R   0.683200 0.385290 0.500000 -0.619665
O5    O     O_R   0.500010 0.614690 0.316770 -0.582874
O6    O     O_R   0.499990 0.614690 0.683230 -0.589956
O7    O     O_R   0.500040 0.385360 0.316770 -0.637451
O8    O     O_R   0.499960 0.385360 0.683230 -0.637672
Zn1   Zn    Zn3+2 0.500000 0.653120 0.500000 1.034167
Zn2   Zn    Zn3+2 0.500000 0.346880 0.500000 0.983634
C25   C     C_R   0.641344 0.304099 0.064227 0.182695
C26   C     C_R   0.649489 0.176969 0.107067 -0.103699
C27   C     C_R   0.758918 0.107441 0.105545 -0.050097
C28   C     C_R   0.861042 0.166409 0.066060 -0.003797
C29   C     C_R   0.856011 0.296227 0.031728 -0.147028
C30   C     C_R   0.746450 0.364254 0.028265 -0.103333
H5    H     H_    0.571254 0.135307 0.142670 0.132494
H6    H     H_    0.768788 0.009969 0.139986 0.169241
H7    H     H_    0.945399 0.112948 0.066544 0.163456
H8    H     H_    0.936571 0.343511 0.004993 0.127265
H9    H     H_    0.743690 0.464063 0.997788 0.136948
C31   C     C_R   0.397874 0.277436 0.868548 0.168109
C32   C     C_R   0.448447 0.155915 0.845425 -0.191819
C33   C     C_R   0.389879 0.071056 0.755003 -0.082355
C34   C     C_R   0.282101 0.106610 0.686048 -0.024459
C35   C     C_R   0.231370 0.226947 0.708565 -0.115723
C36   C     C_R   0.285116 0.309456 0.802719 -0.180945
H10   H     H_    0.536046 0.128713 0.890850 0.161095
H11   H     H_    0.428664 0.977386 0.737164 0.159064
H12   H     H_    0.238647 0.041333 0.614842 0.189653
H13   H     H_    0.153032 0.258884 0.649958 0.165404
H14   H     H_    0.243364 0.402627 0.818068 0.174955
C37   C     C_2   0.701330 0.723250 0.226510 0.926257
O9    O     O_2   0.767008 0.627714 0.238940 -0.639205
O10   O     O_R   0.723750 0.831672 0.306856 -0.807668
H15   H     H_    0.796128 0.818687 0.371534 0.349700
C38   C     C_2   0.316943 0.737984 0.823631 0.875988
O11   O     O_2   0.271850 0.637168 0.775975 -0.687075
O12   O     O_R   0.250609 0.853095 0.809063 -0.869445
H16   H     H_    0.169332 0.840745 0.756110 0.335707
C39   C     C_2   0.101080 0.284198 0.375634 0.869119
O13   O     O_2   0.153230 0.192887 0.427656 -0.597298
O14   O     O_R   0.068632 0.277027 0.248507 -0.794757
H17   H     H_    0.034480 0.362365 0.215197 0.295962
C40   C     C_2   0.846862 0.302490 0.360066 1.006255
O15   O     O_2   0.765325 0.349064 0.291085 -0.570485
O16   O     O_R   0.861947 0.167071 0.355960 -0.768660
H18   H     H_    0.931712 0.134107 0.414308 0.331483
C41   C     C_R   0.705542 0.134752 0.627030 0.185556
C42   C     C_R   0.711851 0.234652 0.716916 -0.021160
C43   C     C_R   0.820790 0.300609 0.753784 -0.182308
C44   C     C_R   0.929661 0.245694 0.728771 -0.126666
C45   C     C_R   0.928011 0.131774 0.655344 -0.169796
C46   C     C_R   0.816578 0.080090 0.600256 -0.140422
H19   H     H_    0.637379 0.255383 0.766502 0.152247
H20   H     H_    0.821567 0.390016 0.808334 0.126658
H21   H     H_    0.013352 0.290417 0.771065 0.127517
H22   H     H_    0.011951 0.085114 0.637617 0.154354
H23   H     H_    0.817029 0.995445 0.538718 0.151907
C47   C     C_R   0.367439 0.102438 0.284805 0.107329
C48   C     C_R   0.321672 0.224778 0.250184 0.044336
C49   C     C_R   0.266213 0.249559 0.130963 -0.138933
C50   C     C_R   0.232517 0.145800 0.049953 -0.064193
C51   C     C_R   0.273006 0.022325 0.080864 -0.114858
C52   C     C_R   0.350781 0.004930 0.189414 -0.240967
H24   H     H_    0.317782 0.300999 0.314949 0.178583
H25   H     H_    0.235359 0.347005 0.107758 0.128584
H26   H     H_    0.174931 0.160639 0.964335 0.137496
H27   H     H_    0.246477 0.939993 0.019942 0.194627
H28   H     H_    0.390866 0.910406 0.201613 0.192151
C53   C     C_2   0.652744 0.870700 0.687839 0.878358
O17   O     O_2   0.697979 0.763513 0.680210 -0.612088
O18   O     O_R   0.669953 0.939847 0.800964 -0.857930
H29   H     H_    0.721030 0.890621 0.867655 0.346201
C54   C     C_2   0.291276 0.857733 0.391811 0.954648
O19   O     O_2   0.195698 0.900811 0.421793 -0.636170
O20   O     O_R   0.288541 0.751311 0.308487 -0.787830
H30   H     H_    0.202669 0.717478 0.281671 0.330258

loop_
_geom_bond_atom_site_label_1
_geom_bond_atom_site_label_2
_ccdc_geom_bond_type
C28   H7    S    
C15   C18   A    
C34   C35   A    
C37   O10   S    
C50   C51   A    
C7    N1    A    
O14   H17   S    
C3    C23   A    
C19   C20   A    
C27   C28   A    
C8    C54   S    
C43   C44   A    
C1    O3    A    
C47   C52   A    
O16   H18   S    
C31   C32   A    
C54   O20   S    
C19   C25   S    
C53   O17   D    
C21   C39   S    
O4    Zn2   S    
C8    N1    A    
C51   H27   S    
O7    Zn2   S    
C11   C37   S    
C41   C46   A    
C4    C24   A    
C44   H21   S    
C1    O1    A    
C35   C36   A    
C2    O2    A    
C25   C26   A    
O2    Zn1   S    
C48   H24   S    
C16   C17   A    
C25   C30   A    
C13   C14   A    
C5    C41   S    
C27   H6    S    
C43   H20   S    
C2    O4    A    
C45   H22   S    
C53   O18   S    
C21   C22   A    
C13   H1    S    
O12   H16   S    
C22   C40   S    
C4    H4    S    
C49   H25   S    
C33   H11   S    
C12   C38   S    
O3    Zn2   S    
C38   O11   D    
C36   H14   S    
C48   C49   A    
C39   O14   S    
C52   H28   S    
C6    C8    A    
C32   C33   A    
C30   H9    S    
C41   C42   A    
C38   O12   S    
O5    Zn1   S    
C40   O15   D    
C42   H19   S    
C11   C16   A    
C45   C46   A    
C12   C15   A    
O20   H30   S    
N1    Zn1   S    
C9    O7    A    
N2    Zn2   S    
C14   H2    S    
C40   O16   S    
C9    C17   S    
C6    N2    A    
C12   C14   A    
O10   H15   S    
C7    C53   S    
C46   H23   S    
C3    C4    A    
C2    C23   S    
C28   C29   A    
C5    C7    A    
C5    N2    A    
C33   C34   A    
C22   C23   A    
O6    Zn1   S    
C42   C43   A    
C32   H10   S    
C54   O19   D    
C10   O8    A    
C3    H3    S    
C39   O13   D    
C20   C31   S    
C6    C47   S    
O8    Zn2   S    
C11   C13   A    
C47   C48   A    
C29   H8    S    
C10   C18   S    
C49   C50   A    
C17   C19   A    
O1    Zn1   S    
C18   C20   A    
C26   H5    S    
C51   C52   A    
C31   C36   A    
C37   O9    D    
C29   C30   A    
C1    C24   S    
C44   C45   A    
C26   C27   A    
C21   C24   A    
O18   H29   S    
C9    O5    A    
C35   H13   S    
C10   O6    A    
C34   H12   S    
C50   H26   S    
C15   C16   A    
