data_mof_unit_12241.cif
_audit_creation_date              2012-12-10T19:08:06-0500
_audit_creation_method            fapswitch 2.2
_symmetry_space_group_name_H-M    P1
_symmetry_Int_Tables_number       1
_space_group_crystal_system       triclinic
_cell_length_a                    9.061831
_cell_length_b                    10.855289
_cell_length_c                    9.572762
_cell_angle_alpha                 89.463671
_cell_angle_beta                  89.623495
_cell_angle_gamma                 91.1375
_cell_volume                      941.412737301

loop_
_atom_site_label
_atom_site_type_symbol
_atom_type_description
_atom_site_fract_x
_atom_site_fract_y
_atom_site_fract_z
_atom_type_partial_charge
C1    C     C_R   0.497945 0.262350 0.500501 0.816793
C2    C     C_R   0.518218 0.937616 0.371949 -0.221795
C3    C     C_R   0.500369 0.870604 0.497206 -0.088006
C4    C     C_R   0.465823 0.933784 0.618394 0.027006
C5    C     C_3   0.533648 0.931120 0.759930 0.849879
C6    C     C_3   0.499323 0.069003 0.768076 0.159324
C7    C     C_R   0.598842 0.572033 0.072139 0.140257
C8    C     C_R   0.395081 0.436786 0.076513 0.521332
C9    C     C_R   0.391460 0.439142 0.926763 0.392112
C10   C     C_R   0.599207 0.571442 0.924930 0.261647
C11   C     C_3   0.762681 0.561472 0.918439 -0.499047
C12   C     C_R   0.220780 0.499912 0.500222 0.860601
C13   C     C_3   0.762967 0.563205 0.076522 -0.482483
C14   C     C_R   0.503653 0.737486 0.499252 0.811420
C15   C     C_R   0.779218 0.500183 0.499740 0.832408
C16   C     C_1   0.065585 0.500090 0.500204 -0.187024
C17   C     C_1   0.934394 0.500171 0.499564 -0.190979
C18   C     C_R   0.451766 0.059718 0.618902 0.002514
C19   C     C_R   0.489609 0.128827 0.499284 -0.109249
C20   C     C_R   0.515732 0.066049 0.373574 -0.202060
Cu1   Cu    Cu3+1 0.499990 0.499980 0.640670 1.013856
Cu2   Cu    Cu3+1 0.500010 0.500020 0.359330 0.994127
H1    H     H_    0.539710 0.115912 0.277382 0.156888
H2    H     H_    0.816566 0.643656 0.869663 0.214854
H3    H     H_    0.800538 0.475131 0.123173 0.221979
H4    H     H_    0.816167 0.647670 0.119666 0.200675
H5    H     H_    0.540456 0.891725 0.274243 0.167655
H6    H     H_    0.594409 0.133873 0.783707 0.060626
H7    H     H_    0.797786 0.472381 0.874682 0.201449
N1    N     N_R   0.500920 0.500930 0.147930 -0.250602
N2    N     N_R   0.500930 0.500890 0.852020 -0.251758
O1    O     O_R   0.500000 0.319640 0.618810 -0.552201
O2    O     O_R   0.500020 0.319680 0.381230 -0.554647
O3    O     O_R   0.288380 0.499980 0.618770 -0.562790
O4    O     O_R   0.288400 0.500020 0.381190 -0.516616
O5    O     O_R   0.499980 0.680320 0.618770 -0.531366
O6    O     O_R   0.500000 0.680360 0.381190 -0.597581
O7    O     O_R   0.711600 0.499980 0.618810 -0.590893
O8    O     O_R   0.711620 0.500020 0.381230 -0.584879
F1    F     F_    0.455658 0.853359 0.850917 -0.691461
O9    O     O_3   0.686285 0.906368 0.749305 -0.623100
C21   C     C_3   0.754661 0.915541 0.880980 0.041401
H8    H     H_    0.713351 0.840989 0.952375 0.187268
H9    H     H_    0.736036 0.006430 0.929631 0.104823
C22   C     C_3   0.920758 0.903796 0.862285 -0.768356
H10   H     H_    0.966429 0.985620 0.805062 0.253559
H11   H     H_    0.974130 0.897722 0.966103 0.200694
H12   H     H_    0.946738 0.820156 0.801874 0.252833
O10   O     O_3   0.373551 0.092172 0.851248 -0.529508
C23   C     C_3   0.406651 0.087635 0.995267 0.172919
H13   H     H_    0.417274 0.182947 0.034251 0.182739
H14   H     H_    0.510476 0.039886 0.021028 0.083032
C24   C     C_3   0.280690 0.020836 0.072776 -0.715379
H15   H     H_    0.285875 0.040423 0.186060 0.208686
H16   H     H_    0.172578 0.050979 0.033201 0.241049
H17   H     H_    0.287962 0.919883 0.057655 0.262101
F2    F     F_    0.296797 0.365510 0.149495 -0.670349
O11   O     O_3   0.289119 0.367214 0.855644 -0.520473
C25   C     C_3   0.141918 0.399199 0.889525 0.161323
H18   H     H_    0.089531 0.437646 0.794808 0.151153
H19   H     H_    0.130810 0.470406 0.972042 0.129188
C26   C     C_3   0.053899 0.283930 0.932689 -0.760018
H20   H     H_    0.091230 0.250446 0.035900 0.281443
H21   H     H_    0.934935 0.304537 0.941502 0.170283
H22   H     H_    0.068024 0.210639 0.853820 0.260726

loop_
_geom_bond_atom_site_label_1
_geom_bond_atom_site_label_2
_ccdc_geom_bond_type
C7    C10   A    
C23   H14   S    
C15   O7    A    
C24   H15   S    
C26   H20   S    
C8    F2    S    
C11   C13   S    
O9    C21   S    
C19   C20   A    
C20   H1    S    
C4    C18   A    
O10   C23   S    
C24   H16   S    
C23   H13   S    
C2    C20   A    
C8    N1    A    
C25   H18   S    
Cu1   O5    S    
Cu2   N1    S    
Cu1   Cu2   S    
C12   O4    A    
C14   O6    A    
Cu2   O4    S    
Cu1   N2    S    
C15   O8    A    
C2    H5    S    
C3    C14   S    
C21   H9    S    
Cu2   O8    S    
C2    C3    A    
C1    O2    A    
C22   H11   S    
C6    O10   S    
C14   O5    A    
C5    C6    S    
C6    C18   S    
Cu1   O1    S    
C13   H4    S    
C25   H19   S    
C23   C24   S    
C1    C19   S    
C10   C11   S    
C9    N2    A    
C12   O3    A    
C3    C4    A    
C22   H10   S    
C11   H2    S    
C7    C13   S    
C11   H7    S    
C7    N1    A    
C9    O11   S    
C21   H8    S    
C24   H17   S    
C15   C17   S    
Cu2   O2    S    
C5    O9    S    
C18   C19   A    
C25   C26   S    
C26   H21   S    
Cu1   O3    S    
C22   H12   S    
C26   H22   S    
O11   C25   S    
C5    F1    S    
Cu2   O6    S    
C4    C5    S    
C10   N2    A    
C1    O1    A    
C6    H6    S    
Cu1   O7    S    
C12   C16   S    
C16   C17   T    
C8    C9    A    
C13   H3    S    
C21   C22   S    
