data_mof_unit_34165.cif
_audit_creation_date              2012-12-11T14:51:45-0500
_audit_creation_method            fapswitch 2.2
_symmetry_space_group_name_H-M    P1
_symmetry_Int_Tables_number       1
_space_group_crystal_system       triclinic
_cell_length_a                    6.932129
_cell_length_b                    16.693989
_cell_length_c                    16.879599
_cell_angle_alpha                 101.220796
_cell_angle_beta                  91.443273
_cell_angle_gamma                 89.49001
_cell_volume                      1915.42601967

loop_
_atom_site_label
_atom_site_type_symbol
_atom_type_description
_atom_site_fract_x
_atom_site_fract_y
_atom_site_fract_z
_atom_type_partial_charge
O1    O     O_R   0.506340 0.439070 0.579550 -0.536107
O2    O     O_R   0.170010 0.404890 0.412100 -0.516185
O3    O     O_R   0.005010 0.560930 0.420450 -0.542861
C1    C     C_R   0.339267 0.380783 0.383987 0.752550
O4    O     O_R   0.176280 0.429360 0.578400 -0.534355
O5    O     O_R   0.011320 0.585570 0.587940 -0.546548
C2    C     C_R   0.348411 0.415109 0.606390 0.736727
O6    O     O_R   0.500030 0.414430 0.412060 -0.547323
O7    O     O_3   0.340950 0.551220 0.502940 -0.370705
V1    V     V_3+5 0.064020 0.490500 0.499460 1.499647
O8    O     O_R   0.681910 0.595110 0.587900 -0.543516
C3    C     C_R   0.852174 0.618418 0.616748 0.669627
O9    O     O_R   0.675640 0.570640 0.421600 -0.528797
C4    C     C_R   0.841713 0.586902 0.395084 0.691482
V2    V     V_3+5 0.564670 0.509500 0.500540 1.475599
O10   O     O_3   0.837610 0.448780 0.497060 -0.354518
C5    C     C_R   0.930325 0.865896 0.172069 -0.118950
C6    C     C_R   0.841418 0.639947 0.333646 -0.097398
C7    C     C_R   0.687760 0.682847 0.217519 -0.061143
C8    C     C_R   0.698950 0.629842 0.272163 -0.092502
C9    C     C_R   0.974399 0.703925 0.338953 -0.123212
C10   C     C_R   0.969086 0.757446 0.282754 -0.029898
C11   C     C_R   0.819493 0.747200 0.222707 0.101075
C12   C     C_R   0.802920 0.800544 0.167899 -0.234607
C13   C     C_R   0.076338 0.879174 0.234057 -0.015028
C14   C     C_R   0.105093 0.821681 0.285885 0.434808
H1    H     H_    0.691892 0.790334 0.120635 0.127977
H2    H     H_    0.573851 0.674014 0.171530 0.100802
H3    H     H_    0.593784 0.581384 0.267135 0.107802
H4    H     H_    0.073498 0.713434 0.390127 0.197963
C15   C     C_3   0.706689 0.778149 0.771655 -0.116890
C16   C     C_3   0.793797 0.775989 0.687638 -0.125577
H5    H     H_    0.719505 0.796652 0.636094 0.134377
H6    H     H_    0.560387 0.801122 0.789881 0.115034
C17   C     C_3   0.867799 0.688788 0.687382 -0.004960
C18   C     C_3   0.780905 0.690233 0.770638 -0.154500
C19   C     C_3   0.973019 0.724787 0.811855 -0.148305
C20   C     C_3   0.060131 0.722631 0.727847 -0.108612
C21   C     C_3   0.985953 0.810645 0.728956 -0.132429
C22   C     C_3   0.898846 0.811895 0.812159 -0.014614
H7    H     H_    0.695634 0.641152 0.788524 0.108077
H8    H     H_    0.047246 0.704062 0.863378 0.101534
H9    H     H_    0.206388 0.699586 0.709627 0.112766
H10   H     H_    0.071028 0.860680 0.712337 0.118292
C23   C     C_3   0.554794 0.275366 0.282314 -0.139664
C24   C     C_3   0.479488 0.186893 0.275460 -0.173545
H11   H     H_    0.559258 0.136154 0.295532 0.172048
H12   H     H_    0.698413 0.297172 0.307887 0.167412
C25   C     C_3   0.408685 0.187932 0.188413 -0.086422
C26   C     C_3   0.483622 0.275459 0.194502 -0.128312
C27   C     C_3   0.285571 0.309973 0.226685 -0.225817
C28   C     C_3   0.209735 0.221648 0.219774 -0.171664
C29   C     C_3   0.282765 0.222136 0.306843 0.500072
C30   C     C_3   0.356313 0.309574 0.313928 -0.123767
H13   H     H_    0.568221 0.297357 0.148012 0.109444
H14   H     H_    0.204639 0.360440 0.206634 0.122098
H15   H     H_    0.066102 0.199578 0.194455 0.150355
C31   C     C_R   0.394188 0.136457 0.831544 -0.064212
C32   C     C_R   0.373596 0.365947 0.670954 -0.089264
C33   C     C_R   0.556515 0.334659 0.787442 -0.176902
C34   C     C_R   0.515817 0.387495 0.733696 0.165147
C35   C     C_R   0.269253 0.293239 0.666588 -0.228496
C36   C     C_R   0.310331 0.240809 0.721147 0.133967
C37   C     C_R   0.457366 0.261077 0.781161 0.112793
C38   C     C_R   0.500618 0.208268 0.835178 -0.222870
C39   C     C_R   0.247571 0.117050 0.771756 -0.156246
C40   C     C_R   0.207466 0.168086 0.716643 -0.127626
H16   H     H_    0.611190 0.224630 0.881988 0.112835
H17   H     H_    0.162510 0.062249 0.768068 0.121238
H18   H     H_    0.666722 0.350960 0.834438 0.116500
H19   H     H_    0.093945 0.151237 0.671292 0.146683
H20   H     H_    0.160468 0.276224 0.619138 0.179543
O11   O     O_R   0.266070 0.085680 0.087850 -0.541178
O12   O     O_R   0.590090 0.070660 0.921580 -0.538851
O13   O     O_R   0.754780 0.914400 0.912080 -0.540151
C41   C     C_R   0.418155 0.085787 0.894367 0.697886
O14   O     O_R   0.596110 0.095130 0.087880 -0.537171
O15   O     O_R   0.760850 0.939050 0.079570 -0.533626
C42   C     C_R   0.426890 0.118245 0.116975 0.711353
O16   O     O_R   0.260010 0.061030 0.920360 -0.539360
O17   O     O_3   0.425070 0.948840 0.997010 -0.370007
V3    V     V_3+5 0.702100 0.009490 0.000550 1.419137
O18   O     O_R   0.090200 0.929250 0.078500 -0.542092
C43   C     C_R   0.924857 0.914899 0.106625 0.732464
O19   O     O_R   0.084180 0.904770 0.912200 -0.543493
C44   C     C_R   0.914027 0.881818 0.883094 0.678955
V4    V     V_3+5 0.201420 0.990350 0.999580 1.405578
O20   O     O_3   0.928580 0.051150 0.002990 -0.367816
S1    S     S_3+6 0.146014 0.183742 0.379666 -0.040061
O21   O     O_2   0.276470 0.135024 0.424985 -0.328291
O22   O     O_2   0.058049 0.252921 0.438192 -0.343290
O23   O     O_3   0.968688 0.123669 0.331886 -0.540004
H21   H     H_    0.906968 0.100562 0.374699 0.372909
C45   C     C_3   0.194023 0.956907 0.247099 -0.529838
H22   H     H_    0.219237 0.981184 0.312489 0.278147
H23   H     H_    0.333189 0.945425 0.215674 0.212902
H24   H     H_    0.117104 0.006483 0.223970 0.187866
C46   C     C_3   0.623296 0.467247 0.745772 -0.780637
H25   H     H_    0.699713 0.480930 0.805478 0.190134
H26   H     H_    0.733001 0.464879 0.698615 0.220473
H27   H     H_    0.519958 0.517899 0.743136 0.180774
S2    S     S_3+6 0.312741 0.828895 0.352587 -0.033361
O24   O     O_2   0.253909 0.870971 0.435471 -0.323364
O25   O     O_2   0.388629 0.745181 0.356730 -0.361946
O26   O     O_3   0.494252 0.881275 0.322494 -0.511703
H28   H     H_    0.602048 0.877986 0.361406 0.375738

loop_
_geom_bond_atom_site_label_1
_geom_bond_atom_site_label_2
_ccdc_geom_bond_type
O18   V4    S    
V4    O20   S    
C6    C9    A    
C4    C6    S    
O2    C1    A    
C7    C8    A    
C12   H1    S    
C1    O6    A    
O17   V3    S    
C31   C41   S    
O19   C44   A    
C24   C25   S    
C35   C36   A    
O12   C41   A    
C23   C26   S    
C18   C19   S    
C19   C22   S    
O5    C3    A    
C20   C21   S    
S2    O25   D    
C39   H17   S    
V2    O10   S    
C15   C22   S    
S2    O26   S    
C27   H14   S    
C16   C21   S    
C22   C44   S    
C19   H8    S    
O11   V4    S    
O13   C44   A    
O8    V2    S    
C31   C39   A    
C34   C46   S    
C11   C12   A    
O1    V2    S    
S1    O22   D    
O7    V1    S    
C40   H19   S    
C25   C28   S    
O14   C42   A    
C39   C40   A    
C13   C45   S    
O9    C4    A    
C18   H7    S    
S2    O24   D    
O12   V3    S    
C2    C32   S    
C8    H3    S    
O19   V4    S    
C36   C40   A    
C32   C34   A    
C5    C12   A    
C27   C28   S    
C16   C17   S    
C17   C20   S    
C21   C22   S    
O4    C2    A    
C45   H24   S    
C13   C14   A    
C23   C24   S    
C25   C42   S    
C33   C34   A    
S1    O23   S    
C17   C18   S    
C7    C11   A    
C19   C20   S    
O15   V3    S    
C31   C38   A    
O18   C43   A    
C33   H18   S    
C38   H16   S    
C26   C27   S    
O11   C42   A    
C15   H6    S    
C35   H20   S    
C3    C17   S    
C45   H23   S    
C7    H2    S    
O17   V4    S    
O3    C4    A    
C23   C30   S    
C25   C26   S    
O6    V2    S    
C46   H26   S    
O9    V2    S    
C29   S1    S    
O2    V1    S    
C28   C29   S    
O26   H28   S    
C23   H12   S    
C24   H11   S    
C32   C35   A    
C1    C30   S    
O1    C2    A    
C15   C16   S    
C41   O16   A    
O5    V1    S    
O8    C3    A    
O13   V3    S    
C29   C30   S    
C21   H10   S    
O16   V4    S    
C46   H27   S    
C9    H4    S    
C26   H13   S    
C33   C37   A    
C5    C43   S    
C5    C13   A    
C37   C38   A    
C27   C30   S    
O7    V2    S    
O4    V1    S    
O3    V1    S    
V1    O10   S    
C16   H5    S    
C10   C11   A    
O14   V3    S    
V3    O20   S    
C24   C29   S    
O23   H21   S    
C6    C8    A    
C45   H22   S    
C28   H15   S    
C36   C37   A    
O15   C43   A    
C20   H9    S    
C46   H25   S    
C10   C14   A    
C15   C18   S    
S1    O21   D    
C9    C10   A    
C14   S2    S    
