data_mof_unit_33996.cif
_audit_creation_date              2012-12-10T16:51:44-0500
_audit_creation_method            fapswitch 2.2
_symmetry_space_group_name_H-M    P1
_symmetry_Int_Tables_number       1
_space_group_crystal_system       triclinic
_cell_length_a                    15.055945
_cell_length_b                    15.836686
_cell_length_c                    9.888815
_cell_angle_alpha                 91.075878
_cell_angle_beta                  89.715759
_cell_angle_gamma                 89.994493
_cell_volume                      2357.40746971

loop_
_atom_site_label
_atom_site_type_symbol
_atom_type_description
_atom_site_fract_x
_atom_site_fract_y
_atom_site_fract_z
_atom_type_partial_charge
C1    C     C_R   0.380440 0.884991 0.498940 0.870053
C2    C     C_R   0.379505 0.113972 0.500716 0.864547
C3    C     C_R   0.880440 0.384991 0.498940 0.870052
C4    C     C_R   0.879505 0.613972 0.500716 0.864550
C5    C     C_R   0.616129 0.117827 0.500415 0.866687
C6    C     C_R   0.616282 0.882346 0.498962 0.878665
C7    C     C_R   0.116130 0.617826 0.500415 0.866693
C8    C     C_R   0.116282 0.382346 0.498962 0.878660
C9    C     C_2   0.678304 0.750833 0.407067 0.486277
C10   C     C_2   0.688549 0.238681 0.398276 0.503132
C11   C     C_2   0.178305 0.250834 0.407065 0.486277
C12   C     C_2   0.188544 0.738685 0.398286 0.503136
C13   C     C_2   0.682563 0.816056 0.496433 -0.466139
C14   C     C_2   0.682958 0.183636 0.500082 -0.475608
C15   C     C_2   0.182562 0.316055 0.496433 -0.466139
C16   C     C_2   0.182961 0.683633 0.500082 -0.475610
C17   C     C_2   0.247215 0.183622 0.402399 0.198726
C18   C     C_2   0.267317 0.792975 0.386227 0.184120
C19   C     C_2   0.747214 0.683622 0.402399 0.198726
C20   C     C_2   0.767322 0.292972 0.386224 0.184117
C21   C     C_2   0.306158 0.174136 0.504454 -0.439538
C22   C     C_2   0.304127 0.828283 0.498366 -0.462914
C23   C     C_2   0.806157 0.674135 0.504454 -0.439540
C24   C     C_2   0.804127 0.328283 0.498364 -0.462911
C25   C     C_2   0.428600 0.994809 0.925249 0.411974
C26   C     C_2   0.928600 0.494808 0.925249 0.411978
C27   C     C_2   0.429625 0.005385 0.077274 0.056831
C28   C     C_2   0.929625 0.505385 0.077274 0.056830
Cu1   Cu    Cu3+1 0.500020 1.000000 0.638630 0.929278
Cu2   Cu    Cu3+1 0.000020 0.500000 0.638630 0.929279
Cu3   Cu    Cu3+1 0.499980 0.000000 0.361370 0.974040
Cu4   Cu    Cu3+1 0.999980 0.500000 0.361370 0.974041
H1    H     H_    0.735840 0.823800 0.568485 0.095166
H2    H     H_    0.730477 0.184027 0.582279 0.112171
H3    H     H_    0.235838 0.323799 0.568490 0.095168
H4    H     H_    0.230489 0.684016 0.582267 0.112168
H5    H     H_    0.298697 0.208426 0.599436 0.128060
H6    H     H_    0.273762 0.817857 0.596282 0.126678
H7    H     H_    0.798695 0.708424 0.599437 0.128061
H8    H     H_    0.773758 0.317861 0.596279 0.126675
H9    H     H_    0.366615 0.018051 0.126250 0.080407
H10   H     H_    0.866615 0.518050 0.126250 0.080408
N1    N     N_2   0.498660 0.000000 0.846910 -0.092062
N2    N     N_2   0.998660 0.500000 0.846910 -0.092064
N3    N     N_2   0.498630 0.000000 0.153040 0.003199
N4    N     N_2   0.998630 0.500000 0.153040 0.003200
O1    O     O_R   0.410990 0.910970 0.617040 -0.579374
O2    O     O_R   0.410990 0.089030 0.617040 -0.612923
O3    O     O_R   0.910990 0.410970 0.617040 -0.579373
O4    O     O_R   0.910990 0.589030 0.617040 -0.612923
O5    O     O_R   0.410950 0.910970 0.382900 -0.575509
O6    O     O_R   0.410950 0.089030 0.382900 -0.579995
O7    O     O_R   0.910950 0.410970 0.382900 -0.575511
O8    O     O_R   0.910950 0.589030 0.382900 -0.579991
O9    O     O_R   0.589050 0.089030 0.617100 -0.608555
O10   O     O_R   0.589050 0.910970 0.617100 -0.589226
O11   O     O_R   0.089050 0.589030 0.617100 -0.608553
O12   O     O_R   0.089050 0.410970 0.617100 -0.589227
O13   O     O_R   0.589010 0.089030 0.382960 -0.552518
O14   O     O_R   0.589010 0.910970 0.382960 -0.551324
O15   O     O_R   0.089010 0.589030 0.382960 -0.552525
O16   O     O_R   0.089010 0.410970 0.382960 -0.551321
O17   O     O_3   0.604928 0.743459 0.322823 -0.577066
C29   C     C_3   0.628572 0.764459 0.189028 -0.215807
H11   H     H_    0.647010 0.706895 0.129818 0.168211
H12   H     H_    0.682797 0.812241 0.183103 0.140167
H13   H     H_    0.569431 0.791455 0.139421 0.208172
O18   O     O_3   0.627647 0.235231 0.293152 -0.544202
C30   C     C_3   0.586042 0.314563 0.281914 -0.317890
H14   H     H_    0.632269 0.362046 0.239604 0.163140
H15   H     H_    0.558439 0.337412 0.380750 0.140231
H16   H     H_    0.529654 0.307832 0.210754 0.180565
O19   O     O_3   0.104932 0.243461 0.322816 -0.577066
C31   C     C_3   0.128580 0.264463 0.189023 -0.215810
H17   H     H_    0.147022 0.206899 0.129814 0.168209
H18   H     H_    0.182804 0.312247 0.183103 0.140165
H19   H     H_    0.069440 0.291457 0.139412 0.208174
O20   O     O_3   0.127629 0.735248 0.293179 -0.544197
C32   C     C_3   0.086014 0.814580 0.281997 -0.317902
H20   H     H_    0.132237 0.862078 0.239718 0.163133
H21   H     H_    0.058410 0.837399 0.380849 0.140237
H22   H     H_    0.029625 0.807863 0.210835 0.180569
N5    N     N_2   0.246569 0.128069 0.287520 -0.410017
H23   H     H_    0.301248 0.130994 0.225081 0.254444
C33   C     C_3   0.208660 0.045336 0.308024 -0.660676
H24   H     H_    0.204017 0.011041 0.209401 0.198852
H25   H     H_    0.140702 0.051364 0.351430 0.239032
H26   H     H_    0.250620 0.008129 0.376945 0.215056
N6    N     N_2   0.301419 0.804201 0.253103 -0.402520
H27   H     H_    0.309756 0.865400 0.222237 0.260773
C34   C     C_3   0.370347 0.745172 0.213035 -0.604450
H28   H     H_    0.390645 0.756232 0.106852 0.201254
H29   H     H_    0.345390 0.679353 0.219973 0.212106
H30   H     H_    0.429147 0.753102 0.279222 0.267631
N7    N     N_2   0.746570 0.628070 0.287517 -0.410020
H31   H     H_    0.801249 0.630996 0.225080 0.254447
C35   C     C_3   0.708660 0.545337 0.308018 -0.660674
H32   H     H_    0.704017 0.511043 0.209393 0.198848
H33   H     H_    0.640702 0.551364 0.351424 0.239035
H34   H     H_    0.750621 0.508128 0.376936 0.215058
N8    N     N_2   0.801430 0.304195 0.253103 -0.402530
H35   H     H_    0.809765 0.365394 0.222232 0.260770
C36   C     C_3   0.870362 0.245168 0.213043 -0.604428
H36   H     H_    0.890663 0.256227 0.106862 0.201255
H37   H     H_    0.845406 0.179349 0.219982 0.212106
H38   H     H_    0.929158 0.253101 0.279237 0.267637
N9    N     N_2   0.343347 0.981444 0.866616 -0.463371
H39   H     H_    0.330805 0.002443 0.771092 0.292215
C37   C     C_3   0.291860 0.909825 0.911023 -0.734324
H40   H     H_    0.272780 0.869911 0.822595 0.235501
H41   H     H_    0.230622 0.932692 0.962758 0.226416
H42   H     H_    0.330031 0.869911 0.980969 0.232674
N10   N     N_2   0.843347 0.481442 0.866615 -0.463367
H43   H     H_    0.830804 0.502442 0.771092 0.292214
C38   C     C_3   0.791858 0.409825 0.911025 -0.734339
H44   H     H_    0.772776 0.369912 0.822597 0.235503
H45   H     H_    0.730621 0.432695 0.962759 0.226407
H46   H     H_    0.830029 0.369911 0.980970 0.232676
N11   N     N_2   0.570335 0.045775 0.894007 -0.306618
H47   H     H_    0.565061 0.109398 0.875320 0.244192
C39   C     C_3   0.656371 0.009904 0.854843 -0.473947
H48   H     H_    0.710391 0.046345 0.904684 0.137894
H49   H     H_    0.672448 0.011975 0.747266 0.225229
H50   H     H_    0.659776 0.942245 0.881856 0.220177
N12   N     N_2   0.070334 0.545775 0.894007 -0.306617
H51   H     H_    0.065061 0.609398 0.875319 0.244194
C40   C     C_3   0.156371 0.509905 0.854843 -0.473946
H52   H     H_    0.210391 0.546346 0.904685 0.137894
H53   H     H_    0.172448 0.511975 0.747267 0.225227
H54   H     H_    0.159776 0.442245 0.881856 0.220176
O21   O     O_3   0.568897 0.956603 0.102549 -0.498256
C41   C     C_3   0.647735 0.998421 0.146484 -0.034227
H55   H     H_    0.705703 0.968935 0.095167 0.061974
H56   H     H_    0.666136 0.990800 0.251533 0.162000
H57   H     H_    0.646128 0.067187 0.125427 0.171148
O22   O     O_3   0.068897 0.456604 0.102549 -0.498254
C42   C     C_3   0.147735 0.498423 0.146485 -0.034233
H58   H     H_    0.205703 0.468938 0.095167 0.061974
H59   H     H_    0.166136 0.490800 0.251533 0.161998
H60   H     H_    0.146127 0.567189 0.125430 0.171138

loop_
_geom_bond_atom_site_label_1
_geom_bond_atom_site_label_2
_ccdc_geom_bond_type
N8    H35   S    
O19   C31   S    
N7    H31   S    
Cu3   O6    S    
C25   N1    D    
C35   H32   S    
C3    O3    A    
C26   N2    D    
C33   H24   S    
C42   H59   S    
C28   N4    D    
C31   H18   S    
Cu1   O1    S    
Cu4   O15   S    
C37   H41   S    
Cu3   O13   S    
C38   H44   S    
C22   H6    S    
Cu2   O11   S    
C15   H3    S    
C30   H15   S    
C9    C13   D    
C7    O15   A    
C39   H50   S    
C8    O12   A    
O18   C30   S    
C11   C15   D    
C9    C19   S    
C12   C16   D    
C10   C20   S    
C41   H55   S    
C38   H45   S    
C31   H19   S    
C12   O20   S    
N9    H39   S    
N6    C34   S    
C27   N3    D    
C33   H25   S    
Cu2   O4    S    
C1    C22   S    
N8    C36   S    
C9    O17   S    
Cu1   N1    S    
N9    C37   S    
Cu2   N2    S    
C3    C24   S    
Cu4   O8    S    
C35   H33   S    
N11   C39   S    
C42   H60   S    
N2    N12   S    
N1    N11   S    
C31   H17   S    
C5    O13   A    
Cu1   O2    S    
C29   H13   S    
C6    O14   A    
C10   C14   D    
C37   H42   S    
C6    O10   A    
C34   H28   S    
C32   H21   S    
C4    C23   S    
O20   C32   S    
C1    O1    A    
C20   N8    S    
Cu1   O9    S    
C2    O2    A    
C17   C21   D    
C32   H20   S    
C4    O4    A    
C17   N5    S    
C29   H12   S    
Cu3   O14   S    
C30   H16   S    
C19   C23   D    
C40   H53   S    
C13   H1    S    
C34   H29   S    
C27   H9    S    
N5    H23   S    
C38   H46   S    
C2    C21   S    
C5    C14   S    
C36   H37   S    
C1    O5    A    
C39   H48   S    
C2    O6    A    
C7    C16   S    
N5    C33   S    
Cu2   O3    S    
N3    O21   S    
C8    C15   S    
C11   O19   S    
N12   H51   S    
C40   H52   S    
Cu4   O7    S    
C35   H34   S    
C19   N7    S    
C25   N9    S    
N10   H43   S    
C33   H26   S    
C11   C17   S    
C4    O8    A    
C18   C22   D    
C18   N6    S    
Cu4   N4    S    
C5    O9    A    
Cu3   O5    S    
O22   C42   S    
C14   H2    S    
C32   H22   S    
N11   H47   S    
N7    C35   S    
Cu1   O10   S    
C10   O18   S    
C25   C27   S    
C42   H58   S    
C26   C28   S    
C29   H11   S    
C40   H54   S    
Cu4   O16   S    
Cu1   Cu3   S    
C37   H40   S    
C16   H4    S    
C6    C13   S    
Cu2   Cu4   S    
C3    O7    A    
N10   C38   S    
C41   H57   S    
C23   H7    S    
Cu2   O12   S    
C28   H10   S    
C24   H8    S    
C7    O11   A    
C36   H38   S    
C30   H14   S    
C39   H49   S    
N4    O22   S    
O17   C29   S    
C21   H5    S    
C41   H56   S    
Cu3   N3    S    
C12   C18   S    
C36   H36   S    
N12   C40   S    
C26   N10   S    
N6    H27   S    
C20   C24   D    
O21   C41   S    
C8    O16   A    
C34   H30   S    
