data_mof_unit_22973.cif
_audit_creation_date              2012-12-10T18:31:58-0500
_audit_creation_method            fapswitch 2.2
_symmetry_space_group_name_H-M    P1
_symmetry_Int_Tables_number       1
_space_group_crystal_system       triclinic
_cell_length_a                    10.644344
_cell_length_b                    14.957003
_cell_length_c                    15.435541
_cell_angle_alpha                 82.421017
_cell_angle_beta                  89.410802
_cell_angle_gamma                 104.256354
_cell_volume                      2358.6257942

loop_
_atom_site_label
_atom_site_type_symbol
_atom_type_description
_atom_site_fract_x
_atom_site_fract_y
_atom_site_fract_z
_atom_type_partial_charge
Br1   Br    Br    0.814320 0.047253 0.684914 -0.526713
Br2   Br    Br    0.242031 0.957432 0.276205 -0.486801
Br3   Br    Br    0.161646 0.570498 0.312180 -0.549869
C1    C     C_R   0.478041 0.441798 0.662301 0.873734
C2    C     C_R   0.403368 0.441924 0.899822 0.093672
C3    C     C_R   0.382848 0.346122 0.932575 0.159157
C4    C     C_R   0.742020 0.500243 0.500125 0.851268
C5    C     C_R   0.400856 0.507516 0.957633 0.069564
C6    C     C_R   0.403592 0.479057 0.048150 0.079035
C7    C     C_R   0.375096 0.382551 0.079580 -0.208819
C8    C     C_R   0.362266 0.316997 0.022196 -0.204530
C9    C     C_R   0.398724 0.600739 0.928163 -0.219368
C10   C     C_R   0.414263 0.666435 0.985627 -0.201338
C11   C     C_R   0.438971 0.642451 0.073458 0.116634
C12   C     C_3   0.121221 0.498681 0.499574 0.069275
C13   C     C_R   0.436507 0.548213 0.104079 0.099582
C14   C     C_R   0.468138 0.710026 0.131467 0.007614
C15   C     C_R   0.497947 0.683796 0.217676 -0.170327
C16   C     C_R   0.515718 0.558087 0.337714 0.908722
C17   C     C_R   0.475349 0.526101 0.188335 -0.232947
C18   C     C_R   0.701108 0.845076 0.631262 -0.251768
C19   C     C_R   0.664165 0.754449 0.612473 -0.001959
C20   C     C_R   0.516313 0.794203 0.509624 -0.036670
C21   C     C_R   0.551020 0.888210 0.524217 -0.022205
C22   C     C_R   0.645338 0.913127 0.587253 0.099497
C23   C     C_3   0.099765 0.578483 0.430030 0.109740
C24   C     C_R   0.494991 0.957210 0.478899 0.029648
C25   C     C_R   0.527409 0.048882 0.501110 0.040451
C26   C     C_R   0.624946 0.071550 0.561836 -0.253116
C27   C     C_R   0.682915 0.005473 0.604228 0.265648
C28   C     C_R   0.257911 0.499339 0.499978 0.891540
C29   C     C_R   0.409712 0.937553 0.410960 -0.245970
C30   C     C_R   0.352118 0.003351 0.367421 0.265158
C31   C     C_R   0.376009 0.093938 0.392080 0.046854
C32   C     C_R   0.463479 0.115815 0.460753 -0.025796
C33   C     C_R   0.317693 0.164382 0.351940 -0.092121
C34   C     C_3   0.077607 0.514326 0.591563 -0.488557
C35   C     C_R   0.345661 0.250820 0.381179 -0.046736
C36   C     C_R   0.483156 0.204607 0.487739 -0.038395
C37   C     C_3   0.896292 0.404535 0.478226 -0.367544
C38   C     C_3   0.038408 0.403282 0.479768 -0.363405
C39   C     C_3   0.955106 0.578093 0.430922 -0.432298
C40   C     C_3   0.933231 0.516087 0.592701 -0.149098
C41   C     C_3   0.878571 0.499399 0.501250 0.059047
C42   C     C_1   0.466943 0.806169 0.104968 0.192144
C43   C     C_1   0.230966 0.154722 0.280612 0.231411
C44   C     C_1   0.858712 0.447296 0.664260 0.167644
C45   C     C_R   0.446304 0.406609 0.754821 -0.061324
C46   C     C_R   0.501906 0.591702 0.245918 -0.063611
C47   C     C_R   0.387217 0.281256 0.875401 -0.167525
C48   C     C_R   0.418622 0.311388 0.786668 -0.162842
C49   C     C_R   0.437286 0.470548 0.811219 -0.259599
H1    H     H_    0.860693 0.393516 0.411873 0.198273
H2    H     H_    0.423117 0.260667 0.743475 0.167309
H3    H     H_    0.462886 0.543590 0.785668 0.163043
H4    H     H_    0.839221 0.345303 0.525447 0.191447
H5    H     H_    0.359984 0.356014 0.148436 0.151921
H6    H     H_    0.381840 0.624093 0.861098 0.150872
H7    H     H_    0.542241 0.225928 0.541013 0.130407
H8    H     H_    0.303982 0.305777 0.350763 0.146004
H9    H     H_    0.773358 0.860854 0.679429 0.197199
H10   H     H_    0.708187 0.701904 0.644941 0.137108
H11   H     H_    0.444224 0.767618 0.464977 0.132657
H12   H     H_    0.136337 0.581846 0.608406 0.177950
H13   H     H_    0.050586 0.346464 0.530896 0.193043
H14   H     H_    0.662150 0.141247 0.576571 0.166092
H15   H     H_    0.387570 0.871016 0.387705 0.171809
H16   H     H_    0.069431 0.387180 0.415750 0.215598
H17   H     H_    0.914661 0.568030 0.365698 0.209891
H18   H     H_    0.926096 0.586035 0.606187 0.142515
H19   H     H_    0.095997 0.458807 0.641854 0.187010
H20   H     H_    0.944420 0.647049 0.444982 0.177260
H21   H     H_    0.156033 0.646760 0.446774 0.144942
H22   H     H_    0.342671 0.243779 0.048337 0.171168
H23   H     H_    0.487535 0.457296 0.209989 0.157061
H24   H     H_    0.516158 0.734781 0.262873 0.164706
H25   H     H_    0.412098 0.736926 0.959816 0.163676
H26   H     H_    0.369572 0.207705 0.899671 0.156579
N1    N     N_R   0.573860 0.731700 0.552730 -0.103023
N2    N     N_R   0.426060 0.268290 0.447230 -0.107076
N3    N     N_1   0.465930 0.883161 0.083878 -0.146130
N4    N     N_1   0.161327 0.148777 0.223344 -0.149647
N5    N     N_1   0.800176 0.393483 0.720160 -0.184249
O1    O     O_R   0.462770 0.383110 0.605620 -0.615291
O2    O     O_R   0.510160 0.531900 0.639510 -0.624865
O3    O     O_R   0.661510 0.425600 0.483070 -0.625049
O4    O     O_R   0.708900 0.574390 0.516960 -0.625686
O5    O     O_R   0.489840 0.468100 0.360490 -0.619077
O6    O     O_R   0.537230 0.616890 0.394380 -0.611463
O7    O     O_R   0.291100 0.425610 0.483040 -0.616233
O8    O     O_R   0.338490 0.574400 0.516930 -0.632552
Zn1   Zn    Zn3+2 0.468350 0.400660 0.477370 0.952189
Zn2   Zn    Zn3+2 0.531650 0.599340 0.522630 0.946828

loop_
_geom_bond_atom_site_label_1
_geom_bond_atom_site_label_2
_ccdc_geom_bond_type
N2    Zn1   S    
C21   C24   A    
C17   C46   A    
C25   C26   A    
C6    C13   A    
C14   C42   S    
C19   N1    A    
N1    Zn2   S    
C2    C3    A    
C4    O3    A    
C19   H10   S    
C23   H21   S    
C31   C32   A    
C12   C34   S    
C43   N4    T    
O2    Zn2   S    
C45   C48   A    
C4    O4    A    
O5    Zn1   S    
C25   C32   A    
C5    C6    A    
C37   H4    S    
C20   C21   A    
C2    C49   A    
C33   C43   S    
C44   N5    T    
C6    C7    A    
C18   H9    S    
C49   H3    S    
C5    C9    A    
C9    H6    S    
C20   H11   S    
C10   C11   A    
C11   C14   A    
C39   C41   S    
C47   H26   S    
C14   C15   A    
C38   H16   S    
C10   H25   S    
C7    H5    S    
C21   C22   A    
C12   C38   S    
C16   O5    A    
C3    C8    A    
C12   C23   S    
C38   H13   S    
C1    O2    A    
C47   C48   A    
C39   H17   S    
C17   H23   S    
C34   C40   S    
C32   C36   A    
C40   C41   S    
C26   C27   A    
C16   O6    A    
O8    Zn2   S    
C16   C46   S    
O7    Zn1   S    
C1    O1    A    
C37   C41   S    
C13   C17   A    
C28   O7    A    
C36   H7    S    
C39   H20   S    
C30   C31   A    
C4    C41   S    
C3    C47   A    
C29   H15   S    
C35   H8    S    
Br2   C30   S    
C37   C38   S    
C40   H18   S    
C28   O8    A    
C34   H19   S    
C11   C13   A    
C34   H12   S    
C23   C39   S    
C1    C45   S    
C22   C27   A    
C18   C22   A    
C15   H24   S    
C24   C29   A    
Br3   C23   S    
C42   N3    T    
C8    H22   S    
C2    C5    A    
C12   C28   S    
C48   H2    S    
C36   N2    A    
C33   C35   A    
O3    Zn1   S    
C29   C30   A    
C35   N2    A    
O4    Zn2   S    
Br1   C27   S    
C31   C33   A    
O6    Zn2   S    
C7    C8    A    
C26   H14   S    
C45   C49   A    
C9    C10   A    
C37   H1    S    
C24   C25   A    
O1    Zn1   S    
C20   N1    A    
C18   C19   A    
C40   C44   S    
C15   C46   A    
