data_mof_unit_41991.cif
_audit_creation_date              2012-12-10T17:53:13-0500
_audit_creation_method            fapswitch 2.2
_symmetry_space_group_name_H-M    P1
_symmetry_Int_Tables_number       1
_space_group_crystal_system       triclinic
_cell_length_a                    23.410045
_cell_length_b                    10.643317
_cell_length_c                    9.900531
_cell_angle_alpha                 89.251044
_cell_angle_beta                  90.390523
_cell_angle_gamma                 93.681364
_cell_volume                      2461.47693263

loop_
_atom_site_label
_atom_site_type_symbol
_atom_type_description
_atom_site_fract_x
_atom_site_fract_y
_atom_site_fract_z
_atom_type_partial_charge
C1    C     C_R   0.509168 0.263111 0.501878 0.925087
C2    C     C_R   0.121537 0.607422 0.478002 0.521799
C3    C     C_R   0.238595 0.526970 0.619015 0.520804
C4    C     C_R   0.389477 0.502868 0.499582 0.898733
C5    C     C_R   0.298228 0.525952 0.619211 -0.364625
C6    C     C_R   0.327303 0.505072 0.498829 -0.090078
C7    C     C_R   0.296544 0.484975 0.378169 -0.227781
C8    C     C_R   0.237279 0.482503 0.378438 -0.187337
C9    C     C_R   0.208526 0.501902 0.498624 0.244747
C10   C     C_R   0.761793 0.488688 0.380100 -0.107451
C11   C     C_R   0.702679 0.493237 0.378973 -0.230286
C12   C     C_R   0.965017 0.264014 0.546534 -0.263545
C13   C     C_R   0.672743 0.494239 0.501356 -0.036670
C14   C     C_R   0.702588 0.488907 0.624640 -0.219775
C15   C     C_R   0.761702 0.484094 0.625324 -0.107267
C16   C     C_R   0.496777 0.740250 0.499775 0.901762
C17   C     C_R   0.791165 0.484672 0.503170 0.326702
C18   C     C_R   0.523185 0.117089 0.761189 -0.076650
C19   C     C_R   0.500400 0.057154 0.876615 -0.144379
C20   C     C_R   0.468338 0.943307 0.865050 -0.158020
C21   C     C_R   0.463572 0.884351 0.740158 -0.141991
C22   C     C_R   0.491160 0.939322 0.624487 0.084965
C23   C     C_R   0.024790 0.264748 0.548145 0.482388
C24   C     C_R   0.513481 0.063735 0.631841 0.052151
C25   C     C_R   0.521509 0.131683 0.508486 -0.302656
C26   C     C_R   0.528315 0.067876 0.386708 0.457421
C27   C     C_R   0.516488 0.939834 0.384622 -0.281860
C28   C     C_R   0.610638 0.499379 0.500384 0.840368
C29   C     C_R   0.497501 0.875273 0.501463 -0.204050
C30   C     C_R   0.418247 0.352926 0.149131 -0.118609
C31   C     C_R   0.368992 0.302631 0.090841 -0.286510
C32   C     C_R   0.363286 0.306066 0.953413 -0.305645
C33   C     C_R   0.409980 0.348147 0.869336 0.509160
C34   C     C_R   0.057783 0.378941 0.523640 -0.142217
C35   C     C_R   0.457088 0.425741 0.929468 0.047322
C36   C     C_R   0.458856 0.426657 0.074827 0.124292
C37   C     C_R   0.539493 0.570159 0.070883 -0.132357
C38   C     C_R   0.539668 0.569702 0.927915 -0.122763
C39   C     C_R   0.882548 0.598246 0.483455 0.498510
C40   C     C_R   0.877670 0.376026 0.525242 0.529838
C41   C     C_R   0.937381 0.375638 0.525801 -0.080515
C42   C     C_R   0.969853 0.489959 0.504205 -0.020244
C43   C     C_R   0.942254 0.602579 0.482866 0.000631
C44   C     C_3   0.601172 0.167032 0.267996 0.135115
C45   C     C_R   0.029948 0.491781 0.502826 -0.081273
C46   C     C_3   0.616311 0.240020 0.138674 -0.814642
C47   C     C_3   0.050682 0.119067 0.702995 0.130221
C48   C     C_3   0.081649 0.998684 0.722690 -0.750361
C49   C     C_3   0.365280 0.223425 0.694606 0.104626
C50   C     C_3   0.373062 0.176258 0.551812 -0.803194
C51   C     C_3   0.220943 0.666750 0.784670 0.082658
C52   C     C_3   0.175176 0.697965 0.884967 -0.779268
C53   C     C_R   0.062030 0.606813 0.479771 0.008291
C54   C     C_R   0.034107 0.718282 0.458977 -0.180696
C55   C     C_R   0.974722 0.716258 0.460851 -0.161703
C56   C     C_R   0.117871 0.385107 0.519922 0.571306
H1    H     H_    0.940452 0.175179 0.561374 0.205439
H2    H     H_    0.571795 0.627695 0.124310 0.146825
H3    H     H_    0.422187 0.334248 0.253883 0.217885
H4    H     H_    0.335767 0.255999 0.152616 0.179280
H5    H     H_    0.323521 0.262549 0.915683 0.148268
H6    H     H_    0.572053 0.626859 0.873755 0.151833
H7    H     H_    0.058024 0.807365 0.440850 0.204093
H8    H     H_    0.954398 0.803827 0.444408 0.198625
H9    H     H_    0.321535 0.540215 0.713202 0.165666
H10   H     H_    0.318110 0.469510 0.284105 0.179462
H11   H     H_    0.213541 0.465082 0.285562 0.157512
H12   H     H_    0.680587 0.496656 0.282642 0.161460
H13   H     H_    0.784926 0.489353 0.285714 0.134860
H14   H     H_    0.627149 0.082960 0.273324 0.139297
H15   H     H_    0.612650 0.229436 0.354851 0.131886
H16   H     H_    0.607313 0.179417 0.049610 0.240824
H17   H     H_    0.590737 0.324090 0.130400 0.265455
H18   H     H_    0.662482 0.271329 0.139702 0.206627
H19   H     H_    0.006288 0.101831 0.741801 0.125098
H20   H     H_    0.073631 0.194607 0.763237 0.155406
H21   H     H_    0.126017 0.012057 0.683608 0.279752
H22   H     H_    0.083428 0.973682 0.831818 0.196689
H23   H     H_    0.680416 0.488973 0.720299 0.159585
H24   H     H_    0.058546 0.920199 0.668119 0.247253
H25   H     H_    0.325872 0.276504 0.693057 0.151784
H26   H     H_    0.359785 0.138242 0.760941 0.143237
H27   H     H_    0.404657 0.103550 0.551214 0.241010
H28   H     H_    0.331784 0.132283 0.514184 0.214614
H29   H     H_    0.386832 0.254052 0.482049 0.242624
H30   H     H_    0.221136 0.738628 0.701509 0.169167
H31   H     H_    0.263131 0.673082 0.837320 0.138240
H32   H     H_    0.174301 0.629948 0.971096 0.259364
H33   H     H_    0.184551 0.794501 0.923988 0.207848
H34   H     H_    0.784766 0.481440 0.720406 0.134645
H35   H     H_    0.132555 0.693371 0.834550 0.256953
H36   H     H_    0.548483 0.204783 0.774386 0.148070
H37   H     H_    0.506211 0.100817 0.974302 0.176245
H38   H     H_    0.448205 0.899246 0.953298 0.146061
H39   H     H_    0.437361 0.797088 0.735163 0.152076
H40   H     H_    0.522614 0.891256 0.290770 0.186838
N1    N     N_R   0.851894 0.486178 0.504078 -0.360503
N2    N     N_R   0.147760 0.497916 0.498031 -0.342032
N3    N     N_R   0.499460 0.498800 0.142780 -0.112273
N4    N     N_R   0.499440 0.498720 0.857170 -0.113815
O1    O     O_R   0.500000 0.316780 0.614690 -0.557124
O2    O     O_R   0.583850 0.500050 0.614640 -0.633811
O3    O     O_R   0.583840 0.500030 0.385310 -0.627816
O4    O     O_2   0.855143 0.704853 0.463821 -0.550890
O5    O     O_3   0.542158 0.129921 0.266449 -0.604398
O6    O     O_3   0.050333 0.151791 0.564280 -0.565745
O7    O     O_3   0.413051 0.302995 0.737830 -0.552814
O8    O     O_3   0.208536 0.543470 0.736723 -0.615575
O9    O     O_2   0.845500 0.267598 0.545082 -0.554918
O10   O     O_2   0.146604 0.280233 0.538174 -0.514027
O11   O     O_2   0.153203 0.716299 0.456526 -0.579504
O12   O     O_R   0.500000 0.316750 0.385360 -0.597898
O13   O     O_R   0.416160 0.499970 0.614690 -0.574029
O14   O     O_R   0.416150 0.499950 0.385360 -0.654987
O15   O     O_R   0.500000 0.683250 0.614640 -0.625670
O16   O     O_R   0.500000 0.683220 0.385310 -0.615753
Zn1   Zn    Zn3+2 0.500000 0.500020 0.653130 0.967908
Zn2   Zn    Zn3+2 0.500000 0.499980 0.346870 0.943338

loop_
_geom_bond_atom_site_label_1
_geom_bond_atom_site_label_2
_ccdc_geom_bond_type
C49   H26   S    
C34   C56   A    
C9    N2    S    
C22   C29   A    
C27   C29   A    
C41   C42   A    
C35   C36   A    
C33   O7    S    
C56   N2    A    
C52   H33   S    
C50   H28   S    
C7    C8    A    
C49   O7    S    
C44   O5    S    
C12   C23   A    
C26   C27   A    
C37   C38   A    
C18   C24   A    
C4    O14   A    
C47   H20   S    
C1    O12   A    
C30   C31   A    
C39   N1    A    
C54   H7    S    
C10   C17   A    
C49   H25   S    
C51   H30   S    
C44   H15   S    
C18   C19   A    
C48   H22   S    
C50   H29   S    
C31   C32   A    
C51   O8    S    
O15   Zn1   S    
C13   C28   S    
C44   H14   S    
C39   O4    S    
C46   H16   S    
C37   H2    S    
C19   H37   S    
C23   C34   A    
C45   C53   A    
C21   C22   A    
C55   H8    S    
C1    C25   S    
C27   H40   S    
C16   O16   A    
C26   O5    S    
C56   O10   S    
C44   C46   S    
C50   H27   S    
C6    C7    A    
C2    O11   S    
C51   C52   S    
C28   O3    A    
C4    O13   A    
C52   H32   S    
C24   C25   A    
C4    C6    S    
C51   H31   S    
C40   N1    A    
C8    C9    A    
C39   C43   A    
C21   H39   S    
C16   C29   S    
C53   C54   A    
C23   O6    S    
C42   C45   A    
C48   H21   S    
C12   C41   A    
C3    C9    A    
C47   C48   S    
C47   O6    S    
C30   H3    S    
C34   C45   A    
C14   H23   S    
O14   Zn2   S    
O2    Zn1   S    
O13   Zn1   S    
C12   H1    S    
C5    H9    S    
C40   C41   A    
C22   C24   A    
O3    Zn2   S    
C42   C43   A    
C35   N4    A    
C16   O15   A    
C1    O1    A    
C46   H18   S    
C11   H12   S    
C43   C55   A    
C15   C17   A    
C20   H38   S    
C54   C55   A    
C38   N4    A    
C3    C5    A    
C2    C53   A    
C32   H5    S    
C40   O9    S    
C3    O8    S    
C30   C36   A    
C18   H36   S    
C32   C33   A    
C48   H24   S    
C19   C20   A    
C25   C26   A    
O1    Zn1   S    
N3    Zn2   S    
O12   Zn2   S    
C11   C13   A    
C37   N3    A    
C15   H34   S    
C5    C6    A    
C33   C35   A    
O16   Zn2   S    
C36   N3    A    
C10   C11   A    
C47   H19   S    
C10   H13   S    
C28   O2    A    
C20   C21   A    
C2    N2    A    
C8    H11   S    
C49   C50   S    
C14   C15   A    
C52   H35   S    
N4    Zn1   S    
C31   H4    S    
C38   H6    S    
C13   C14   A    
C17   N1    S    
C46   H17   S    
C7    H10   S    
