data_mof_unit_5248.cif
_audit_creation_date              2012-12-10T20:44:46-0500
_audit_creation_method            fapswitch 2.2
_symmetry_space_group_name_H-M    P1
_symmetry_Int_Tables_number       1
_space_group_crystal_system       triclinic
_cell_length_a                    9.857187
_cell_length_b                    10.678132
_cell_length_c                    16.766214
_cell_angle_alpha                 89.678257
_cell_angle_beta                  94.834642
_cell_angle_gamma                 89.807031
_cell_volume                      1758.4307623

loop_
_atom_site_label
_atom_site_type_symbol
_atom_type_description
_atom_site_fract_x
_atom_site_fract_y
_atom_site_fract_z
_atom_type_partial_charge
C1    C     C_R   0.499737 0.259870 0.497442 0.869875
C2    C     C_R   0.616231 0.570234 0.787406 0.389472
C3    C     C_R   0.578542 0.405124 0.144883 -0.163592
C4    C     C_R   0.586999 0.432235 0.225522 -0.229843
C5    C     C_R   0.454411 0.421250 0.098141 0.323113
C6    C     C_R   0.471202 0.473139 0.261050 -0.023674
C7    C     C_R   0.345249 0.481364 0.215600 -0.219558
C8    C     C_R   0.337105 0.454961 0.134194 -0.180713
C9    C     C_R   0.618432 0.063614 0.476971 0.131362
C10   C     C_R   0.497395 0.128677 0.483800 -0.088970
C11   C     C_R   0.372641 0.065311 0.474004 -0.215821
C12   C     C_R   0.518227 0.499768 0.653204 0.967816
C13   C     C_R   0.372467 0.935900 0.473704 -0.214236
C14   C     C_R   0.497034 0.871430 0.483116 -0.088532
C15   C     C_R   0.618284 0.935792 0.476328 0.099741
C16   C     C_3   0.752185 0.927263 0.525136 -0.401398
C17   C     C_3   0.751593 0.069179 0.526489 -0.495956
C18   C     C_R   0.081256 0.483710 0.569707 0.243949
C19   C     C_R   0.062209 0.527546 0.432395 -0.147604
C20   C     C_R   0.918315 0.527637 0.432397 -0.155546
C21   C     C_R   0.938736 0.483756 0.569694 0.308288
C22   C     C_3   0.941137 0.372761 0.624038 -0.501208
C23   C     C_R   0.499372 0.740090 0.497004 0.944081
C24   C     C_3   0.095228 0.372645 0.624045 -0.519942
C25   C     C_R   0.481948 0.497170 0.346529 0.853777
C26   C     C_R   0.530878 0.489937 0.739334 -0.159744
C27   C     C_R   0.457767 0.394751 0.773820 -0.296730
C28   C     C_R   0.467247 0.379519 0.855998 -0.134783
C29   C     C_R   0.550549 0.459960 0.904377 0.262853
C30   C     C_R   0.627189 0.552103 0.869979 -0.280911
H1    H     H_    0.684407 0.420970 0.259894 0.159398
H2    H     H_    0.275861 0.887538 0.472302 0.174316
H3    H     H_    0.744675 0.884317 0.585061 0.275874
H4    H     H_    0.833346 0.887504 0.490512 0.195137
H5    H     H_    0.741676 0.107996 0.587148 0.216197
H6    H     H_    0.833095 0.111424 0.493186 0.201983
H7    H     H_    0.108309 0.547918 0.377539 0.150213
H8    H     H_    0.856669 0.548234 0.377484 0.155398
H9    H     H_    0.905069 0.396028 0.683255 0.235051
H10   H     H_    0.892567 0.289511 0.594628 0.201858
H11   H     H_    0.147758 0.396172 0.683295 0.220503
H12   H     H_    0.669767 0.375645 0.118296 0.150913
H13   H     H_    0.136261 0.289070 0.594758 0.212853
H14   H     H_    0.690436 0.613401 0.908442 0.186794
H15   H     H_    0.254126 0.510112 0.242543 0.152714
H16   H     H_    0.409194 0.305885 0.881742 0.163512
H17   H     H_    0.241038 0.466487 0.098487 0.146875
H18   H     H_    0.393702 0.331787 0.736926 0.168673
H19   H     H_    0.276077 0.114359 0.472708 0.171380
N1    N     N_2   0.555131 0.455547 0.988238 -0.186140
N2    N     N_2   0.448226 0.416462 0.014115 -0.194390
N3    N     N_R   0.142860 0.499130 0.500540 -0.114339
N4    N     N_R   0.857210 0.499170 0.500530 -0.117356
O1    O     O_R   0.614690 0.316790 0.499990 -0.623951
O2    O     O_R   0.385350 0.316760 0.500000 -0.627862
O3    O     O_R   0.627460 0.498860 0.616130 -0.574657
O4    O     O_R   0.398120 0.498820 0.616130 -0.617394
O5    O     O_R   0.614650 0.683240 0.500000 -0.597108
O6    O     O_R   0.385310 0.683210 0.500010 -0.622085
O7    O     O_R   0.601880 0.501180 0.383870 -0.636178
O8    O     O_R   0.372540 0.501140 0.383870 -0.631000
Zn1   Zn    Zn3+2 0.653130 0.500020 0.499990 0.980443
Zn2   Zn    Zn3+2 0.346870 0.499980 0.500010 0.954390
S1    S     S_3+6 0.699420 0.700188 0.747460 0.009992
O9    O     O_2   0.818938 0.655172 0.705418 -0.282034
O10   O     O_2   0.602290 0.768672 0.688415 -0.356456
O11   O     O_3   0.755811 0.799151 0.820512 -0.532883
H20   H     H_    0.672585 0.838380 0.838595 0.353801

loop_
_geom_bond_atom_site_label_1
_geom_bond_atom_site_label_2
_ccdc_geom_bond_type
C27   H18   S    
C14   C23   S    
C23   O5    A    
C21   N4    A    
C1    O1    A    
C3    H12   S    
O5    Zn1   S    
C29   C30   A    
C11   H19   S    
C17   H6    S    
C16   H3    S    
C5    C8    A    
C18   C21   A    
C20   H8    S    
C9    C10   A    
C13   H2    S    
O6    Zn2   S    
C19   C20   A    
C2    C30   A    
C22   H10   S    
S1    O9    D    
N1    N2    D    
C9    C15   A    
C8    H17   S    
C18   N3    A    
C7    C8    A    
C2    C26   A    
S1    O10   D    
C25   O8    A    
C21   C22   S    
C23   O6    A    
C24   H11   S    
C11   C13   A    
C28   H16   S    
C26   C27   A    
C12   O3    A    
C18   C24   S    
C12   O4    A    
C7    H15   S    
C22   C24   S    
C4    C6    A    
C28   C29   A    
C25   O7    A    
C2    S1    S    
O4    Zn2   S    
C6    C7    A    
C30   H14   S    
C29   N1    S    
C1    O2    A    
O3    Zn1   S    
C6    C25   S    
C16   C17   S    
C10   C11   A    
C22   H9    S    
C15   C16   S    
C4    H1    S    
S1    O11   S    
C17   H5    S    
C3    C4    A    
O7    Zn1   S    
N4    Zn1   S    
C9    C17   S    
C27   C28   A    
O8    Zn2   S    
C24   H13   S    
C14   C15   A    
C5    N2    S    
C19   H7    S    
C16   H4    S    
C13   C14   A    
O1    Zn1   S    
C19   N3    A    
C1    C10   S    
O11   H20   S    
C12   C26   S    
C20   N4    A    
C3    C5    A    
N3    Zn2   S    
O2    Zn2   S    
