data_mof_unit_32683.cif
_audit_creation_date              2012-12-10T18:43:47-0500
_audit_creation_method            fapswitch 2.2
_symmetry_space_group_name_H-M    P1
_symmetry_Int_Tables_number       1
_space_group_crystal_system       triclinic
_cell_length_a                    10.804922
_cell_length_b                    10.656845
_cell_length_c                    9.897479
_cell_angle_alpha                 89.371594
_cell_angle_beta                  104.472021
_cell_angle_gamma                 91.13323
_cell_volume                      1103.26005421

loop_
_atom_site_label
_atom_site_type_symbol
_atom_type_description
_atom_site_fract_x
_atom_site_fract_y
_atom_site_fract_z
_atom_type_partial_charge
C1    C     C_R   0.504023 0.260483 0.501554 0.905449
C2    C     C_2   0.876429 0.516612 0.592579 -0.386716
C3    C     C_2   0.058794 0.532197 0.492228 0.222532
C4    C     C_2   0.941172 0.467780 0.507691 0.222596
C5    C     C_R   0.421686 0.067738 0.391366 -0.238025
C6    C     C_R   0.578275 0.932266 0.608636 -0.238066
C7    C     C_R   0.412183 0.938679 0.388100 -0.025376
C8    C     C_R   0.587775 0.061322 0.611899 -0.025325
C9    C     C_R   0.493119 0.872034 0.497783 -0.119169
C10   C     C_R   0.506851 0.127967 0.502212 -0.119190
C11   C     C_3   0.844571 0.351677 0.290429 -0.721708
C12   C     C_R   0.495965 0.739517 0.498443 0.905517
C13   C     C_3   0.155415 0.648470 0.709361 -0.721780
C14   C     C_3   0.793231 0.697244 0.148418 -0.836464
C15   C     C_3   0.206678 0.302913 0.851525 -0.836395
C16   C     C_2   0.313707 0.878826 0.273185 0.906309
C17   C     C_2   0.686237 0.121183 0.726811 0.906391
C18   C     C_R   0.259380 0.500978 0.441130 0.972185
C19   C     C_R   0.740621 0.499012 0.558870 0.972112
C20   C     C_R   0.591755 0.567409 0.095210 0.273633
C21   C     C_R   0.408242 0.432598 0.904787 0.273653
C22   C     C_R   0.590312 0.566215 0.950519 -0.132404
C23   C     C_R   0.409687 0.433784 0.049478 -0.132429
C24   C     C_2   0.123584 0.483316 0.407417 -0.386761
H1    H     H_    0.913245 0.593398 0.662669 0.148648
H2    H     H_    0.860443 0.443414 0.243115 0.256485
H3    H     H_    0.144518 0.712171 0.506242 0.251289
H4    H     H_    0.259783 0.668742 0.731996 0.262829
H5    H     H_    0.139685 0.556734 0.756759 0.256508
H6    H     H_    0.111048 0.722477 0.758735 0.225896
H7    H     H_    0.653493 0.692564 0.258879 0.273047
H8    H     H_    0.863756 0.735070 0.241273 0.261593
H9    H     H_    0.758428 0.776237 0.075495 0.259286
H10   H     H_    0.842832 0.627998 0.098403 0.243495
H11   H     H_    0.346555 0.307319 0.741243 0.272953
H12   H     H_    0.086825 0.406452 0.337418 0.148661
H13   H     H_    0.136138 0.265139 0.758651 0.261628
H14   H     H_    0.157139 0.372240 0.901508 0.243487
H15   H     H_    0.241361 0.223902 0.924467 0.259246
H16   H     H_    0.209784 0.889245 0.073343 0.343396
H17   H     H_    0.789982 0.110892 0.926740 0.343377
H18   H     H_    0.660056 0.619004 0.910764 0.162947
H19   H     H_    0.339944 0.380989 0.089229 0.162956
H20   H     H_    0.358803 0.122331 0.310130 0.181299
H21   H     H_    0.641157 0.877681 0.689878 0.181208
H22   H     H_    0.855299 0.287859 0.493476 0.251327
H23   H     H_    0.740178 0.331519 0.267705 0.262831
H24   H     H_    0.888891 0.277639 0.241045 0.225879
N1    N     N_R   0.499970 0.499970 0.857200 -0.134137
N2    N     N_R   0.500030 0.500030 0.142800 -0.134161
N3    N     N_2   0.900150 0.350087 0.439824 -0.315237
N4    N     N_2   0.099746 0.649951 0.559983 -0.315272
N5    N     N_2   0.687616 0.638018 0.192116 -0.283421
N6    N     N_2   0.312392 0.361985 0.807875 -0.283367
O1    O     O_R   0.499990 0.316750 0.614620 -0.624921
O2    O     O_R   0.278285 0.938040 0.142709 -0.812130
O3    O     O_2   0.739423 0.219466 0.706911 -0.655114
O4    O     O_R   0.721468 0.062106 0.857375 -0.812080
O5    O     O_R   0.500010 0.683250 0.385380 -0.624865
O6    O     O_R   0.499990 0.316780 0.385290 -0.628237
O7    O     O_R   0.500010 0.683220 0.614710 -0.628267
O8    O     O_R   0.317810 0.500000 0.571850 -0.601911
O9    O     O_R   0.682190 0.500000 0.428150 -0.601989
O10   O     O_R   0.317810 0.500030 0.342520 -0.594394
O11   O     O_R   0.682190 0.499970 0.657480 -0.594446
O12   O     O_2   0.260671 0.780434 0.293012 -0.655052
Zn1   Zn    Zn3+2 0.500000 0.499980 0.653120 0.959072
Zn2   Zn    Zn3+2 0.500000 0.500020 0.346880 0.959087

loop_
_geom_bond_atom_site_label_1
_geom_bond_atom_site_label_2
_ccdc_geom_bond_type
C14   H10   S    
O1    Zn1   S    
C3    N4    S    
C16   O2    S    
C13   H4    S    
C6    H21   S    
C6    C8    A    
O5    Zn2   S    
C13   N4    S    
O7    Zn1   S    
C11   H23   S    
C8    C17   S    
C17   O4    S    
C15   H15   S    
C14   H9    S    
C21   N1    A    
C1    O1    A    
C5    C10   A    
C15   H14   S    
C24   H12   S    
H7    N5    S    
H11   N6    S    
C12   O7    A    
C18   O10   A    
C11   H24   S    
C22   H18   S    
C19   O9    A    
O8    Zn1   S    
C6    C9    A    
C22   N1    A    
C18   C24   S    
C2    C4    D    
O10   Zn2   S    
C11   N3    S    
C13   H5    S    
C7    C16   S    
C5    H20   S    
C20   C22   A    
H17   O4    S    
C19   O11   A    
C2    H1    S    
C3    C24   D    
C21   C23   A    
C21   N6    S    
C9    C12   S    
C16   O12   D    
C4    N3    S    
C3    C4    S    
C15   N6    S    
C13   H6    S    
C14   N5    S    
C23   H19   S    
H3    N4    S    
O6    Zn2   S    
C5    C7    A    
C1    O6    A    
C17   O3    D    
C7    C9    A    
O9    Zn2   S    
C15   H13   S    
C23   N2    A    
C20   N2    A    
N1    Zn1   S    
C11   H2    S    
H16   O2    S    
C2    C19   S    
C12   O5    A    
N2    Zn2   S    
H22   N3    S    
C8    C10   A    
C18   O8    A    
C1    C10   S    
C14   H8    S    
C20   N5    S    
O11   Zn1   S    
