data_mof_unit_47886.cif
_audit_creation_date              2012-12-10T17:45:30-0500
_audit_creation_method            fapswitch 2.2
_symmetry_space_group_name_H-M    P1
_symmetry_Int_Tables_number       1
_space_group_crystal_system       triclinic
_cell_length_a                    11.538456
_cell_length_b                    10.631752
_cell_length_c                    9.950757
_cell_angle_alpha                 89.739415
_cell_angle_beta                  89.725775
_cell_angle_gamma                 91.761931
_cell_volume                      1220.09461984

loop_
_atom_site_label
_atom_site_type_symbol
_atom_type_description
_atom_site_fract_x
_atom_site_fract_y
_atom_site_fract_z
_atom_type_partial_charge
C1    C     C_R   0.503142 0.260800 0.500262 0.839035
C2    C     C_R   0.784251 0.073885 0.691565 -0.130595
C3    C     C_R   0.784638 0.943051 0.690731 -0.126008
C4    C     C_R   0.695578 0.874734 0.627491 -0.175859
C5    C     C_R   0.603182 0.937115 0.565430 0.087642
C6    C     C_R   0.602738 0.069002 0.566295 0.097179
C7    C     C_R   0.511286 0.128671 0.500230 -0.085392
C8    C     C_R   0.425696 0.061970 0.430034 -0.213494
C9    C     C_R   0.426173 0.933500 0.429208 -0.162031
C10   C     C_R   0.512156 0.871960 0.498691 -0.091810
C11   C     C_R   0.349753 0.332964 0.141111 -0.128210
C12   C     C_R   0.282130 0.499666 0.500263 0.881959
C13   C     C_R   0.276252 0.250200 0.071812 -0.183306
C14   C     C_R   0.276294 0.250267 0.932692 -0.180360
C15   C     C_R   0.349889 0.333057 0.861945 -0.134830
C16   C     C_R   0.426388 0.417447 0.928631 0.166681
C17   C     C_R   0.426380 0.417430 0.072979 0.144197
C18   C     C_R   0.569913 0.580222 0.069683 0.010125
C19   C     C_R   0.569562 0.579725 0.926912 -0.145950
C20   C     C_R   0.503742 0.739350 0.499661 0.865416
C21   C     C_R   0.717870 0.500405 0.499738 0.877460
C22   C     C_1   0.161581 0.499471 0.500681 -0.183115
C23   C     C_1   0.059341 0.499499 0.500382 0.002583
C24   C     C_1   0.940608 0.499780 0.499703 0.013328
C25   C     C_1   0.838386 0.500107 0.499361 -0.153388
C26   C     C_R   0.694762 0.136875 0.629228 -0.169087
H1    H     H_    0.356957 0.109613 0.378309 0.138997
H2    H     H_    0.218454 0.186232 0.879060 0.149503
H3    H     H_    0.343819 0.328760 0.755357 0.199536
H4    H     H_    0.626124 0.644783 0.871562 0.150258
H5    H     H_    0.699677 0.238509 0.629232 0.153290
H6    H     H_    0.854168 0.126816 0.739371 0.140108
H7    H     H_    0.854829 0.894348 0.737904 0.142623
H8    H     H_    0.701118 0.773437 0.625976 0.142852
H9    H     H_    0.357718 0.881643 0.377071 0.158955
H10   H     H_    0.343351 0.328479 0.247716 0.193696
H11   H     H_    0.218405 0.186088 0.126602 0.148277
N1    N     N_R   0.498930 0.498800 0.142780 -0.162332
N2    N     N_R   0.498900 0.498720 0.857170 -0.123318
O1    O     O_R   0.500000 0.316780 0.614690 -0.641096
O2    O     O_R   0.499990 0.316750 0.385360 -0.631082
O3    O     O_R   0.334450 0.500030 0.614670 -0.624914
O4    O     O_R   0.334440 0.500000 0.385330 -0.630889
O5    O     O_R   0.500010 0.683250 0.614640 -0.616312
O6    O     O_R   0.500000 0.683220 0.385310 -0.590140
O7    O     O_R   0.665560 0.500000 0.614670 -0.632187
O8    O     O_R   0.665550 0.499970 0.385330 -0.571620
Zn1   Zn    Zn3+2 0.500010 0.500020 0.653130 0.936275
Zn2   Zn    Zn3+2 0.499990 0.499980 0.346870 0.974659
C27   C     C_2   0.646951 0.671827 0.137352 0.954803
O9    O     O_2   0.744306 0.642190 0.170215 -0.627215
O10   O     O_R   0.610599 0.794549 0.156964 -0.793635
H12   H     H_    0.671222 0.849483 0.203795 0.338738

loop_
_geom_bond_atom_site_label_1
_geom_bond_atom_site_label_2
_ccdc_geom_bond_type
C8    C9    A    
C27   O10   S    
C23   C24   S    
C6    C7    A    
O8    Zn2   S    
C9    C10   A    
N2    Zn1   S    
C13   H11   S    
C20   O6    A    
O6    Zn2   S    
C2    C3    A    
C18   N1    A    
O4    Zn2   S    
C26   H5    S    
C2    C26   A    
N1    Zn2   S    
O3    Zn1   S    
C13   C14   A    
C24   C25   T    
O5    Zn1   S    
C11   C13   A    
C6    C26   A    
C19   N2    A    
C1    O2    A    
C11   H10   S    
C20   O5    A    
C15   H3    S    
C12   O4    A    
O7    Zn1   S    
C17   N1    A    
C22   C23   T    
C5    C6    A    
C4    H8    S    
C7    C8    A    
C3    H7    S    
C16   N2    A    
C9    H9    S    
C15   C16   A    
C12   C22   S    
C5    C10   A    
C18   C19   A    
O10   H12   S    
C18   C27   S    
C2    H6    S    
C21   O7    A    
O2    Zn2   S    
O1    Zn1   S    
C8    H1    S    
C21   C25   S    
C14   C15   A    
C16   C17   A    
C12   O3    A    
C27   O9    D    
C1    O1    A    
C14   H2    S    
C1    C7    S    
C19   H4    S    
C11   C17   A    
C3    C4    A    
C10   C20   S    
C4    C5    A    
C21   O8    A    
