data_mof_unit_42663.cif
_audit_creation_date              2012-10-26T20:15:42-0400
_audit_creation_method            fapswitch 2.2
_symmetry_space_group_name_H-M    P1
_symmetry_Int_Tables_number       1
_space_group_crystal_system       triclinic
_cell_length_a                    15.994268
_cell_length_b                    14.744122
_cell_length_c                    27.807501
_cell_angle_alpha                 90.038524
_cell_angle_beta                  89.890593
_cell_angle_gamma                 89.631927
_cell_volume                      6557.45608829

loop_
_atom_site_label
_atom_site_type_symbol
_atom_type_description
_atom_site_fract_x
_atom_site_fract_y
_atom_site_fract_z
_atom_type_partial_charge
C1    C     C_R   0.340942 0.500260 0.499922 0.549310
C2    C     C_R   0.445708 0.435825 0.872055 -0.006706
C3    C     C_3   0.495790 0.715944 0.765420 -0.437553
C4    C     C_3   0.552160 0.657979 0.246406 -0.250446
C5    C     C_3   0.476278 0.714713 0.231671 -0.434244
C6    C     C_R   0.307476 0.351815 0.869645 0.093301
C7    C     C_R   0.319117 0.271023 0.843572 -0.052595
C8    C     C_R   0.252622 0.233299 0.818053 -0.100962
C9    C     C_R   0.174306 0.275939 0.818344 -0.098535
C10   C     C_R   0.162379 0.356458 0.844106 -0.109080
C11   C     C_R   0.228725 0.394481 0.869650 -0.076776
C12   C     C_R   0.739650 0.416862 0.130093 0.093216
C13   C     C_R   0.499494 0.498890 0.352874 -0.047402
C14   C     C_R   0.748794 0.335605 0.155985 -0.051137
C15   C     C_R   0.822316 0.318079 0.181543 -0.101597
C16   C     C_R   0.887016 0.381377 0.181401 -0.099098
C17   C     C_R   0.878259 0.462388 0.155751 -0.109672
C18   C     C_R   0.804787 0.480268 0.130193 -0.078301
C19   C     C_3   0.321387 0.317828 0.972438 -0.278354
C20   C     C_3   0.358043 0.222198 0.968405 -0.432874
C21   C     C_3   0.734930 0.375118 0.027930 -0.277952
C22   C     C_3   0.720024 0.273167 0.031790 -0.432856
C23   C     C_3   0.092532 0.666970 0.523557 -0.265623
C24   C     C_R   0.508069 0.499671 0.646312 -0.042025
C25   C     C_3   0.126197 0.711090 0.477745 -0.434523
C26   C     C_3   0.908120 0.334168 0.473694 -0.271931
C27   C     C_3   0.878824 0.335810 0.421456 -0.433285
C28   C     C_3   0.904281 0.657783 0.536482 -0.262448
C29   C     C_3   0.885400 0.728253 0.497734 -0.436638
C30   C     C_3   0.095086 0.341403 0.464188 -0.269537
C31   C     C_3   0.126013 0.280289 0.504852 -0.441167
C32   C     C_R   0.443330 0.429130 0.973393 0.010646
C33   C     C_R   0.590584 0.450543 0.025584 0.011075
C34   C     C_R   0.590244 0.468782 0.975482 -0.003148
C35   C     C_R   0.438972 0.449761 0.023169 -0.003623
C36   C     C_R   0.517088 0.452923 0.948904 0.012418
C37   C     C_R   0.513344 0.455303 0.049847 0.012493
C38   C     C_R   0.378134 0.386722 0.947455 -0.011352
C39   C     C_R   0.659023 0.499692 0.499960 0.548751
C40   C     C_R   0.663574 0.428251 0.052016 -0.011275
C41   C     C_R   0.378038 0.392739 0.896510 -0.004243
C42   C     C_R   0.661687 0.436093 0.102900 -0.005113
C43   C     C_R   0.499648 0.499865 0.406808 0.541821
C44   C     C_R   0.501697 0.500086 0.592926 0.549565
C45   C     C_R   0.363554 0.474362 0.045175 -0.130005
C46   C     C_R   0.657500 0.511410 0.952920 -0.129598
C47   C     C_R   0.954812 0.577802 0.516387 0.026980
C48   C     C_R   0.044905 0.422142 0.483506 0.030008
C49   C     C_R   0.043288 0.580764 0.512543 0.030679
C50   C     C_R   0.510468 0.466964 0.100125 -0.057740
C51   C     C_R   0.956538 0.419901 0.486280 0.027843
C52   C     C_R   0.912606 0.498228 0.501828 0.018758
C53   C     C_R   0.087178 0.501794 0.497652 0.026622
C54   C     C_1   0.822646 0.498133 0.501070 -0.076111
C55   C     C_1   0.177208 0.501405 0.498428 -0.068697
C56   C     C_1   0.252125 0.500873 0.499203 -0.046585
C57   C     C_1   0.747771 0.498825 0.500439 -0.046586
C58   C     C_R   0.576656 0.950836 0.502000 0.022392
C59   C     C_R   0.423161 0.049090 0.502086 0.022673
C60   C     C_R   0.423165 0.951947 0.500102 0.018843
C61   C     C_R   0.517141 0.462757 0.898502 -0.058015
C62   C     C_R   0.576718 0.047905 0.499484 0.018056
C63   C     C_R   0.499919 0.902879 0.500815 -0.017193
C64   C     C_R   0.499954 0.097077 0.500630 -0.018022
C65   C     C_1   0.499964 0.802535 0.500363 0.115774
C66   C     C_1   0.499947 0.197449 0.500307 0.112704
C67   C     C_R   0.433401 0.499071 0.173666 0.362795
C68   C     C_R   0.583750 0.511826 0.824397 0.364822
C69   C     C_R   0.581056 0.474802 0.177151 0.366096
C70   C     C_R   0.445903 0.450681 0.821860 0.366169
C71   C     C_R   0.526579 0.574359 0.275271 0.050028
C72   C     C_R   0.432681 0.486635 0.123116 0.020161
C73   C     C_R   0.472646 0.565005 0.725117 0.050259
C74   C     C_R   0.527212 0.575545 0.326274 -0.052364
C75   C     C_R   0.467967 0.567720 0.674282 -0.052384
C76   C     C_R   0.472488 0.420427 0.327537 -0.050801
C77   C     C_R   0.555022 0.430491 0.669429 -0.050456
C78   C     C_R   0.476961 0.416946 0.276703 0.045421
C79   C     C_R   0.555775 0.424257 0.720187 0.046305
C80   C     C_R   0.502851 0.494452 0.250877 0.252541
C81   C     C_R   0.514546 0.491827 0.747756 0.251794
C82   C     C_R   0.434917 0.342560 0.353330 0.061516
C83   C     C_R   0.587807 0.501303 0.875029 0.021388
C84   C     C_R   0.348955 0.343002 0.363614 -0.085350
C85   C     C_R   0.311150 0.265650 0.382617 -0.115846
C86   C     C_R   0.358835 0.187616 0.391222 -0.111922
C87   C     C_R   0.444876 0.187646 0.382439 -0.111618
C88   C     C_R   0.483085 0.265066 0.363812 -0.063870
C89   C     C_R   0.609787 0.369425 0.640685 0.050992
C90   C     C_R   0.688124 0.400293 0.625066 -0.088233
C91   C     C_R   0.742207 0.341990 0.600189 -0.106359
C92   C     C_R   0.718449 0.252691 0.590857 -0.109934
C93   C     C_R   0.640038 0.221895 0.605773 -0.116829
C94   C     C_R   0.358049 0.493101 0.094672 0.011752
C95   C     C_R   0.585492 0.280193 0.630322 -0.060864
C96   C     C_3   0.658645 0.099472 0.494185 -0.276240
C97   C     C_3   0.686232 0.102937 0.441647 -0.442124
C98   C     C_3   0.341471 0.899901 0.495166 -0.274809
C99   C     C_3   0.317781 0.890198 0.442266 -0.441693
C100  C     C_3   0.341402 0.102147 0.507636 -0.275927
C101  C     C_3   0.317111 0.110446 0.560567 -0.440869
C102  C     C_3   0.658030 0.897822 0.509062 -0.276121
C103  C     C_3   0.677890 0.888807 0.562522 -0.440747
C104  C     C_3   0.454283 0.330090 0.249576 -0.252130
C105  C     C_R   0.658634 0.528290 0.903147 0.011764
C106  C     C_3   0.531419 0.271790 0.238997 -0.436953
C107  C     C_3   0.600872 0.345753 0.745238 -0.253073
C108  C     C_3   0.541006 0.268841 0.757473 -0.436712
C109  C     C_3   0.273290 0.518996 0.116645 -0.241822
C110  C     C_3   0.198970 0.527542 0.082232 -0.481468
C111  C     C_3   0.734767 0.574351 0.880573 -0.241959
C112  C     C_3   0.805153 0.602837 0.914567 -0.481359
C113  C     C_R   0.418227 0.640343 0.650746 0.052286
C114  C     C_R   0.332154 0.628732 0.643532 -0.094520
C115  C     C_R   0.284097 0.699052 0.623980 -0.111546
C116  C     C_R   0.585634 0.460334 0.126943 -0.005821
C117  C     C_R   0.321781 0.780744 0.611007 -0.108765
C118  C     C_R   0.407750 0.792182 0.617370 -0.111409
C119  C     C_R   0.455957 0.722310 0.637305 -0.059613
C120  C     C_R   0.561332 0.656126 0.351201 0.058613
C121  C     C_R   0.645802 0.657429 0.364790 -0.077696
C122  C     C_R   0.680039 0.735846 0.384777 -0.112364
C123  C     C_R   0.630305 0.813256 0.391016 -0.109758
C124  C     C_R   0.545726 0.811707 0.378603 -0.110600
C125  C     C_R   0.511027 0.733201 0.358978 -0.070014
C126  C     C_3   0.433397 0.640355 0.755535 -0.248417
Cu1   Cu    Cu3+1 0.500000 0.589220 0.500000 0.984569
Cu2   Cu    Cu3+1 0.500000 0.410780 0.500000 0.986676
H1    H     H_    0.309342 0.481390 0.022399 0.119670
H2    H     H_    0.760771 0.207472 0.571964 0.090600
H3    H     H_    0.845498 0.271909 0.413110 0.128803
H4    H     H_    0.945303 0.271810 0.480345 0.133255
H5    H     H_    0.852960 0.326536 0.497658 0.143188
H6    H     H_    0.943678 0.759850 0.484491 0.147985
H7    H     H_    0.852236 0.696243 0.467105 0.155299
H8    H     H_    0.844782 0.782507 0.512881 0.128081
H9    H     H_    0.843906 0.635230 0.551958 0.146280
H10   H     H_    0.935294 0.689114 0.567888 0.121032
H11   H     H_    0.168291 0.318106 0.529192 0.165002
H12   H     H_    0.072544 0.254023 0.526070 0.140837
H13   H     H_    0.621500 0.152828 0.598340 0.099189
H14   H     H_    0.161234 0.221895 0.489487 0.128866
H15   H     H_    0.058865 0.300730 0.438115 0.133804
H16   H     H_    0.149600 0.365101 0.442942 0.141552
H17   H     H_    0.524671 0.255918 0.641269 0.099686
H18   H     H_    0.694161 0.033703 0.426648 0.138083
H19   H     H_    0.639041 0.140246 0.419925 0.149950
H20   H     H_    0.746814 0.138913 0.438886 0.131376
H21   H     H_    0.652995 0.170297 0.507019 0.157260
H22   H     H_    0.708740 0.069910 0.516865 0.130912
H23   H     H_    0.312842 0.957680 0.424803 0.138896
H24   H     H_    0.365556 0.848891 0.423039 0.153321
H25   H     H_    0.708068 0.534143 0.975463 0.119404
H26   H     H_    0.256635 0.855708 0.439134 0.131392
H27   H     H_    0.346132 0.831126 0.511065 0.156254
H28   H     H_    0.289638 0.932274 0.515430 0.131184
H29   H     H_    0.310097 0.042447 0.577161 0.141389
H30   H     H_    0.365729 0.148612 0.580470 0.156549
H31   H     H_    0.256780 0.147651 0.563796 0.134177
H32   H     H_    0.345991 0.171538 0.492578 0.158786
H33   H     H_    0.289794 0.071117 0.486990 0.129638
H34   H     H_    0.684361 0.956723 0.579341 0.142031
H35   H     H_    0.627272 0.851263 0.581151 0.152190
H36   H     H_    0.311066 0.402253 0.355677 0.102145
H37   H     H_    0.737420 0.850803 0.567242 0.131791
H38   H     H_    0.654611 0.828783 0.493372 0.156178
H39   H     H_    0.711400 0.929163 0.490065 0.131594
H40   H     H_    0.573591 0.306357 0.213411 0.179209
H41   H     H_    0.566495 0.256883 0.272424 0.148600
H42   H     H_    0.511829 0.206629 0.222608 0.124408
H43   H     H_    0.408565 0.288474 0.269673 0.144224
H44   H     H_    0.421876 0.344928 0.215354 0.167494
H45   H     H_    0.495517 0.290454 0.785306 0.177508
H46   H     H_    0.506289 0.246618 0.725126 0.149190
H47   H     H_    0.244628 0.265538 0.389772 0.095633
H48   H     H_    0.577010 0.210143 0.771730 0.124141
H49   H     H_    0.652527 0.317859 0.722965 0.143263
H50   H     H_    0.632303 0.368304 0.778535 0.170980
H51   H     H_    0.210754 0.580827 0.054865 0.148201
H52   H     H_    0.186164 0.461516 0.064526 0.141647
H53   H     H_    0.142293 0.547521 0.102916 0.139040
H54   H     H_    0.255951 0.466726 0.143576 0.189619
H55   H     H_    0.279399 0.585875 0.134711 0.187052
H56   H     H_    0.781856 0.652953 0.941347 0.147866
H57   H     H_    0.832418 0.542734 0.932991 0.141091
H58   H     H_    0.329063 0.127071 0.404643 0.095492
H59   H     H_    0.855673 0.635455 0.893422 0.141117
H60   H     H_    0.763389 0.527095 0.854014 0.189909
H61   H     H_    0.713409 0.637004 0.861966 0.186727
H62   H     H_    0.302226 0.566019 0.653925 0.109820
H63   H     H_    0.217466 0.690642 0.619496 0.094125
H64   H     H_    0.284275 0.835261 0.596187 0.092059
H65   H     H_    0.436905 0.855371 0.607135 0.102623
H66   H     H_    0.522438 0.731941 0.642332 0.096879
H67   H     H_    0.685222 0.598369 0.359102 0.104174
H68   H     H_    0.745374 0.737047 0.394793 0.096291
H69   H     H_    0.481766 0.127393 0.389659 0.103163
H70   H     H_    0.657306 0.874479 0.405455 0.097493
H71   H     H_    0.507294 0.871571 0.383919 0.101363
H72   H     H_    0.445478 0.732702 0.349385 0.095121
H73   H     H_    0.548973 0.690097 0.787047 0.194608
H74   H     H_    0.520103 0.744488 0.731312 0.147931
H75   H     H_    0.464446 0.771154 0.785945 0.126490
H76   H     H_    0.377308 0.669823 0.737965 0.144763
H77   H     H_    0.409971 0.614458 0.790377 0.172790
H78   H     H_    0.437167 0.677318 0.205600 0.192963
H79   H     H_    0.437644 0.732716 0.263457 0.149315
H80   H     H_    0.549676 0.264231 0.356818 0.095320
H81   H     H_    0.497555 0.778281 0.214258 0.125196
H82   H     H_    0.595719 0.701799 0.266722 0.143830
H83   H     H_    0.587741 0.639043 0.213686 0.177573
H84   H     H_    0.379643 0.237700 0.842943 0.084154
H85   H     H_    0.261832 0.171091 0.797994 0.096695
H86   H     H_    0.122894 0.246657 0.798554 0.102048
H87   H     H_    0.101738 0.389460 0.844234 0.100473
H88   H     H_    0.218935 0.456994 0.889413 0.093257
H89   H     H_    0.698905 0.286315 0.156490 0.084225
H90   H     H_    0.829103 0.255476 0.201498 0.095991
H91   H     H_    0.707527 0.469073 0.632654 0.100761
H92   H     H_    0.943904 0.367691 0.201199 0.102969
H93   H     H_    0.928399 0.511338 0.155693 0.100246
H94   H     H_    0.798541 0.543249 0.110459 0.093517
H95   H     H_    0.364650 0.201095 0.930366 0.148387
H96   H     H_    0.316201 0.173399 0.986821 0.132474
H97   H     H_    0.420454 0.219366 0.985847 0.153663
H98   H     H_    0.313212 0.330280 0.011253 0.145705
H99   H     H_    0.257316 0.319355 0.957302 0.138919
H100  H     H_    0.715959 0.251447 0.069835 0.147512
H101  H     H_    0.772479 0.235771 0.014427 0.131930
H102  H     H_    0.802781 0.365822 0.588480 0.104193
H103  H     H_    0.660986 0.255001 0.013227 0.154226
H104  H     H_    0.742049 0.389302 0.989250 0.144521
H105  H     H_    0.796322 0.392104 0.043917 0.139518
H106  H     H_    0.175509 0.668681 0.460727 0.163301
H107  H     H_    0.075185 0.722171 0.451364 0.146400
H108  H     H_    0.153877 0.777697 0.486950 0.125784
H109  H     H_    0.055947 0.719284 0.542770 0.133072
H110  H     H_    0.145395 0.650614 0.547882 0.140105
H111  H     H_    0.835325 0.393607 0.415305 0.162741
H112  H     H_    0.932909 0.342128 0.396638 0.144283
N1    N     N_R   0.506045 0.490951 0.199029 -0.387970
N2    N     N_R   0.514611 0.485278 0.799515 -0.389019
N3    N     N_1   0.500000 0.276710 0.500000 -0.192816
N4    N     N_1   0.500000 0.723290 0.500000 -0.191907
O1    O     O_R   0.380310 0.575320 0.500010 -0.489243
O2    O     O_2   0.648099 0.546830 0.799367 -0.557883
O3    O     O_2   0.378009 0.432133 0.794990 -0.510887
O4    O     O_2   0.650529 0.473354 0.204550 -0.514448
O5    O     O_R   0.619690 0.424680 0.499990 -0.486395
O6    O     O_R   0.619690 0.575320 0.499990 -0.493344
O7    O     O_R   0.380310 0.424680 0.500010 -0.490450
O8    O     O_R   0.500010 0.575330 0.430260 -0.483382
O9    O     O_R   0.499990 0.424670 0.569740 -0.486308
O10   O     O_R   0.499990 0.575330 0.569740 -0.487852
O11   O     O_R   0.500010 0.424670 0.430260 -0.485289
O12   O     O_2   0.362539 0.517123 0.198233 -0.555700

loop_
_geom_bond_atom_site_label_1
_geom_bond_atom_site_label_2
_ccdc_geom_bond_type
C109  H54   S    
C58   C62   A    
C87   C88   A    
C63   C65   S    
C69   C116  A    
C45   H1    S    
C102  H39   S    
C114  H62   S    
C62   C96   S    
Cu1   O10   S    
C3    H75   S    
C97   H18   S    
C123  H70   S    
C111  C112  S    
C95   H17   S    
C13   C43   S    
C55   C56   T    
C44   O10   A    
C112  H59   S    
C104  C106  S    
C114  C115  A    
C67   N1    A    
C3    C126  S    
C27   H111  S    
C7    C8    A    
C112  H56   S    
C85   C86   A    
C39   O6    A    
C124  H71   S    
C77   C89   S    
C59   C64   A    
C4    H83   S    
C60   C63   A    
C32   C36   A    
C30   C48   S    
C28   C29   S    
C35   C37   A    
C19   H98   S    
C76   C78   A    
Cu1   O8    S    
C60   C98   S    
C30   C31   S    
C23   H109  S    
C78   C80   A    
C44   O9    A    
C23   C49   S    
C22   H100  S    
C66   N3    T    
C126  H77   S    
C73   C126  S    
C39   C57   S    
C46   C105  A    
Cu2   O11   S    
C30   H16   S    
C80   N1    S    
C67   C72   A    
C97   H19   S    
C118  H65   S    
C50   C72   A    
C118  C119  A    
C92   C93   A    
C12   C42   S    
C85   H47   S    
C5    H78   S    
C113  C119  A    
C43   O8    A    
C48   C51   A    
C21   H105  S    
C22   H103  S    
C19   C20   S    
C110  H53   S    
C68   N2    A    
C8    C9    A    
C115  C117  A    
C6    C41   S    
C108  H46   S    
C62   C64   A    
C107  C108  S    
C14   H89   S    
C100  H33   S    
Cu1   O1    S    
C32   C38   A    
C9    C10   A    
C50   C116  A    
C84   H36   S    
C2    C61   A    
C11   H88   S    
C104  H44   S    
C115  H63   S    
C109  H55   S    
C77   C79   A    
C29   H6    S    
C105  C111  S    
C4    H82   S    
C101  H29   S    
C59   C60   A    
C93   C95   A    
C21   C22   S    
C107  H49   S    
C59   C100  S    
C73   C75   A    
C88   H80   S    
C45   C94   A    
C73   C81   A    
C71   C80   A    
C52   C54   S    
C27   H112  S    
C33   C34   A    
C21   C40   S    
C53   C55   S    
C7    H84   S    
C48   C53   A    
C65   N4    T    
C98   H28   S    
Cu2   O7    S    
C121  C122  A    
C28   H9    S    
C91   H102  S    
C78   C104  S    
C51   C52   A    
C33   C40   A    
C32   C35   A    
C10   H87   S    
C123  C124  A    
C28   H10   S    
C84   C85   A    
C125  H72   S    
C38   C41   A    
C47   C49   A    
C8    H85   S    
C61   C83   A    
C76   C82   S    
C112  H57   S    
C79   C81   A    
C23   H110  S    
C120  C125  A    
C16   C17   A    
C99   H26   S    
C126  H76   S    
C67   O12   S    
C21   H104  S    
C99   H23   S    
Cu1   Cu2   S    
C33   C37   A    
C20   H97   S    
C83   C105  A    
C106  H40   S    
C81   N2    S    
C89   C95   A    
C92   H2    S    
C117  H64   S    
C5    H79   S    
C100  H32   S    
C69   O4    S    
C103  H37   S    
C39   O5    A    
C13   C76   A    
C110  H52   S    
C96   H22   S    
C96   C97   S    
C29   H8    S    
C12   C18   A    
C17   C18   A    
C20   H96   S    
C79   C107  S    
C15   H90   S    
C75   C113  S    
C25   H107  S    
C90   H91   S    
C47   C52   A    
C104  H43   S    
C111  H60   S    
C28   C47   S    
C42   C116  A    
C29   H7    S    
C24   C44   S    
C12   C14   A    
C25   H106  S    
C86   H58   S    
C82   C84   A    
C34   C46   A    
C107  H50   S    
C26   C27   S    
C3    H73   S    
C97   H20   S    
C87   H69   S    
C27   H3    S    
C31   H11   S    
C36   C61   A    
Cu2   O9    S    
C108  H45   S    
C6    C11   A    
C93   H13   S    
C120  C121  A    
C113  C114  A    
C43   O11   A    
C58   C63   A    
C3    H74   S    
C46   H25   S    
C98   H27   S    
C103  H34   S    
C86   C87   A    
C68   C83   A    
C1    C56   S    
Cu1   N4    S    
C122  H68   S    
C4    C5    S    
C101  H30   S    
C71   C74   A    
C1    O7    A    
C24   C75   A    
C111  H61   S    
C6    C7    A    
C9    H86   S    
C5    H81   S    
C99   H24   S    
C70   O3    S    
C94   C109  S    
C103  H35   S    
Cu2   O5    S    
Cu1   O6    S    
C68   O2    S    
C119  H66   S    
C31   H14   S    
C89   C90   A    
C72   C94   A    
C26   H5    S    
C1    O1    A    
C26   C51   S    
C70   N2    A    
C19   H99   S    
C37   C50   A    
C69   N1    A    
C90   C91   A    
C22   H101  S    
C2    C70   A    
C110  H51   S    
C58   C102  S    
C82   C88   A    
C96   H21   S    
C108  H48   S    
C40   C42   A    
C100  C101  S    
C106  H41   S    
C20   H95   S    
C121  H67   S    
C16   H92   S    
C34   C36   A    
C23   C25   S    
C26   H4    S    
C102  C103  S    
C18   H94   S    
C49   C53   A    
C17   H93   S    
C10   C11   A    
C30   H15   S    
C74   C120  S    
C24   C77   A    
C19   C38   S    
C13   C74   A    
C101  H31   S    
C102  H38   S    
C98   C99   S    
C106  H42   S    
C109  C110  S    
C122  C123  A    
Cu2   N3    S    
C14   C15   A    
C2    C41   A    
C31   H12   S    
C117  C118  A    
C25   H108  S    
C4    C71   S    
C91   C92   A    
C15   C16   A    
C64   C66   S    
C124  C125  A    
C54   C57   T    
C35   C45   A    
