data_mof_unit_41319.cif
_audit_creation_date              2012-12-11T17:47:25-0500
_audit_creation_method            fapswitch 2.2
_symmetry_space_group_name_H-M    P1
_symmetry_Int_Tables_number       1
_space_group_crystal_system       triclinic
_cell_length_a                    14.865728
_cell_length_b                    14.891225
_cell_length_c                    15.140671
_cell_angle_alpha                 110.428363
_cell_angle_beta                  109.013123
_cell_angle_gamma                 108.753951
_cell_volume                      2586.5626212

loop_
_atom_site_label
_atom_site_type_symbol
_atom_type_description
_atom_site_fract_x
_atom_site_fract_y
_atom_site_fract_z
_atom_type_partial_charge
C1    C     C_R   0.973178 0.247225 0.060628 -0.125711
C2    C     C_R   0.064319 0.139790 0.161629 -0.235020
C3    C     C_R   0.144254 0.022502 0.788820 -0.148650
C4    C     C_R   0.909001 0.933999 0.295779 -0.123251
C5    C     C_R   0.113567 0.034601 0.868243 -0.163806
C6    C     C_R   0.990629 0.996384 0.282008 -0.193921
C7    C     C_R   0.609688 0.308794 0.114239 -0.129397
C8    C     C_R   0.326809 0.680046 0.807366 -0.124465
C9    C     C_R   0.697992 0.386631 0.218030 -0.133327
C10   C     C_R   0.222086 0.612088 0.716880 -0.116462
C11   C     C_R   0.743271 0.353035 0.288891 0.116424
C12   C     C_R   0.093148 0.806103 0.008247 -0.145661
C13   C     C_R   0.155722 0.657003 0.687096 0.116424
C14   C     C_R   0.694118 0.240733 0.256447 -0.167942
C15   C     C_R   0.195500 0.770517 0.748825 -0.190781
C16   C     C_R   0.315427 0.758968 0.225013 -0.130347
C17   C     C_R   0.704889 0.194360 0.794355 -0.136653
C18   C     C_R   0.603765 0.163200 0.153213 -0.108516
C19   C     C_R   0.300011 0.838040 0.839628 -0.103528
C20   C     C_R   0.562543 0.197028 0.081600 -0.102219
C21   C     C_R   0.365727 0.792814 0.868842 -0.112857
C22   C     C_R   0.855234 0.436168 0.487714 -0.252458
C23   C     C_R   0.323913 0.787035 0.326991 0.050254
C24   C     C_R   0.035541 0.584201 0.496967 -0.253840
C25   C     C_R   0.953720 0.510159 0.585023 0.074429
C26   C     C_R   0.939331 0.507756 0.398921 0.067286
C27   C     C_R   0.045123 0.585378 0.590226 0.012636
C28   C     C_R   0.846701 0.433847 0.392740 0.021566
C29   C     C_R   0.187190 0.120990 0.975836 0.110696
C30   C     C_R   0.964262 0.991213 0.182113 0.120499
C31   C     C_R   0.320984 0.182441 0.922367 -0.142313
C32   C     C_R   0.772412 0.875375 0.116684 -0.142395
C33   C     C_R   0.223675 0.014120 0.511107 -0.123580
C34   C     C_R   0.703409 0.129665 0.701500 0.065060
C35   C     C_R   0.916212 0.033848 0.607907 -0.140101
C36   C     C_R   0.310977 0.999259 0.508486 -0.128083
C37   C     C_R   0.814038 0.984871 0.599512 -0.148396
C38   C     C_R   0.332368 0.924151 0.534923 0.107189
C39   C     C_R   0.722691 0.974977 0.521100 0.121117
C40   C     C_R   0.214360 0.409390 0.909188 -0.153570
C41   C     C_R   0.775687 0.592440 0.025562 -0.149545
C42   C     C_R   0.268217 0.867469 0.568301 -0.186989
C43   C     C_R   0.733576 0.007730 0.446821 -0.190662
C44   C     C_R   0.177045 0.878016 0.564487 -0.136714
C45   C     C_R   0.307626 0.501993 0.944125 0.030121
C46   C     C_R   0.836193 0.057472 0.456426 -0.119209
C47   C     C_R   0.154683 0.951128 0.535809 -0.122885
C48   C     C_R   0.927692 0.071608 0.537693 -0.126979
C49   C     C_R   0.522565 0.978177 0.624891 -0.229654
C50   C     C_R   0.522596 0.865143 0.435357 -0.245127
C51   C     C_R   0.619646 0.013729 0.621058 0.053842
C52   C     C_R   0.423721 0.851640 0.432443 0.070293
C53   C     C_R   0.621599 0.949006 0.528067 0.028470
C54   C     C_R   0.424288 0.908505 0.530059 0.017666
C55   C     C_R   0.247764 0.097121 0.815798 -0.095820
C56   C     C_R   0.674556 0.500203 0.950825 0.027149
C57   C     C_R   0.799794 0.874508 0.213752 -0.103462
C58   C     C_R   0.050705 0.042640 0.160162 0.019280
C59   C     C_R   0.160539 0.119291 0.060730 0.022348
C60   C     C_R   0.291715 0.194624 0.002924 -0.159755
C61   C     C_R   0.854441 0.932468 0.100251 -0.146250
C62   C     C_R   0.101047 0.988365 0.115137 0.055492
C63   C     C_R   0.099145 0.165485 0.093636 0.061006
C64   C     C_R   0.999851 0.592359 0.300724 -0.176315
C65   C     C_R   0.943998 0.409066 0.685964 -0.142741
C66   C     C_3   0.463554 0.397518 0.880135 -0.165296
C67   C     C_R   0.947073 0.501777 0.305661 0.061479
C68   C     C_3   0.509221 0.607596 0.983689 -0.180145
C69   C     C_3   0.405940 0.450563 0.828847 -0.150355
C70   C     C_3   0.565840 0.554545 0.034526 -0.142796
C71   C     C_3   0.400019 0.504037 0.931805 0.191301
C72   C     C_3   0.573255 0.500758 0.932237 0.196890
C73   C     C_3   0.456277 0.451620 0.982812 -0.154275
C74   C     C_3   0.518167 0.554251 0.881161 -0.163878
C75   C     C_R   0.304189 0.592829 0.002494 -0.128194
C76   C     C_R   0.684825 0.407817 0.934299 -0.130936
C77   C     C_R   0.913420 0.408988 0.212211 -0.127020
C78   C     C_R   0.963433 0.503305 0.679084 0.044708
C79   C     C_R   0.026803 0.593547 0.781585 -0.103910
C80   C     C_R   0.219505 0.748720 0.312050 -0.119450
C81   C     C_R   0.792407 0.196809 0.700370 -0.143307
C82   C     C_R   0.068205 0.250635 0.972195 -0.139011
C83   C     C_R   0.002751 0.803736 0.099306 -0.138708
C84   C     C_R   0.051506 0.221097 0.045468 0.056888
C85   C     C_R   0.064324 0.870242 0.073704 0.064168
C86   C     C_R   0.173289 0.042398 0.087524 -0.225767
H1    H     H_    0.937530 0.234018 0.109476 0.092925
H2    H     H_    0.192742 0.524793 0.670049 0.105255
H3    H     H_    0.567242 0.076650 0.127842 0.100655
H4    H     H_    0.329751 0.925234 0.887563 0.115912
H5    H     H_    0.786111 0.379580 0.485973 0.132653
H6    H     H_    0.107411 0.637448 0.499594 0.134951
H7    H     H_    0.033851 0.974700 0.846896 0.116481
H8    H     H_    0.074690 0.042371 0.345496 0.112235
H9    H     H_    0.430690 0.414114 0.028162 0.116889
H10   H     H_    0.546349 0.596089 0.839784 0.112840
H11   H     H_    0.380929 0.776074 0.206209 0.091156
H12   H     H_    0.152163 0.833812 0.983690 0.097076
H13   H     H_    0.658516 0.167504 0.830828 0.088235
H14   H     H_    0.350961 0.258946 0.086151 0.121452
H15   H     H_    0.832870 0.929135 0.023147 0.113491
H16   H     H_    0.085401 0.960745 0.535181 0.102022
H17   H     H_    0.007503 0.111818 0.546240 0.104327
H18   H     H_    0.209891 0.074626 0.494226 0.099951
H19   H     H_    0.987197 0.046802 0.671645 0.124015
H20   H     H_    0.362254 0.046427 0.486339 0.112663
H21   H     H_    0.807437 0.961437 0.658236 0.112834
H22   H     H_    0.285348 0.811123 0.591231 0.128459
H23   H     H_    0.087924 0.954635 0.706734 0.105957
H24   H     H_    0.664416 0.002086 0.386728 0.113226
H25   H     H_    0.123206 0.829365 0.583160 0.113678
H26   H     H_    0.845159 0.087242 0.402335 0.126708
H27   H     H_    0.519086 0.020938 0.696714 0.123802
H28   H     H_    0.523258 0.817834 0.362836 0.125295
H29   H     H_    0.221638 0.009167 0.063307 0.126965
H30   H     H_    0.027674 0.181216 0.198717 0.126172
H31   H     H_    0.337341 0.408477 0.745105 0.106654
H32   H     H_    0.632687 0.596999 0.119350 0.109591
H33   H     H_    0.445191 0.311194 0.835668 0.102595
H34   H     H_    0.930523 0.930598 0.369429 0.125201
H35   H     H_    0.525481 0.693333 0.026420 0.097231
H36   H     H_    0.187783 0.325499 0.852015 0.108730
H37   H     H_    0.794653 0.677379 0.060353 0.125290
H38   H     H_    0.358638 0.677526 0.030883 0.089344
H39   H     H_    0.621046 0.322746 0.885092 0.093982
H40   H     H_    0.193373 0.745794 0.369139 0.124207
H41   H     H_    0.823023 0.176456 0.645733 0.134303
H42   H     H_    0.123760 0.245586 0.942526 0.124380
H43   H     H_    0.983969 0.827218 0.163219 0.128534
H44   H     H_    0.272575 0.088470 0.755104 0.129223
H45   H     H_    0.401481 0.236870 0.942338 0.104909
H46   H     H_    0.736618 0.827461 0.225244 0.110659
H47   H     H_    0.494708 0.136440 0.000699 0.105773
H48   H     H_    0.446694 0.845044 0.939129 0.093837
H49   H     H_    0.727907 0.212804 0.309430 0.107847
H50   H     H_    0.144300 0.805876 0.728661 0.115289
H51   H     H_    0.023814 0.676486 0.354333 0.115572
H52   H     H_    0.900677 0.324878 0.620301 0.105845
H53   H     H_    0.860539 0.324547 0.185766 0.108109
H54   H     H_    0.055699 0.678923 0.805005 0.108822
H55   H     H_    0.688129 0.829786 0.053089 0.109276
H56   H     H_    0.579908 0.335864 0.059048 0.108738
H57   H     H_    0.377835 0.645309 0.829670 0.116834
H58   H     H_    0.733915 0.472741 0.241507 0.111037
N1    N     N_R   0.947560 0.293820 0.002910 -0.041732
N2    N     N_R   0.789450 0.443190 0.997090 -0.037718
N3    N     N_R   0.945970 0.443180 0.152110 -0.039639
N4    N     N_R   0.054030 0.556820 0.847890 -0.040690
N5    N     N_R   0.151530 0.706170 0.208880 -0.043448
N6    N     N_R   0.848470 0.293830 0.791120 -0.041548
N7    N     N_R   0.004980 0.293810 0.946140 -0.041409
N8    N     N_R   0.995020 0.706190 0.053860 -0.042352
N9    N     N_R   0.052440 0.706180 0.997090 -0.040899
N10   N     N_R   0.208960 0.706170 0.152110 -0.040358
N11   N     N_R   0.791040 0.293830 0.847890 -0.038910
N12   N     N_R   0.154330 0.443160 0.946140 -0.039087
N13   N     N_R   0.845670 0.556840 0.053860 -0.039938
N14   N     N_R   0.002190 0.556820 0.208880 -0.038479
N15   N     N_R   0.997810 0.443180 0.791120 -0.040589
N16   N     N_R   0.210550 0.556810 0.002910 -0.036612
Ni1   Ni    Ni4+2 0.869690 0.369690 0.000000 0.213646
Ni2   Ni    Ni4+2 0.130310 0.630310 0.000000 0.217628
Ni3   Ni    Ni4+2 0.001390 0.369680 0.869810 0.215641
Ni4   Ni    Ni4+2 0.998610 0.630320 0.130190 0.214126

loop_
_geom_bond_atom_site_label_1
_geom_bond_atom_site_label_2
_ccdc_geom_bond_type
C75   N16   A    
C1    H1    S    
C49   H27   S    
C58   C62   A    
C56   C76   A    
C46   H26   S    
C45   C71   S    
C33   H18   S    
C14   C18   A    
C57   H46   S    
C1    N1    A    
C67   C77   A    
C24   C27   A    
C12   N9    A    
C65   N15   A    
N2    N13   A    
N11   Ni1   S    
C1    C84   A    
C15   C19   A    
N6    Ni3   S    
C62   C86   A    
C10   H2    S    
C34   C51   S    
C80   H40   S    
C12   C85   A    
C26   C67   S    
C19   C21   A    
C24   C26   A    
C32   C61   A    
C83   H43   S    
C31   C55   A    
C11   C14   A    
C16   H11   S    
C66   C69   S    
C14   H49   S    
C68   C74   S    
C81   N6    A    
C66   H33   S    
C33   C36   A    
C69   C71   S    
C82   C84   A    
C31   H45   S    
C2    H30   S    
C66   C72   S    
C29   C59   S    
N12   Ni3   S    
C49   C51   A    
C22   C25   A    
C4    C57   A    
C50   C52   A    
C22   H5    S    
C43   H24   S    
C20   H47   S    
C77   N3    A    
C12   H12   S    
C82   N7    A    
C44   C47   A    
N14   Ni4   S    
C79   H54   S    
C76   N2    A    
C47   H16   S    
C22   C28   A    
C81   H41   S    
C76   H39   S    
C80   N5    A    
C42   C44   A    
C32   C57   A    
C35   C48   A    
C24   H6    S    
C26   C28   A    
N2    Ni1   S    
C9    H58   S    
C52   C54   A    
C5    C29   A    
C64   H51   S    
C40   C45   A    
C62   C85   S    
C46   C48   A    
C50   C53   A    
C36   H20   S    
C75   H38   S    
C64   C67   A    
C74   H10   S    
N12   N16   A    
C4    C6    A    
N3    Ni1   S    
C71   C73   S    
C78   C79   A    
C39   C43   A    
C15   H50   S    
C6    H8    S    
C48   H17   S    
C6    C30   A    
C25   C78   S    
C86   H29   S    
C50   H28   S    
N4    N15   A    
N16   Ni2   S    
C31   C60   A    
C61   H15   S    
N5    N10   A    
C44   H25   S    
C41   C56   A    
C35   H19   S    
C9    C11   A    
C40   N12   A    
C38   C54   S    
C29   C60   A    
C55   H44   S    
C70   C73   S    
C8    C21   A    
C69   C74   S    
N5    Ni4   S    
N1    N7    A    
C17   H13   S    
N13   Ni4   S    
C82   H42   S    
C32   H55   S    
N8    Ni4   S    
C41   N13   A    
C65   H52   S    
C72   C74   S    
C83   C85   A    
C16   C23   A    
N7    Ni3   S    
N6    N11   A    
C13   C15   A    
C16   N10   A    
C23   C80   A    
N15   Ni3   S    
C17   C34   A    
C73   H9    S    
C17   N11   A    
C3    C5    A    
C21   H48   S    
C2    C63   A    
C35   C37   A    
C83   N8    A    
C7    C9    A    
C65   C78   A    
C56   C72   S    
C18   H3    S    
C59   C63   A    
N10   Ni2   S    
C4    H34   S    
C77   H53   S    
C60   H14   S    
C10   C13   A    
C68   H35   S    
C5    H7    S    
C2    C58   A    
C37   H21   S    
C79   N4    A    
C25   C27   A    
C40   H36   S    
C63   C84   S    
C3    C55   A    
N9    Ni2   S    
C45   C75   A    
N4    Ni2   S    
C41   H37   S    
C36   C38   A    
C59   C86   A    
C37   C39   A    
C19   H4    S    
C66   C73   S    
C23   C52   S    
C39   C53   S    
N1    Ni1   S    
C11   C28   S    
C3    H23   S    
C68   C71   S    
C33   C47   A    
C30   C58   S    
C69   H31   S    
C8    H57   S    
C18   C20   A    
C7    H56   S    
C43   C46   A    
C38   C42   A    
C70   H32   S    
N8    N9    A    
C8    C10   A    
C7    C20   A    
C30   C61   A    
C64   N14   A    
C68   C70   S    
C13   C27   S    
C70   C72   S    
C51   C53   A    
N3    N14   A    
C42   H22   S    
C34   C81   A    
C49   C54   A    
