data_mof_unit_23399.cif
_audit_creation_date              2012-12-10T16:42:34-0500
_audit_creation_method            fapswitch 2.2
_symmetry_space_group_name_H-M    P1
_symmetry_Int_Tables_number       1
_space_group_crystal_system       triclinic
_cell_length_a                    7.607753
_cell_length_b                    8.723361
_cell_length_c                    11.040651
_cell_angle_alpha                 86.420456
_cell_angle_beta                  71.417872
_cell_angle_gamma                 102.377601
_cell_volume                      671.575605307

loop_
_atom_site_label
_atom_site_type_symbol
_atom_type_description
_atom_site_fract_x
_atom_site_fract_y
_atom_site_fract_z
_atom_type_partial_charge
C1    C     C_R   0.452384 0.200352 0.506079 0.810083
C2    C     C_2   0.575086 0.968122 0.479421 0.265350
C3    C     C_3   0.895711 0.307895 0.610584 -0.029831
C4    C     C_3   0.924767 0.266204 0.737979 -0.812011
C5    C     C_3   0.104292 0.692107 0.389429 -0.029871
C6    C     C_3   0.075211 0.733850 0.262055 -0.812018
C7    C     C_R   0.547616 0.799650 0.493920 0.810070
C8    C     C_R   0.421814 0.491961 0.742771 0.837372
C9    C     C_R   0.578185 0.508040 0.257227 0.837357
C10   C     C_2   0.378374 0.487389 0.881737 -0.330328
C11   C     C_2   0.621628 0.512616 0.118263 -0.330330
C12   C     C_2   0.519989 0.502538 0.930893 -0.146721
C13   C     C_2   0.480016 0.497486 0.069105 -0.146729
C14   C     C_2   0.424915 0.031876 0.520582 0.265353
Cu1   Cu    Cu3+1 0.688910 0.517800 0.485820 0.975938
Cu2   Cu    Cu3+1 0.311090 0.482200 0.514180 0.975938
F1    F     F_    0.244206 0.941905 0.584754 -0.685989
F2    F     F_    0.755801 0.058095 0.415257 -0.685980
H1    H     H_    0.332184 0.480926 0.131134 0.190729
H2    H     H_    0.073166 0.630973 0.207708 0.243447
H3    H     H_    0.944415 0.776730 0.276567 0.287996
H4    H     H_    0.196834 0.832424 0.201465 0.208971
H5    H     H_    0.087104 0.790564 0.447390 0.236089
H6    H     H_    0.251681 0.685057 0.356819 0.198664
H7    H     H_    0.667823 0.519111 0.868861 0.190727
H8    H     H_    0.769222 0.528510 0.055971 0.150603
H9    H     H_    0.230776 0.471481 0.944029 0.150605
H10   H     H_    0.055546 0.223305 0.723500 0.287965
H11   H     H_    0.926815 0.369118 0.792291 0.243455
H12   H     H_    0.803123 0.167655 0.798586 0.208958
H13   H     H_    0.748318 0.314929 0.643167 0.198658
H14   H     H_    0.912911 0.209413 0.552651 0.236060
N1    N     N_2   0.027170 0.455360 0.535550 -0.073223
N2    N     N_2   0.972830 0.544640 0.464450 -0.073224
O1    O     O_R   0.622710 0.286400 0.490790 -0.587291
O2    O     O_R   0.377290 0.713600 0.509210 -0.587296
O3    O     O_R   0.303660 0.256330 0.514730 -0.557961
O4    O     O_R   0.696340 0.743670 0.485270 -0.557972
O5    O     O_R   0.600900 0.509520 0.671740 -0.605456
O6    O     O_R   0.399100 0.490480 0.328260 -0.605458
O7    O     O_R   0.281840 0.479450 0.695690 -0.576351
O8    O     O_R   0.718160 0.520550 0.304310 -0.576345

loop_
_geom_bond_atom_site_label_1
_geom_bond_atom_site_label_2
_ccdc_geom_bond_type
C10   H9    S    
Cu1   O4    S    
C8    O5    A    
Cu2   N1    S    
C2    F2    S    
C6    H2    S    
C7    O2    A    
C12   H7    S    
Cu1   N2    S    
C4    H11   S    
C5    H5    S    
C1    O3    A    
Cu2   O3    S    
C5    N2    S    
N1    N2    D    
Cu2   O2    S    
C3    H13   S    
C12   C13   S    
C9    C11   S    
C14   F1    S    
Cu1   O5    S    
C9    O8    A    
C3    H14   S    
C5    H6    S    
C10   C12   D    
Cu2   O6    S    
Cu1   O1    S    
C4    H10   S    
C7    O4    A    
C2    C7    S    
C5    C6    S    
C2    C14   D    
C3    N1    S    
Cu1   Cu2   S    
C6    H4    S    
C11   C13   D    
C8    O7    A    
C1    O1    A    
C8    C10   S    
C13   H1    S    
C1    C14   S    
C11   H8    S    
C6    H3    S    
Cu2   O7    S    
C9    O6    A    
C4    H12   S    
C3    C4    S    
Cu1   O8    S    
