data_mof_unit_34370.cif
_audit_creation_date              2012-12-11T15:39:19-0500
_audit_creation_method            fapswitch 2.2
_symmetry_space_group_name_H-M    P1
_symmetry_Int_Tables_number       1
_space_group_crystal_system       triclinic
_cell_length_a                    17.310364
_cell_length_b                    24.288046
_cell_length_c                    14.949323
_cell_angle_alpha                 90.010718
_cell_angle_beta                  125.547699
_cell_angle_gamma                 89.886855
_cell_volume                      5113.83917903

loop_
_atom_site_label
_atom_site_type_symbol
_atom_type_description
_atom_site_fract_x
_atom_site_fract_y
_atom_site_fract_z
_atom_type_partial_charge
C1    C     C_R   0.352920 0.347678 0.909087 -0.139373
C2    C     C_R   0.434937 0.500063 0.632536 0.050736
C3    C     C_R   0.185553 0.857708 0.002281 0.042744
C4    C     C_2   0.954019 0.596433 0.387300 0.539481
C5    C     C_2   0.059393 0.654584 0.661621 0.554734
C6    C     C_2   0.452535 0.095510 0.386275 0.545995
C7    C     C_2   0.559593 0.154632 0.660414 0.552835
C8    C     C_R   0.069603 0.999931 0.368090 0.042170
C9    C     C_R   0.020095 0.999962 0.693216 0.045729
C10   C     C_R   0.175164 0.501329 0.728243 0.074585
C11   C     C_R   0.804121 0.500617 0.366233 0.134168
C12   C     C_R   0.674982 0.001337 0.727683 0.073661
C13   C     C_R   0.303667 0.000630 0.366607 0.132825
C14   C     C_R   0.022728 0.553474 0.624528 0.177909
C15   C     C_R   0.932964 0.552153 0.527851 0.145104
C16   C     C_R   0.522517 0.053514 0.624338 0.180326
C17   C     C_R   0.690277 0.375713 0.092294 -0.113232
C18   C     C_R   0.432406 0.052226 0.528109 0.144031
C19   C     C_R   0.072284 0.503878 0.670959 0.018922
C20   C     C_R   0.885567 0.502507 0.481033 0.047629
C21   C     C_R   0.572074 0.003897 0.670596 0.019442
C22   C     C_R   0.384885 0.002576 0.481550 0.046240
C23   C     C_R   0.018899 0.454948 0.639390 -0.175483
C24   C     C_R   0.925298 0.454313 0.544515 -0.198429
C25   C     C_R   0.518612 0.955005 0.639458 -0.173184
C26   C     C_R   0.424740 0.954403 0.545052 -0.195772
C27   C     C_3   0.947273 0.603583 0.483033 -0.330170
C28   C     C_R   0.850995 0.848234 0.908976 -0.140773
C29   C     C_3   0.045684 0.606068 0.590750 -0.362967
C30   C     C_3   0.446707 0.103364 0.482547 -0.334962
C31   C     C_3   0.545376 0.105872 0.589812 -0.359388
C32   C     C_R   0.294525 0.768875 0.902887 -0.162225
C33   C     C_R   0.840633 0.687316 0.100213 -0.147890
C34   C     C_R   0.790243 0.268000 0.901385 -0.158646
C35   C     C_R   0.338550 0.191183 0.102930 -0.150885
C36   C     C_R   0.743063 0.314030 0.901355 -0.155002
C37   C     C_R   0.390100 0.234212 0.102512 -0.172065
C38   C     C_R   0.243690 0.812653 0.903482 -0.152869
C39   C     C_R   0.189090 0.873753 0.093463 -0.117828
C40   C     C_R   0.887803 0.733193 0.100398 -0.173506
C41   C     C_R   0.761979 0.333060 0.000765 0.141069
C42   C     C_R   0.360827 0.258428 0.002328 0.141567
C43   C     C_R   0.259802 0.829012 0.002961 0.143718
C44   C     C_R   0.855663 0.759238 0.000798 0.141591
C45   C     C_R   0.444868 0.652201 0.091648 -0.138346
C46   C     C_R   0.597967 0.624405 0.908196 -0.128793
C47   C     C_R   0.941906 0.151396 0.091981 -0.118744
C48   C     C_R   0.094747 0.130806 0.910170 -0.126955
C49   C     C_R   0.842583 0.313787 0.100364 -0.156252
C50   C     C_R   0.385406 0.684712 0.000811 0.058483
C51   C     C_R   0.294457 0.231368 0.903497 -0.158750
C52   C     C_R   0.341067 0.810511 0.102541 -0.157645
C53   C     C_R   0.789316 0.732543 0.901316 -0.157649
C54   C     C_R   0.392389 0.767081 0.102033 -0.170739
C55   C     C_R   0.742404 0.686477 0.901336 -0.165135
C56   C     C_R   0.889892 0.267760 0.100500 -0.171118
C57   C     C_R   0.243654 0.187665 0.904117 -0.165027
C58   C     C_R   0.361941 0.742194 0.001951 0.137289
C59   C     C_R   0.760970 0.667617 0.000686 0.143185
C60   C     C_R   0.857237 0.241452 0.000955 0.137672
C61   C     C_R   0.687961 0.637444 0.000422 0.043574
C62   C     C_R   0.258761 0.171862 0.003347 0.145320
C63   C     C_R   0.394064 0.549997 0.465532 -0.164982
C64   C     C_R   0.396020 0.549983 0.374287 -0.161851
C65   C     C_R   0.086413 0.049805 0.608519 -0.163591
C66   C     C_R   0.105430 0.049763 0.530918 -0.158527
C67   C     C_R   0.407583 0.500141 0.336014 0.142261
C68   C     C_R   0.402620 0.500125 0.517869 0.143088
C69   C     C_R   0.102116 0.999889 0.481878 0.136072
C70   C     C_R   0.065819 0.999918 0.637337 0.147614
C71   C     C_R   0.395946 0.450323 0.374175 -0.165434
C72   C     C_R   0.881410 0.183824 0.000812 0.051978
C73   C     C_R   0.394002 0.450291 0.465427 -0.165702
C74   C     C_R   0.105494 0.950001 0.530921 -0.166378
C75   C     C_R   0.086477 0.949990 0.608523 -0.165558
C76   C     C_R   0.480829 0.453937 0.249123 -0.127687
C77   C     C_R   0.450794 0.454330 0.696207 -0.139889
C78   C     C_R   0.050704 0.954100 0.303802 -0.123457
C79   C     C_R   0.996446 0.954164 0.726943 -0.128141
C80   C     C_R   0.233661 0.546443 0.758081 -0.133432
C81   C     C_R   0.754023 0.545895 0.303329 -0.100743
C82   C     C_R   0.733520 0.046442 0.757600 -0.131558
C83   C     C_R   0.184996 0.142696 0.002431 0.043512
C84   C     C_R   0.253754 0.045886 0.303519 -0.106553
C85   C     C_R   0.480810 0.546142 0.249102 -0.124118
C86   C     C_R   0.450838 0.545733 0.696292 -0.135556
C87   C     C_R   0.050645 0.045804 0.303770 -0.124302
C88   C     C_R   0.996616 0.045801 0.727184 -0.124538
C89   C     C_R   0.230812 0.454589 0.751219 -0.111273
C90   C     C_R   0.756394 0.454552 0.303718 -0.135266
C91   C     C_R   0.730701 0.954605 0.750873 -0.108895
C92   C     C_R   0.256188 0.954568 0.303936 -0.131356
C93   C     C_R   0.354138 0.652792 0.909245 -0.136834
C94   C     C_R   0.450242 0.500083 0.275587 0.043780
C95   C     C_R   0.690076 0.624348 0.092380 -0.106442
C96   C     C_R   0.852475 0.152358 0.909268 -0.138048
C97   C     C_R   0.188793 0.126385 0.093644 -0.110819
C98   C     C_R   0.444669 0.347915 0.091744 -0.138258
C99   C     C_R   0.598216 0.375747 0.908202 -0.111305
C100  C     C_R   0.941435 0.848756 0.091981 -0.119141
C101  C     C_R   0.095022 0.869380 0.910112 -0.112756
C102  C     C_R   0.384425 0.315723 0.000818 0.052779
C103  C     C_R   0.688417 0.362837 0.000449 0.041532
C104  C     C_R   0.880020 0.816720 0.000608 0.046008
H1    H     H_    0.314880 0.333902 0.824894 0.089570
H2    H     H_    0.860536 0.671636 0.178357 0.101191
H3    H     H_    0.767108 0.250794 0.822865 0.102001
H4    H     H_    0.355551 0.177787 0.181176 0.098280
H5    H     H_    0.685527 0.330480 0.822894 0.108656
H6    H     H_    0.445057 0.251866 0.180847 0.104847
H7    H     H_    0.186239 0.829516 0.825357 0.104443
H8    H     H_    0.942699 0.750730 0.178932 0.105184
H9    H     H_    0.863455 0.330069 0.178731 0.113273
H10   H     H_    0.274545 0.246875 0.824970 0.110854
H11   H     H_    0.359800 0.825119 0.181086 0.112331
H12   H     H_    0.748254 0.370539 0.177633 0.096065
H13   H     H_    0.766644 0.749590 0.822809 0.110583
H14   H     H_    0.448511 0.749806 0.180353 0.108703
H15   H     H_    0.685425 0.669786 0.822949 0.110290
H16   H     H_    0.945505 0.250356 0.178982 0.108563
H17   H     H_    0.187071 0.170335 0.826141 0.106784
H18   H     H_    0.394939 0.589303 0.499943 0.105748
H19   H     H_    0.398243 0.589255 0.341904 0.109011
H20   H     H_    0.080097 0.089058 0.637837 0.103795
H21   H     H_    0.110734 0.089022 0.500887 0.108139
H22   H     H_    0.398099 0.411053 0.341696 0.108115
H23   H     H_    0.813425 0.834319 0.824940 0.091306
H24   H     H_    0.394832 0.410973 0.499756 0.108611
H25   H     H_    0.110851 0.910733 0.500899 0.104294
H26   H     H_    0.080216 0.910749 0.637857 0.104009
H27   H     H_    0.492074 0.665480 0.176053 0.084917
H28   H     H_    0.570536 0.629633 0.822949 0.093807
H29   H     H_    0.987101 0.164313 0.176835 0.083635
H30   H     H_    0.064487 0.144153 0.827619 0.083661
H31   H     H_    0.470795 0.411213 0.259369 0.093026
H32   H     H_    0.432520 0.412201 0.668673 0.089302
H33   H     H_    0.067620 0.911683 0.330049 0.082159
H34   H     H_    0.247262 0.869573 0.178963 0.096177
H35   H     H_    0.990886 0.912509 0.699669 0.086645
H36   H     H_    0.216757 0.588786 0.759518 0.094286
H37   H     H_    0.760840 0.587641 0.331842 0.070862
H38   H     H_    0.716449 0.088785 0.758598 0.094156
H39   H     H_    0.260231 0.087580 0.332122 0.068434
H40   H     H_    0.470738 0.588894 0.259322 0.094445
H41   H     H_    0.432591 0.587920 0.668845 0.083261
H42   H     H_    0.067532 0.088180 0.330020 0.084639
H43   H     H_    0.991304 0.087508 0.700254 0.082641
H44   H     H_    0.208814 0.412092 0.739486 0.093270
H45   H     H_    0.898656 0.637481 0.470753 0.130962
H46   H     H_    0.767568 0.412518 0.332498 0.081457
H47   H     H_    0.708593 0.912130 0.738948 0.093449
H48   H     H_    0.267169 0.912568 0.332837 0.078127
H49   H     H_    0.317132 0.666824 0.825255 0.076969
H50   H     H_    0.747946 0.629394 0.177791 0.087380
H51   H     H_    0.815951 0.166600 0.825486 0.078455
H52   H     H_    0.246799 0.130428 0.179242 0.086066
H53   H     H_    0.492147 0.334483 0.176082 0.084253
H54   H     H_    0.570872 0.370658 0.822972 0.095122
H55   H     H_    0.986737 0.835643 0.176766 0.083093
H56   H     H_    0.103714 0.601793 0.579755 0.118884
H57   H     H_    0.064794 0.856103 0.827588 0.089765
H58   H     H_    0.052078 0.416126 0.678748 0.124522
H59   H     H_    0.889166 0.415189 0.515514 0.121669
H60   H     H_    0.551852 0.916182 0.678742 0.124102
H61   H     H_    0.388499 0.915300 0.516229 0.119934
H62   H     H_    0.960910 0.632754 0.350522 -0.019289
H63   H     H_    0.114820 0.684230 0.684508 -0.026461
H64   H     H_    0.454863 0.131551 0.345363 -0.019943
H65   H     H_    0.614573 0.184365 0.682021 -0.026361
H66   H     H_    0.398417 0.137466 0.470289 0.129103
H67   H     H_    0.603086 0.101320 0.578337 0.121297
H68   H     H_    0.273624 0.752946 0.824273 0.101644
N1    N     N_R   0.394180 0.396910 0.943210 -0.038756
N2    N     N_R   0.474350 0.471570 0.793850 -0.038036
N3    N     N_R   0.025650 0.971570 0.206150 -0.039739
N4    N     N_R   0.974350 0.971570 0.793850 -0.038357
N5    N     N_R   0.319480 0.528420 0.793810 -0.042361
N6    N     N_R   0.680520 0.528420 0.206190 -0.043663
N7    N     N_R   0.819480 0.028420 0.793810 -0.043867
N8    N     N_R   0.180520 0.028420 0.206190 -0.042103
N9    N     N_R   0.525640 0.528390 0.206120 -0.043273
N10   N     N_R   0.474360 0.528390 0.793880 -0.037136
N11   N     N_R   0.025640 0.028390 0.206120 -0.039878
N12   N     N_R   0.605820 0.396910 0.056790 -0.041819
N13   N     N_R   0.974360 0.028390 0.793880 -0.038217
N14   N     N_R   0.319490 0.471590 0.793840 -0.042538
N15   N     N_R   0.680510 0.471590 0.206160 -0.041958
N16   N     N_R   0.819490 0.971590 0.793840 -0.043997
N17   N     N_R   0.180510 0.971590 0.206160 -0.041054
N18   N     N_R   0.394130 0.603080 0.943110 -0.038636
N19   N     N_R   0.605870 0.603080 0.056890 -0.042900
N20   N     N_R   0.894130 0.103080 0.943110 -0.039836
N21   N     N_R   0.105870 0.103080 0.056890 -0.042788
N22   N     N_R   0.450990 0.396900 0.056840 -0.037934
N23   N     N_R   0.894180 0.896910 0.943210 -0.039911
N24   N     N_R   0.549010 0.396900 0.943160 -0.041222
N25   N     N_R   0.950990 0.896900 0.056840 -0.039655
N26   N     N_R   0.049010 0.896900 0.943160 -0.039927
N27   N     N_R   0.105820 0.896910 0.056790 -0.041975
N28   N     N_R   0.450950 0.603070 0.056740 -0.037807
N29   N     N_R   0.549050 0.603070 0.943260 -0.040972
N30   N     N_R   0.950950 0.103070 0.056740 -0.039396
N31   N     N_R   0.049050 0.103070 0.943260 -0.039330
N32   N     N_R   0.525650 0.471570 0.206150 -0.042554
Ni1   Ni    Ni4+2 0.434860 0.434850 0.869700 0.218128
Ni2   Ni    Ni4+2 0.565140 0.434850 0.130300 0.211091
Ni3   Ni    Ni4+2 0.934860 0.934850 0.869700 0.221823
Ni4   Ni    Ni4+2 0.065140 0.934850 0.130300 0.208911
Ni5   Ni    Ni4+2 0.565130 0.565140 0.130240 0.211065
Ni6   Ni    Ni4+2 0.434870 0.565140 0.869760 0.210212
Ni7   Ni    Ni4+2 0.065130 0.065140 0.130240 0.208715
Ni8   Ni    Ni4+2 0.934870 0.065140 0.869760 0.213578
O1    O     O_2   0.956311 0.551002 0.353880 -0.566753
O2    O     O_2   0.008467 0.661495 0.692563 -0.573750
O3    O     O_2   0.459263 0.049877 0.357019 -0.565061
O4    O     O_2   0.509493 0.161668 0.692443 -0.573705

loop_
_geom_bond_atom_site_label_1
_geom_bond_atom_site_label_2
_ccdc_geom_bond_type
C89   H44   S    
C49   H9    S    
C91   N16   A    
C8    C78   A    
C26   H61   S    
C77   N2    A    
C87   H42   S    
C55   C59   A    
C27   C29   S    
C89   N14   A    
C12   C91   A    
C79   H35   S    
C11   C90   A    
C32   C58   A    
N30   Ni7   S    
C90   H46   S    
N2    N10   A    
C44   C104  S    
N18   N28   A    
C57   C62   A    
N16   Ni3   S    
C55   H15   S    
C93   N18   A    
C11   C81   A    
C45   N28   A    
C41   C103  S    
C13   C84   A    
C3    C43   S    
C8    C69   S    
C16   C21   A    
C78   H33   S    
C70   C75   A    
C34   H3    S    
N4    Ni3   S    
C48   H30   S    
C35   C37   A    
C81   N6    A    
C2    C68   S    
N8    N17   A    
C9    C88   A    
C46   H28   S    
C30   C31   S    
C72   C96   A    
C53   H13   S    
C43   C52   A    
C65   H20   S    
C66   C69   A    
C90   N15   A    
C60   C72   S    
C25   H60   S    
N11   Ni7   S    
C65   C70   A    
N10   Ni6   S    
C28   N23   A    
N12   Ni2   S    
C98   N22   A    
N9    Ni5   S    
C9    C79   A    
C97   H52   S    
C97   N21   A    
C37   C42   A    
C84   N8    A    
C30   H66   S    
C39   N27   A    
C35   H4    S    
C76   C94   A    
C44   C53   A    
N17   Ni4   S    
C46   N29   A    
N20   Ni8   S    
C6    O3    D    
C20   C24   A    
C10   C89   A    
C82   N7    A    
C92   H48   S    
C67   C94   S    
C23   C24   A    
C71   H22   S    
N26   N27   A    
C18   C30   S    
C77   H32   S    
C32   C38   A    
C67   C71   A    
C7    O4    D    
C28   H23   S    
C95   N19   A    
C42   C51   A    
C23   H58   S    
C100  N25   A    
C3    C101  A    
C81   H37   S    
C32   H68   S    
C39   H34   S    
C3    C39   A    
C27   H45   S    
C47   H29   S    
C34   C60   A    
C56   H16   S    
C36   C41   A    
N24   Ni1   S    
N3    Ni4   S    
C42   C102  S    
C85   H40   S    
C41   C49   A    
C76   H31   S    
C52   C54   A    
C29   H56   S    
C5    C29   S    
C53   C55   A    
C15   C20   A    
N22   Ni2   S    
C6    H64   S    
C11   C20   S    
C59   C61   S    
C51   H10   S    
C7    C31   S    
C74   C75   A    
C46   C61   A    
C33   C40   A    
C64   C67   A    
N4    N13   A    
C9    C70   S    
C40   H8    S    
C99   C103  A    
C71   C73   A    
C10   C80   A    
C101  N26   A    
C14   C19   A    
N7    N16   A    
C84   H39   S    
C100  C104  A    
C25   C26   A    
N12   N24   A    
C99   N24   A    
N5    N14   A    
C56   C60   A    
N6    Ni5   S    
C16   C31   S    
C62   C83   S    
C50   C58   S    
N5    Ni6   S    
N8    Ni7   S    
C19   C23   A    
N2    Ni1   S    
C85   C94   A    
C28   C104  A    
C15   C27   S    
C48   N31   A    
C98   H53   S    
C91   H47   S    
C10   C19   S    
C1    N1    A    
C61   C95   A    
N13   Ni8   S    
C12   C82   A    
C69   C74   A    
C37   H6    S    
C12   C21   S    
N19   Ni5   S    
C51   C57   A    
N6    N15   A    
N18   Ni6   S    
C16   C18   A    
C88   N13   A    
C6    C30   S    
N32   Ni2   S    
C45   H27   S    
C7    H65   S    
C13   C92   A    
C22   C26   A    
C78   N3    A    
N31   Ni8   S    
C74   H25   S    
N9    N32   A    
C14   C29   S    
C73   H24   S    
C86   H41   S    
N29   Ni6   S    
N1    N22   A    
C4    C27   S    
C92   N17   A    
N3    N11   A    
C54   C58   A    
C52   H11   S    
C21   C25   A    
C63   C68   A    
C85   N9    A    
C4    O1    D    
N14   Ni1   S    
N26   Ni3   S    
C18   C22   A    
C79   N4    A    
C33   H2    S    
C63   C64   A    
C75   H26   S    
N1    Ni1   S    
C76   N32   A    
C50   C93   A    
C49   C56   A    
N28   Ni5   S    
N21   N31   A    
C48   C83   A    
C8    C87   A    
C80   N5    A    
C95   H50   S    
C54   H14   S    
C68   C73   A    
C38   C43   A    
C2    C77   A    
C98   C102  A    
C87   N11   A    
C63   H18   S    
C100  H55   S    
C96   N20   A    
C31   H67   S    
C45   C50   A    
C17   N12   A    
C66   H21   S    
N7    Ni8   S    
N15   Ni2   S    
C101  H57   S    
N27   Ni4   S    
C88   H43   S    
C4    H62   S    
C13   C22   S    
C2    C86   A    
C35   C62   A    
C34   C36   A    
C5    H63   S    
C17   C103  A    
C47   C72   A    
N21   Ni7   S    
C5    O2    D    
C57   H17   S    
C82   H38   S    
C24   H59   S    
C64   H19   S    
C93   H49   S    
C40   C44   A    
N23   Ni3   S    
C96   H51   S    
C47   N30   A    
C33   C59   A    
C65   C66   A    
C83   C97   A    
C99   H54   S    
C36   H5    S    
C86   N10   A    
N20   N30   A    
C14   C15   A    
N25   Ni4   S    
C80   H36   S    
N19   N29   A    
C38   H7    S    
C1    C102  A    
C17   H12   S    
C1    H1    S    
N23   N25   A    
