data_mof_unit_22203.cif
_audit_creation_date              2012-12-10T17:35:43-0500
_audit_creation_method            fapswitch 2.2
_symmetry_space_group_name_H-M    P1
_symmetry_Int_Tables_number       1
_space_group_crystal_system       triclinic
_cell_length_a                    10.489218
_cell_length_b                    11.993989
_cell_length_c                    12.87979
_cell_angle_alpha                 93.189565
_cell_angle_beta                  89.820203
_cell_angle_gamma                 86.45123
_cell_volume                      1614.72739878

loop_
_atom_site_label
_atom_site_type_symbol
_atom_type_description
_atom_site_fract_x
_atom_site_fract_y
_atom_site_fract_z
_atom_type_partial_charge
C1    C     C_R   0.497854 0.521938 0.700427 0.879759
C2    C     C_R   0.620561 0.160831 0.575109 -0.035814
C3    C     C_R   0.561164 0.856765 0.531580 -0.066922
C4    C     C_R   0.438264 0.143305 0.468797 -0.068632
C5    C     C_R   0.548722 0.975011 0.530466 0.020959
C6    C     C_R   0.447113 0.025327 0.473756 0.017595
C7    C     C_R   0.742687 0.500553 0.500124 0.868067
C8    C     C_R   0.257310 0.499569 0.500423 0.867847
C9    C     C_3   0.959671 0.461649 0.590317 -0.186333
C10   C     C_3   0.040277 0.538911 0.411020 -0.179609
C11   C     C_3   0.037429 0.565928 0.581520 -0.170837
C12   C     C_R   0.502444 0.478084 0.299572 0.881792
C13   C     C_3   0.962628 0.434595 0.419808 -0.177266
C14   C     C_3   0.122385 0.498867 0.500916 0.030213
C15   C     C_3   0.877593 0.501614 0.500360 0.025640
C16   C     C_3   0.047412 0.394511 0.509788 -0.144311
C17   C     C_3   0.952565 0.606066 0.491596 -0.132493
C18   C     C_R   0.503087 0.465034 0.188263 -0.054822
C19   C     C_R   0.498071 0.535034 0.811725 -0.051401
C20   C     C_R   0.525333 0.647294 0.969621 -0.232623
C21   C     C_R   0.476720 0.352714 0.030304 -0.224999
C22   C     C_R   0.518439 0.638766 0.862236 -0.211775
C23   C     C_R   0.482390 0.440450 0.867758 -0.285126
C24   C     C_R   0.483281 0.361251 0.137679 -0.206308
C25   C     C_R   0.248522 0.001561 0.363796 0.112424
C26   C     C_R   0.152161 0.070528 0.415212 -0.174914
C27   C     C_R   0.046630 0.112314 0.360108 -0.149723
C28   C     C_R   0.036013 0.084882 0.253769 -0.101102
C29   C     C_R   0.130706 0.015295 0.202350 -0.136100
C30   C     C_R   0.236445 0.973369 0.257110 -0.162708
C31   C     C_R   0.744142 0.997712 0.643377 0.103887
C32   C     C_R   0.721920 0.941194 0.733754 -0.169125
C33   C     C_R   0.824565 0.894464 0.789069 -0.138971
C34   C     C_R   0.519124 0.559618 0.132271 -0.287631
C35   C     C_R   0.949805 0.904548 0.755018 -0.114513
C36   C     C_R   0.972625 0.961880 0.665899 -0.136411
C37   C     C_R   0.870215 0.008739 0.610391 -0.159284
C38   C     C_R   0.490048 0.447934 0.974354 0.186760
C39   C     C_R   0.511874 0.552107 0.025626 0.189781
C40   C     C_R   0.359878 0.955902 0.421853 -0.098082
C41   C     C_R   0.635853 0.044236 0.582527 -0.094963
C42   C     C_R   0.378092 0.839099 0.426421 -0.034592
H1    H     H_    0.072760 0.619228 0.647218 0.136183
H2    H     H_    0.531127 0.712238 0.818935 0.157162
H3    H     H_    0.541903 0.727481 0.008639 0.134569
H4    H     H_    0.460331 0.272508 0.991248 0.138748
H5    H     H_    0.364944 0.184761 0.423456 0.147559
H6    H     H_    0.637975 0.814904 0.572915 0.147704
H7    H     H_    0.686798 0.214642 0.614036 0.140292
H8    H     H_    0.311731 0.785070 0.387942 0.141692
H9    H     H_    0.158920 0.091834 0.497746 0.117476
H10   H     H_    0.972836 0.165734 0.399813 0.125305
H11   H     H_    0.954235 0.117285 0.211292 0.122989
H12   H     H_    0.927288 0.381420 0.354035 0.133155
H13   H     H_    0.122153 0.993788 0.120039 0.125396
H14   H     H_    0.309221 0.919560 0.216360 0.121596
H15   H     H_    0.625252 0.932473 0.760590 0.122517
H16   H     H_    0.806984 0.850181 0.858159 0.127471
H17   H     H_    0.029146 0.868036 0.797724 0.121071
H18   H     H_    0.069639 0.969622 0.639653 0.128882
H19   H     H_    0.888868 0.052202 0.541066 0.127982
H20   H     H_    0.921786 0.430360 0.663103 0.134129
H21   H     H_    0.078134 0.570163 0.338205 0.133895
H22   H     H_    0.090651 0.308658 0.517854 0.139261
H23   H     H_    0.909851 0.692331 0.484367 0.150699
H24   H     H_    0.535992 0.639734 0.171511 0.160964
H25   H     H_    0.465274 0.360355 0.828583 0.162171
H26   H     H_    0.470620 0.287749 0.180926 0.163767
N1    N     N_R   0.523490 0.207800 0.519350 -0.107176
N2    N     N_R   0.476510 0.792200 0.480650 -0.107904
O1    O     O_R   0.506270 0.421700 0.658830 -0.624989
O2    O     O_R   0.493730 0.578300 0.341170 -0.625519
O3    O     O_R   0.491200 0.609310 0.646410 -0.624983
O4    O     O_R   0.508800 0.390690 0.353590 -0.623910
O5    O     O_R   0.693580 0.406210 0.506230 -0.628803
O6    O     O_R   0.306420 0.593790 0.493770 -0.626764
O7    O     O_R   0.678510 0.593830 0.493810 -0.629309
O8    O     O_R   0.321490 0.406170 0.506190 -0.629715
Zn1   Zn    Zn3+2 0.510060 0.374730 0.508290 0.934149
Zn2   Zn    Zn3+2 0.489940 0.625270 0.491710 0.934955

loop_
_geom_bond_atom_site_label_1
_geom_bond_atom_site_label_2
_ccdc_geom_bond_type
C33   H16   S    
C12   O4    A    
C10   H21   S    
C42   N2    A    
C34   H24   S    
O1    Zn1   S    
C26   C27   A    
C1    O1    A    
C18   C24   A    
C36   C37   A    
C9    C16   S    
C21   H4    S    
C25   C40   S    
C5    C6    A    
C11   C14   S    
C10   C17   S    
C3    H6    S    
C8    O6    A    
C35   H17   S    
C23   H25   S    
C22   H2    S    
C21   C38   A    
C35   C36   A    
C11   H1    S    
C2    N1    A    
C20   H3    S    
C7    O7    A    
C40   C42   A    
C12   O2    A    
C8    O8    A    
C32   H15   S    
C4    N1    A    
C1    C19   S    
N2    Zn2   S    
C9    H20   S    
C3    N2    A    
C4    C6    A    
C10   C14   S    
C20   C39   A    
O8    Zn1   S    
C7    O5    A    
C29   H13   S    
C3    C5    A    
C25   C26   A    
C30   H14   S    
C34   C39   A    
C19   C23   A    
C29   C30   A    
C2    H7    S    
C18   C34   A    
C31   C32   A    
C19   C22   A    
C9    C11   S    
C42   H8    S    
C20   C22   A    
O4    Zn1   S    
C13   C15   S    
C6    C40   A    
N1    Zn1   S    
C21   C24   A    
C27   H10   S    
C13   H12   S    
O7    Zn2   S    
C25   C30   A    
C15   C17   S    
C5    C41   A    
C28   C29   A    
C8    C14   S    
C31   C41   S    
O6    Zn2   S    
C36   H18   S    
C10   C13   S    
C11   C17   S    
C37   H19   S    
C28   H11   S    
C23   C38   A    
C16   H22   S    
C17   H23   S    
C1    O3    A    
C32   C33   A    
C9    C15   S    
O2    Zn2   S    
C26   H9    S    
C38   C39   A    
C7    C15   S    
C33   C35   A    
O3    Zn2   S    
C14   C16   S    
C24   H26   S    
C31   C37   A    
C13   C16   S    
C12   C18   S    
C27   C28   A    
C2    C41   A    
O5    Zn1   S    
C4    H5    S    
