data_mof_unit_14076.cif
_audit_creation_date              2012-12-10T20:01:44-0500
_audit_creation_method            fapswitch 2.2
_symmetry_space_group_name_H-M    P1
_symmetry_Int_Tables_number       1
_space_group_crystal_system       triclinic
_cell_length_a                    14.131431
_cell_length_b                    14.902413
_cell_length_c                    16.707256
_cell_angle_alpha                 89.50309
_cell_angle_beta                  95.479974
_cell_angle_gamma                 89.390844
_cell_volume                      3501.97720454

loop_
_atom_site_label
_atom_site_type_symbol
_atom_type_description
_atom_site_fract_x
_atom_site_fract_y
_atom_site_fract_z
_atom_type_partial_charge
C1    C     C_R   0.499998 0.327381 0.495020 0.957192
C2    C     C_R   0.533621 0.896252 0.410211 0.574214
C3    C     C_R   0.491094 0.047867 0.455089 -0.112122
C4    C     C_R   0.487204 0.950971 0.462633 -0.115769
C5    C     C_R   0.112958 0.474190 0.568737 -0.287873
C6    C     C_R   0.891368 0.574578 0.473330 -0.293654
C7    C     C_R   0.212111 0.473842 0.567235 -0.024956
C8    C     C_R   0.792076 0.573298 0.472929 -0.014611
C9    C     C_R   0.196404 0.525681 0.432656 -0.132279
C10   C     C_R   0.798997 0.426630 0.528132 -0.111399
C11   C     C_R   0.096211 0.525078 0.430504 0.375921
C12   C     C_R   0.499343 0.672303 0.499412 0.989015
C13   C     C_R   0.899732 0.424689 0.530562 0.370499
C14   C     C_R   0.053140 0.500184 0.500136 0.085516
C15   C     C_R   0.946699 0.499682 0.501316 0.072071
C16   C     C_R   0.513189 0.501132 0.653792 0.951881
C17   C     C_R   0.486889 0.502144 0.345941 0.902614
C18   C     C_R   0.522749 0.519710 0.739317 -0.208017
C19   C     C_R   0.478849 0.506610 0.258347 -0.210575
C20   C     C_R   0.452200 0.572502 0.770067 -0.403714
C21   C     C_R   0.559615 0.484405 0.219725 -0.410379
C22   C     C_R   0.458493 0.593545 0.851603 0.554999
C23   C     C_R   0.582920 0.183544 0.467846 0.330798
C24   C     C_R   0.557841 0.490674 0.136860 0.561014
C25   C     C_R   0.539198 0.564616 0.901106 0.168219
C26   C     C_R   0.474353 0.521649 0.091750 0.147923
C27   C     C_R   0.612449 0.517333 0.869615 -0.368826
C28   C     C_R   0.392377 0.539421 0.129194 -0.380675
C29   C     C_R   0.603524 0.491271 0.789176 0.463487
C30   C     C_R   0.394628 0.536211 0.213033 0.489436
C31   C     C_R   0.579800 0.090404 0.463301 0.424687
C32   C     C_R   0.442731 0.913454 0.527049 0.412586
C33   C     C_3   0.043128 0.486085 0.302507 0.061684
C34   C     C_R   0.441069 0.820477 0.536117 0.322227
C35   C     C_3   0.966001 0.507534 0.234364 -0.296354
C36   C     C_3   0.968920 0.441524 0.165291 -0.960333
C37   C     C_3   0.930231 0.308051 0.623888 0.050913
C38   C     C_3   0.896439 0.211994 0.608827 -0.315566
C39   C     C_3   0.869533 0.167417 0.685826 -0.991054
C40   C     C_3   0.640396 0.377636 0.084759 -0.353622
C41   C     C_3   0.299227 0.608635 0.868012 -0.316777
C42   C     C_3   0.683960 0.355112 0.796937 0.066127
C43   C     C_3   0.784128 0.344688 0.840038 -0.335625
C44   C     C_3   0.795146 0.257114 0.888251 -0.978325
C45   C     C_R   0.498630 0.231967 0.477720 -0.312688
C46   C     C_3   0.285762 0.646361 0.239731 0.047925
C47   C     C_3   0.335564 0.703858 0.306399 -0.343876
C48   C     C_3   0.298356 0.800438 0.301617 -0.984769
C49   C     C_3   0.700061 0.023918 0.543273 -0.284204
C50   C     C_3   0.461425 0.985432 0.646681 -0.276747
C51   C     C_3   0.683149 0.244745 0.384130 0.119906
C52   C     C_3   0.789589 0.247502 0.374866 -0.310588
C53   C     C_3   0.808636 0.277678 0.290457 -0.981341
C54   C     C_3   0.294515 0.780997 0.569116 0.165015
C55   C     C_3   0.243997 0.718579 0.623738 -0.348726
C56   C     C_R   0.496091 0.767711 0.489004 -0.271531
C57   C     C_3   0.137483 0.715374 0.598232 -0.969164
C58   C     C_3   0.276877 0.075492 0.361351 -0.339022
C59   C     C_3   0.519747 0.918089 0.275107 -0.330722
C60   C     C_R   0.410566 0.189269 0.465904 -0.379215
C61   C     C_R   0.542094 0.804985 0.426577 -0.410528
C62   C     C_R   0.406241 0.098152 0.449921 0.561907
H1    H     H_    0.624834 0.461759 0.253661 0.198963
H2    H     H_    0.581718 0.762765 0.388750 0.189519
H3    H     H_    0.083226 0.455137 0.623689 0.160649
H4    H     H_    0.924815 0.634147 0.452131 0.193826
H5    H     H_    0.029138 0.418137 0.327201 0.147147
H6    H     H_    0.113605 0.485705 0.277861 0.166429
H7    H     H_    0.895081 0.504637 0.257898 0.234571
H8    H     H_    0.976156 0.576590 0.211219 0.228620
H9    H     H_    0.037914 0.446019 0.138812 0.262890
H10   H     H_    0.910695 0.457885 0.117816 0.280331
H11   H     H_    0.959415 0.371829 0.186809 0.263948
H12   H     H_    0.392886 0.598160 0.730439 0.191937
H13   H     H_    0.877457 0.346614 0.655820 0.127852
H14   H     H_    0.996620 0.305548 0.665271 0.159215
H15   H     H_    0.833732 0.212408 0.563426 0.253087
H16   H     H_    0.954090 0.172145 0.584687 0.234629
H17   H     H_    0.928870 0.171544 0.734258 0.274236
H18   H     H_    0.853587 0.095615 0.674550 0.259679
H19   H     H_    0.805275 0.200700 0.705612 0.266458
H20   H     H_    0.578261 0.358409 0.042609 0.163364
H21   H     H_    0.642742 0.337228 0.141298 0.161930
H22   H     H_    0.705618 0.361388 0.055497 0.197850
H23   H     H_    0.256710 0.453197 0.620495 0.143958
H24   H     H_    0.251567 0.638352 0.909971 0.191930
H25   H     H_    0.299969 0.534585 0.878115 0.152692
H26   H     H_    0.268520 0.625640 0.806006 0.157588
H27   H     H_    0.674154 0.302995 0.749816 0.149978
H28   H     H_    0.629852 0.341292 0.839995 0.122821
H29   H     H_    0.837108 0.345798 0.795058 0.218240
H30   H     H_    0.799405 0.401543 0.881602 0.223274
H31   H     H_    0.746208 0.256941 0.936472 0.258809
H32   H     H_    0.869280 0.250306 0.916482 0.269338
H33   H     H_    0.779278 0.198740 0.848576 0.267714
H34   H     H_    0.750578 0.631245 0.450754 0.151781
H35   H     H_    0.207828 0.650566 0.243885 0.174124
H36   H     H_    0.297971 0.674737 0.179738 0.137217
H37   H     H_    0.322865 0.675391 0.365871 0.243272
H38   H     H_    0.413376 0.703494 0.301292 0.201737
H39   H     H_    0.311958 0.831725 0.243305 0.261778
H40   H     H_    0.334898 0.839937 0.351177 0.268010
H41   H     H_    0.220807 0.802296 0.307844 0.272088
H42   H     H_    0.657517 0.971421 0.570362 0.140385
H43   H     H_    0.703112 0.085291 0.580961 0.164565
H44   H     H_    0.773745 0.997525 0.543300 0.194052
H45   H     H_    0.229185 0.546418 0.380096 0.185583
H46   H     H_    0.519389 0.029669 0.630046 0.129250
H47   H     H_    0.491408 0.922852 0.676483 0.178439
H48   H     H_    0.422493 0.021937 0.691176 0.191270
H49   H     H_    0.650423 0.311269 0.367152 0.152691
H50   H     H_    0.651349 0.193636 0.341241 0.135160
H51   H     H_    0.824765 0.294535 0.418853 0.241730
H52   H     H_    0.821202 0.179603 0.387328 0.241326
H53   H     H_    0.774488 0.231517 0.244800 0.264726
H54   H     H_    0.886441 0.277108 0.285711 0.268205
H55   H     H_    0.780833 0.346943 0.278085 0.270202
H56   H     H_    0.761512 0.368630 0.547255 0.179660
H57   H     H_    0.281299 0.756450 0.506093 0.133843
H58   H     H_    0.263762 0.849750 0.572449 0.188304
H59   H     H_    0.274626 0.649867 0.621080 0.236528
H60   H     H_    0.255418 0.742239 0.686794 0.230908
H61   H     H_    0.104728 0.782978 0.602883 0.270000
H62   H     H_    0.103259 0.668219 0.638139 0.266415
H63   H     H_    0.124479 0.691763 0.535315 0.271043
H64   H     H_    0.324141 0.055751 0.314692 0.145420
H65   H     H_    0.256777 0.147722 0.354614 0.166206
H66   H     H_    0.210807 0.036023 0.350908 0.200835
H67   H     H_    0.673455 0.495554 0.909370 0.191798
H68   H     H_    0.513497 0.845207 0.261954 0.169688
H69   H     H_    0.448114 0.949354 0.276677 0.150705
H70   H     H_    0.553440 0.950063 0.224949 0.196103
H71   H     H_    0.327289 0.558063 0.093007 0.174031
H72   H     H_    0.344577 0.226118 0.469197 0.214876
N1    N     N_2   0.540793 0.567581 0.984933 -0.086540
N2    N     N_2   0.469707 0.530159 0.007855 -0.147105
N3    N     N_R   0.252470 0.499980 0.500000 -0.110361
N4    N     N_R   0.747530 0.500020 0.500000 -0.106843
O1    O     O_R   0.579480 0.369070 0.499990 -0.592612
O2    O     O_3   0.952289 0.346959 0.550380 -0.653973
O3    O     O_3   0.639246 0.470355 0.100556 -0.590979
O4    O     O_3   0.390328 0.646226 0.884005 -0.585721
O5    O     O_3   0.674070 0.440305 0.758287 -0.624523
O6    O     O_3   0.313215 0.554875 0.250318 -0.650711
O7    O     O_3   0.663857 0.041915 0.463109 -0.539239
O8    O     O_3   0.397291 0.967161 0.579079 -0.561306
O9    O     O_3   0.669523 0.225276 0.465380 -0.629497
O10   O     O_3   0.392667 0.781344 0.595398 -0.627704
O11   O     O_3   0.319234 0.055959 0.439450 -0.560863
O12   O     O_R   0.420520 0.630930 0.500010 -0.622449
O13   O     O_3   0.577349 0.933085 0.347208 -0.549957
O14   O     O_R   0.420520 0.369060 0.499990 -0.621898
O15   O     O_R   0.579480 0.630940 0.500010 -0.632080
O16   O     O_R   0.588340 0.499180 0.616130 -0.563651
O17   O     O_R   0.411660 0.500820 0.383870 -0.586281
O18   O     O_R   0.429390 0.499170 0.616130 -0.647257
O19   O     O_R   0.570610 0.500830 0.383870 -0.638133
O20   O     O_3   0.040516 0.552604 0.361946 -0.660685
Zn1   Zn    Zn3+2 0.606140 0.500010 0.500000 0.963305
Zn2   Zn    Zn3+2 0.393860 0.499990 0.500000 0.937487

loop_
_geom_bond_atom_site_label_1
_geom_bond_atom_site_label_2
_ccdc_geom_bond_type
C55   H59   S    
C45   C60   A    
C58   H66   S    
C51   H50   S    
C23   C45   A    
C62   O11   S    
C54   H58   S    
C27   C29   A    
C53   H54   S    
C40   H22   S    
C35   C36   S    
C8    H34   S    
C12   O15   A    
C49   H42   S    
O14   Zn2   S    
C47   H37   S    
N1    N2    D    
C59   H68   S    
C52   H51   S    
C52   C53   S    
C34   C56   A    
C41   H24   S    
C59   H69   S    
C33   H6    S    
C6    H4    S    
O12   Zn2   S    
C6    C8    A    
C8    N4    A    
C19   C21   A    
C24   C26   A    
C57   H63   S    
C38   C39   S    
C11   C14   A    
C53   H55   S    
C32   O8    S    
C29   O5    S    
C50   H48   S    
C30   O6    S    
C1    O14   A    
C60   C62   A    
C7    N3    A    
C44   H31   S    
C17   C19   S    
C6    C15   A    
C54   C55   S    
C9    N3    A    
N4    Zn1   S    
C35   H8    S    
C37   O2    S    
C16   O18   A    
C17   O19   A    
C1    O1    A    
C58   O11   S    
C50   O8    S    
C37   H13   S    
C55   H60   S    
O1    Zn1   S    
C58   H65   S    
O19   Zn1   S    
C54   H57   S    
C50   H46   S    
C40   H21   S    
C34   O10   S    
C41   H25   S    
C59   H70   S    
C20   H12   S    
C51   C52   S    
C13   O2    S    
C12   O12   A    
O18   Zn2   S    
C26   N2    S    
C39   H19   S    
C36   H9    S    
C5    H3    S    
C5    C7    A    
C46   O6    S    
C38   H16   S    
C48   H41   S    
C23   O9    S    
C22   C25   A    
C50   H47   S    
C43   H29   S    
C47   H38   S    
C28   H71   S    
C42   H28   S    
C32   C34   A    
O15   Zn1   S    
C61   H2    S    
C2    C4    A    
C43   C44   S    
C37   C38   S    
C10   H56   S    
C40   H20   S    
C57   H61   S    
C47   C48   S    
C51   O9    S    
C24   O3    S    
C48   H40   S    
C22   O4    S    
C49   O7    S    
C18   C29   A    
C12   C56   S    
C3    C31   A    
C9    C11   A    
C5    C14   A    
C4    C32   A    
C37   H14   S    
C20   C22   A    
C58   H64   S    
C59   O13   S    
C55   C57   S    
C16   O16   A    
C39   H17   S    
C27   H67   S    
C9    H45   S    
C42   C43   S    
C3    C4    S    
C17   O17   A    
C60   H72   S    
C33   O20   S    
C33   H5    S    
C54   O10   S    
C3    C62   A    
C2    O13   S    
C41   H26   S    
C46   C47   S    
C51   H49   S    
N3    Zn2   S    
O17   Zn2   S    
C56   C61   A    
C46   H35   S    
C10   C13   A    
C49   H43   S    
C2    C61   A    
C49   H44   S    
C38   H15   S    
C52   H52   S    
C25   C27   A    
C26   C28   A    
C43   H30   S    
C42   H27   S    
C39   H18   S    
C13   C15   A    
O16   Zn1   S    
C44   H33   S    
C57   H62   S    
C1    C45   S    
C7    H23   S    
C48   H39   S    
C28   C30   A    
C33   C35   S    
C18   C20   A    
C46   H36   S    
C25   N1    S    
C21   H1    S    
C44   H32   S    
C36   H11   S    
C31   O7    S    
C36   H10   S    
C41   O4    S    
C35   H7    S    
C16   C18   S    
C21   C24   A    
C42   O5    S    
C14   C15   S    
C10   N4    A    
C40   O3    S    
C19   C30   A    
C53   H53   S    
C11   O20   S    
C23   C31   A    
