data_mof_unit_41455.cif
_audit_creation_date              2012-10-26T20:58:55-0400
_audit_creation_method            fapswitch 2.2
_symmetry_space_group_name_H-M    P1
_symmetry_Int_Tables_number       1
_space_group_crystal_system       triclinic
_cell_length_a                    27.778998
_cell_length_b                    10.595037
_cell_length_c                    9.456432
_cell_angle_alpha                 91.044032
_cell_angle_beta                  90.520455
_cell_angle_gamma                 89.295988
_cell_volume                      2782.43107506

loop_
_atom_site_label
_atom_site_type_symbol
_atom_type_description
_atom_site_fract_x
_atom_site_fract_y
_atom_site_fract_z
_atom_type_partial_charge
C1    C     C_R   0.499791 0.259559 0.498927 0.532789
C2    C     C_R   0.872184 0.399862 0.538847 0.030911
C3    C     C_R   0.354795 0.492514 0.497573 0.013014
C4    C     C_R   0.645116 0.507711 0.502513 0.013941
C5    C     C_R   0.973992 0.390609 0.528726 0.033932
C6    C     C_R   0.025748 0.615251 0.482714 0.031065
C7    C     C_R   0.974626 0.617098 0.475094 -0.027216
C8    C     C_R   0.024899 0.385442 0.516579 -0.025819
C9    C     C_R   0.948954 0.505772 0.503167 0.025316
C10   C     C_R   0.050687 0.498455 0.499179 0.024770
C11   C     C_R   0.947168 0.284525 0.568002 -0.140043
C12   C     C_R   0.500218 0.740439 0.501073 0.533201
C13   C     C_R   0.052946 0.726840 0.476013 -0.141116
C14   C     C_R   0.897292 0.289427 0.573099 -0.110545
C15   C     C_R   0.102885 0.722871 0.477437 -0.110053
C16   C     C_R   0.407657 0.498076 0.499262 0.546340
C17   C     C_R   0.592316 0.501827 0.500733 0.546968
C18   C     C_R   0.050846 0.270148 0.518672 -0.130846
C19   C     C_R   0.948264 0.726486 0.437903 -0.130140
C20   C     C_3   0.542628 0.042540 0.547564 -0.134451
C21   C     C_3   0.457402 0.957455 0.452435 -0.133683
C22   C     C_3   0.535424 0.955154 0.416560 -0.127585
C23   C     C_R   0.101849 0.494768 0.497471 -0.073989
C24   C     C_3   0.464605 0.044837 0.583440 -0.126840
C25   C     C_3   0.500343 0.877445 0.502525 0.050490
C26   C     C_3   0.499685 0.122549 0.497475 0.051064
C27   C     C_3   0.507583 0.962528 0.633530 -0.115375
C28   C     C_3   0.492446 0.037465 0.366468 -0.114936
C29   C     C_3   0.532003 0.578883 0.054197 -0.070895
C30   C     C_3   0.467995 0.421135 0.945822 -0.071613
C31   C     C_3   0.490049 0.610372 0.953418 0.335725
C32   C     C_3   0.509960 0.389645 0.046580 0.335411
C33   C     C_3   0.541437 0.467262 0.951514 0.342628
C34   C     C_R   0.897788 0.509129 0.504779 -0.073228
C35   C     C_3   0.458569 0.532779 0.048493 0.342133
C36   C     C_R   0.178055 0.379402 0.505501 0.412720
C37   C     C_R   0.821314 0.619709 0.472907 0.413739
C38   C     C_R   0.178130 0.603483 0.485299 0.398715
C39   C     C_R   0.821761 0.403514 0.538923 0.401437
C40   C     C_R   0.278870 0.542810 0.611513 -0.080113
C41   C     C_R   0.721234 0.453572 0.391875 -0.076228
C42   C     C_R   0.328971 0.544511 0.611883 -0.197664
C43   C     C_R   0.671127 0.451418 0.391047 -0.197506
C44   C     C_R   0.329593 0.434769 0.383484 0.252994
C45   C     C_R   0.127204 0.378574 0.506728 0.030219
C46   C     C_R   0.670047 0.570145 0.613954 0.255389
C47   C     C_R   0.279217 0.435668 0.382941 -0.041656
C48   C     C_R   0.720417 0.570361 0.614637 -0.044076
C49   C     C_R   0.253806 0.489344 0.496705 0.190801
C50   C     C_R   0.745977 0.512382 0.503869 0.195403
C51   C     C_3   0.363769 0.253913 0.298353 -0.096403
C52   C     C_3   0.635311 0.753238 0.690547 -0.096956
C53   C     C_3   0.478754 0.822352 0.002895 -0.150785
C54   C     C_3   0.521316 0.177699 0.997080 -0.150386
C55   C     C_3   0.621416 0.421082 0.994956 -0.092544
C56   C     C_R   0.872164 0.621134 0.472039 0.028383
C57   C     C_3   0.378682 0.580045 0.005041 -0.092200
C58   C     C_3   0.121467 0.093925 0.647527 -0.081183
C59   C     C_3   0.876733 0.930754 0.504259 -0.076234
C60   C     C_R   0.101162 0.265682 0.517193 0.279173
C61   C     C_R   0.897960 0.730309 0.438703 0.279316
C62   C     C_R   0.127712 0.607754 0.486274 0.024936
Cu1   Cu    Cu3+1 0.500010 0.499990 0.643150 1.035030
Cu2   Cu    Cu3+1 0.499990 0.500010 0.356850 1.034104
H1    H     H_    0.577488 0.080592 0.586367 0.115406
H2    H     H_    0.347537 0.588678 0.700409 0.122229
H3    H     H_    0.740937 0.408738 0.305981 0.140460
H4    H     H_    0.259413 0.584062 0.700018 0.140026
H5    H     H_    0.878426 0.205747 0.604341 0.143194
H6    H     H_    0.122006 0.811128 0.471664 0.174273
H7    H     H_    0.963816 0.196870 0.599531 0.095610
H8    H     H_    0.036669 0.819648 0.473407 0.105387
H9    H     H_    0.032905 0.180505 0.516178 0.115013
H10   H     H_    0.965691 0.810341 0.402363 0.122401
H11   H     H_    0.564410 0.915187 0.348518 0.108410
H12   H     H_    0.422545 0.919381 0.413635 0.116276
H13   H     H_    0.435621 0.084795 0.651497 0.108079
H14   H     H_    0.330008 0.199610 0.309552 0.124034
H15   H     H_    0.386813 0.243984 0.394577 0.107146
H16   H     H_    0.384005 0.211903 0.208106 0.141164
H17   H     H_    0.612457 0.759302 0.593500 0.106096
H18   H     H_    0.668951 0.807666 0.677474 0.120007
H19   H     H_    0.614768 0.798066 0.778533 0.142349
H20   H     H_    0.516527 0.842059 0.035203 0.098362
H21   H     H_    0.457088 0.797253 0.096463 0.159936
H22   H     H_    0.463050 0.910713 0.960259 0.117374
H23   H     H_    0.514463 0.929700 0.742565 0.142044
H24   H     H_    0.543010 0.202811 0.903576 0.160385
H25   H     H_    0.483551 0.157998 0.964673 0.097143
H26   H     H_    0.537005 0.089332 0.039741 0.117943
H27   H     H_    0.611682 0.354993 0.079734 0.134427
H28   H     H_    0.629330 0.516228 0.040217 0.125663
H29   H     H_    0.654951 0.384397 0.945479 0.155453
H30   H     H_    0.370842 0.485365 0.958391 0.122845
H31   H     H_    0.388434 0.647187 0.921351 0.134321
H32   H     H_    0.345094 0.616034 0.054819 0.154635
H33   H     H_    0.084141 0.063669 0.669547 0.086249
H34   H     H_    0.485570 0.070292 0.257430 0.141856
H35   H     H_    0.134688 0.158578 0.733233 0.133273
H36   H     H_    0.144790 0.008187 0.648114 0.164702
H37   H     H_    0.914038 0.965961 0.518694 0.081397
H38   H     H_    0.862861 0.894559 0.605805 0.131469
H39   H     H_    0.853569 0.012104 0.474170 0.173786
H40   H     H_    0.558261 0.644052 0.104864 0.090913
H41   H     H_    0.441723 0.355983 0.895189 0.089647
H42   H     H_    0.259820 0.394387 0.293996 0.142052
H43   H     H_    0.739688 0.615718 0.701301 0.135326
H44   H     H_    0.652696 0.403528 0.304674 0.122456
N1    N     N_R   0.202142 0.490663 0.495264 -0.406243
N2    N     N_R   0.797555 0.512020 0.505678 -0.406058
N3    N     N_3   0.500040 0.499970 0.858290 -0.254554
N4    N     N_3   0.499960 0.500030 0.141710 -0.254979
O1    O     O_R   0.500020 0.316850 0.620870 -0.521712
O2    O     O_2   0.795592 0.724313 0.440809 -0.443976
O3    O     O_2   0.796991 0.299422 0.571994 -0.500992
O4    O     O_2   0.203076 0.711291 0.473526 -0.492472
O5    O     O_3   0.353698 0.381677 0.269411 -0.534774
O6    O     O_3   0.645659 0.626877 0.725393 -0.534541
O7    O     O_3   0.477323 0.728144 0.895771 -0.552659
O8    O     O_3   0.522719 0.271895 0.104218 -0.552775
O9    O     O_3   0.585279 0.427604 0.889987 -0.518092
O10   O     O_3   0.414754 0.572518 0.110093 -0.515570
O11   O     O_3   0.124517 0.149420 0.513427 -0.515031
O12   O     O_R   0.499980 0.683150 0.379130 -0.521609
O13   O     O_3   0.874272 0.838631 0.394964 -0.510719
O14   O     O_R   0.500000 0.316860 0.379090 -0.452247
O15   O     O_R   0.500000 0.683140 0.620910 -0.451140
O16   O     O_R   0.430270 0.500020 0.620880 -0.531062
O17   O     O_R   0.569730 0.499980 0.379120 -0.530949
O18   O     O_R   0.430250 0.500030 0.379090 -0.401328
O19   O     O_R   0.569750 0.499970 0.620910 -0.401228
O20   O     O_2   0.203451 0.270613 0.516440 -0.446254

loop_
_geom_bond_atom_site_label_1
_geom_bond_atom_site_label_2
_ccdc_geom_bond_type
C30   C32   S    
C55   O9    S    
C45   C60   A    
C34   C56   A    
C23   C45   A    
C54   O8    S    
C17   O19   A    
C29   N4    S    
C24   C27   S    
C55   H29   S    
C41   H3    S    
C12   O15   A    
C4    C46   A    
C52   H19   S    
C21   H12   S    
C58   O11   S    
C30   C35   S    
C53   H20   S    
C24   C26   S    
C54   H26   S    
C36   O20   S    
C11   C14   A    
C11   H7    S    
Cu2   N4    S    
C48   H43   S    
C40   C49   A    
C29   C33   S    
C50   N2    S    
C3    C42   A    
C46   O6    S    
C51   H16   S    
C7    C19   A    
C55   H27   S    
C57   O10   S    
C37   C56   A    
C2    C39   A    
C15   C62   A    
C23   C62   A    
C57   H32   S    
C53   H22   S    
C33   N3    S    
Cu1   O19   S    
C16   O18   A    
Cu1   O16   S    
C44   C47   A    
C2    C34   A    
C40   C42   A    
C22   C28   S    
C33   O9    S    
C41   C43   A    
C58   H33   S    
C1    O1    A    
C22   H11   S    
C32   O8    S    
C39   N2    A    
C46   C48   A    
C3    C44   A    
C17   O17   A    
C59   H37   S    
C20   H1    S    
C58   H36   S    
C1    O14   A    
C54   H25   S    
C47   C49   A    
C37   O2    S    
Cu2   O12   S    
C22   C25   S    
C8    C18   A    
C29   H40   S    
C60   O11   S    
C27   H23   S    
C5    C9    A    
C55   H28   S    
C38   O4    S    
C12   O12   A    
C47   H42   S    
C36   C45   A    
C35   O10   S    
C38   N1    A    
C52   H18   S    
C16   O16   A    
C31   O7    S    
C37   N2    A    
C4    C17   S    
C18   C60   A    
C20   C27   S    
C21   C28   S    
C20   C22   S    
C18   H9    S    
C39   O3    S    
C57   H30   S    
C13   C15   A    
C30   H41   S    
C57   H31   S    
C9    C34   A    
C14   H5    S    
C31   C35   S    
C59   O13   S    
C41   C50   A    
C49   N1    S    
C28   H34   S    
C7    C9    A    
C15   H6    S    
C21   C25   S    
C32   N4    S    
C59   H38   S    
C26   C28   S    
C19   H10   S    
C58   H35   S    
Cu2   O18   S    
C6    C10   A    
C5    C8    A    
C61   O13   S    
C53   O7    S    
C5    C11   A    
C6    C7    A    
C13   H8    S    
C10   C23   A    
C25   C27   S    
C30   N3    S    
Cu2   O14   S    
C12   C25   S    
C59   H39   S    
C32   C33   S    
C51   H14   S    
C29   C31   S    
C6    C13   A    
C54   H24   S    
C1    C26   S    
C20   C26   S    
C44   O5    S    
C19   C61   A    
C48   C50   A    
C51   O5    S    
C4    C43   A    
C43   H44   S    
Cu1   N3    S    
C52   H17   S    
C2    C14   A    
C51   H15   S    
C35   N4    S    
Cu1   Cu2   S    
Cu1   O1    S    
C24   H13   S    
Cu2   O17   S    
C8    C10   A    
C40   H4    S    
C21   C24   S    
C36   N1    A    
C42   H2    S    
C31   N3    S    
C56   C61   A    
C53   H21   S    
Cu1   O15   S    
C3    C16   S    
C38   C62   A    
C52   O6    S    
