data_mof_unit_39426.cif
_audit_creation_date              2012-12-10T19:48:40-0500
_audit_creation_method            fapswitch 2.2
_symmetry_space_group_name_H-M    P1
_symmetry_Int_Tables_number       1
_space_group_crystal_system       triclinic
_cell_length_a                    13.205168
_cell_length_b                    14.169358
_cell_length_c                    14.969466
_cell_angle_alpha                 90.207048
_cell_angle_beta                  90.057885
_cell_angle_gamma                 69.970506
_cell_volume                      2631.49134349

loop_
_atom_site_label
_atom_site_type_symbol
_atom_type_description
_atom_site_fract_x
_atom_site_fract_y
_atom_site_fract_z
_atom_type_partial_charge
C1    C     C_R   0.498844 0.500635 0.672435 0.860283
C2    C     C_R   0.971199 0.471164 0.477456 0.055868
C3    C     C_R   0.875191 0.476051 0.521488 0.002482
C4    C     C_R   0.020682 0.541633 0.503133 0.051216
C5    C     C_R   0.965583 0.625212 0.558573 0.086953
C6    C     C_R   0.869187 0.628870 0.600467 0.083931
C7    C     C_R   0.830117 0.550845 0.586779 -0.174962
C8    C     C_R   0.128164 0.524622 0.483231 -0.266571
C9    C     C_R   0.119876 0.681818 0.552959 0.213246
C10   C     C_R   0.821150 0.410279 0.495395 -0.109344
C11   C     C_R   0.501465 0.420367 0.908568 -0.231812
C12   C     C_R   0.704152 0.444456 0.502589 0.865176
C13   C     C_R   0.512450 0.415900 0.816882 -0.195767
C14   C     C_R   0.489137 0.504773 0.768317 -0.055944
C15   C     C_R   0.452014 0.598374 0.811258 -0.284076
C16   C     C_R   0.437525 0.603752 0.903169 0.235841
C17   C     C_R   0.465501 0.513665 0.951906 0.085491
C18   C     C_R   0.527101 0.565673 0.092142 -0.125002
C19   C     C_R   0.536058 0.560890 0.183959 -0.264999
C20   C     C_R   0.487507 0.503406 0.232008 -0.031561
C21   C     C_R   0.427226 0.452078 0.188191 0.101910
C22   C     C_R   0.417440 0.458479 0.095925 -0.257657
C23   C     C_R   0.497610 0.500510 0.327751 0.892224
C24   C     C_R   0.467753 0.514610 0.048324 0.112794
C25   C     C_R   0.534847 0.885078 0.572819 -0.339393
C26   C     C_R   0.534782 0.785878 0.572708 0.017216
C27   C     C_R   0.465575 0.804977 0.425810 -0.038851
C28   C     C_R   0.463169 0.905443 0.422716 0.137633
C29   C     C_R   0.498469 0.947172 0.497717 0.078384
C30   C     C_R   0.410928 0.134027 0.465838 -0.245565
C31   C     C_R   0.413600 0.232272 0.466129 0.017180
C32   C     C_R   0.585701 0.176573 0.533597 0.005041
C33   C     C_R   0.586854 0.076778 0.533408 -0.291286
C34   C     C_R   0.295804 0.555811 0.501270 0.894332
C35   C     C_R   0.498879 0.053708 0.498579 0.156498
C36   C     C_R   0.012879 0.698378 0.576786 -0.280027
C37   C     C_R   0.178951 0.591232 0.509756 -0.109062
C38   C     C_R   0.872070 0.327981 0.440245 -0.230710
C39   C     C_R   0.966894 0.321725 0.396973 -0.216970
C40   C     C_R   0.011317 0.397674 0.408103 0.219810
H1    H     H_    0.541107 0.343141 0.784266 0.158866
H2    H     H_    0.431829 0.667391 0.773371 0.153604
H3    H     H_    0.568195 0.607393 0.055109 0.141773
H4    H     H_    0.582646 0.600390 0.217353 0.157443
H5    H     H_    0.371351 0.419292 0.061344 0.136526
H6    H     H_    0.562324 0.913408 0.631930 0.152321
H7    H     H_    0.562917 0.739444 0.631042 0.141878
H8    H     H_    0.440514 0.772457 0.368159 0.143231
H9    H     H_    0.339556 0.121676 0.441170 0.159847
H10   H     H_    0.345858 0.292428 0.439264 0.132874
H11   H     H_    0.653844 0.193223 0.560373 0.120123
H12   H     H_    0.656662 0.017931 0.559470 0.134857
H13   H     H_    0.970573 0.765116 0.615170 0.135864
H14   H     H_    0.177140 0.453749 0.454847 0.191509
H15   H     H_    0.831746 0.275975 0.421287 0.164251
H16   H     H_    0.998717 0.263985 0.346683 0.139552
H17   H     H_    0.761144 0.551097 0.626067 0.161168
H18   H     H_    0.524010 0.350933 0.946067 0.147131
N1    N     N_R   0.500000 0.747530 0.500020 -0.099723
N2    N     N_R   0.499940 0.252470 0.500020 -0.087086
O1    O     O_R   0.499990 0.420530 0.630930 -0.617357
O2    O     O_R   0.499990 0.579480 0.630940 -0.635193
O3    O     O_R   0.653620 0.381060 0.499970 -0.625930
O4    O     O_R   0.653620 0.540010 0.499980 -0.603654
O5    O     O_R   0.500010 0.420520 0.369060 -0.589437
O6    O     O_R   0.500010 0.579470 0.369070 -0.637105
O7    O     O_R   0.346380 0.459990 0.500020 -0.632618
O8    O     O_R   0.346380 0.618940 0.500030 -0.580129
Zn1   Zn    Zn3+2 0.500000 0.393860 0.499990 0.946889
Zn2   Zn    Zn3+2 0.500000 0.606140 0.500010 0.948153
N3    N     N_2   0.169658 0.751752 0.580203 -0.287031
H19   H     H_    0.120909 0.825548 0.571527 0.216152
C41   C     C_3   0.215278 0.734322 0.669102 -0.753885
H20   H     H_    0.150269 0.748586 0.719818 0.218091
H21   H     H_    0.260946 0.785787 0.682004 0.232402
H22   H     H_    0.271402 0.655808 0.675723 0.245145
N4    N     N_2   0.395984 0.699225 0.946111 -0.320160
H23   H     H_    0.411128 0.756289 0.912238 0.217624
C42   C     C_3   0.284404 0.727289 0.973227 -0.790638
H24   H     H_    0.260124 0.800308 0.009231 0.237569
H25   H     H_    0.272809 0.670292 0.018948 0.253634
H26   H     H_    0.231863 0.735165 0.913632 0.234256
N5    N     N_3   0.374399 0.395447 0.237089 -0.445708
H27   H     H_    0.403384 0.321332 0.213790 0.183807
H28   H     H_    0.292061 0.424863 0.222876 0.175823
N6    N     N_3   0.812370 0.707497 0.661361 -0.480903
H29   H     H_    0.789508 0.775975 0.627439 0.180066
H30   H     H_    0.863945 0.709299 0.713866 0.182137
N7    N     N_2   0.433516 0.961146 0.342223 -0.312597
H31   H     H_    0.489898 0.934334 0.292266 0.227535
C43   C     C_3   0.324845 0.977493 0.311485 -0.839289
H32   H     H_    0.317668 0.906498 0.285575 0.237797
H33   H     H_    0.304827 0.033416 0.256652 0.244083
H34   H     H_    0.265965 0.007119 0.366532 0.246495
N8    N     N_2   0.084375 0.406814 0.341461 -0.334131
H35   H     H_    0.129024 0.339931 0.311242 0.214890
C44   C     C_3   0.036472 0.485739 0.277305 -0.792334
H36   H     H_    0.098866 0.490387 0.229688 0.228675
H37   H     H_    0.002019 0.559606 0.311418 0.256410
H38   H     H_    0.971963 0.469587 0.239164 0.240504

loop_
_geom_bond_atom_site_label_1
_geom_bond_atom_site_label_2
_ccdc_geom_bond_type
C27   H8    S    
C34   C37   S    
C41   H20   S    
C19   C20   A    
C4    C8    A    
C1    O2    A    
C13   H1    S    
C44   H36   S    
O6    Zn2   S    
N4    H23   S    
C33   H12   S    
C30   C35   A    
C18   C24   A    
C23   O6    A    
C28   C29   A    
C16   N4    S    
C3    C7    A    
O3    Zn1   S    
C30   C31   A    
C12   O4    A    
N6    H30   S    
C15   C16   A    
C5    C36   A    
O2    Zn2   S    
C18   C19   A    
C36   H13   S    
C38   H15   S    
N5    H27   S    
C16   C17   A    
C9    C36   A    
C28   N7    S    
O4    Zn2   S    
N7    C43   S    
C11   H18   S    
C26   N1    A    
C21   C22   A    
C41   H21   S    
C44   H37   S    
N4    C42   S    
C25   C29   A    
C38   C39   A    
C17   C24   S    
C21   N5    S    
C8    H14   S    
C43   H32   S    
N3    C41   S    
C12   O3    A    
N6    H29   S    
C25   C26   A    
O7    Zn1   S    
C31   N2    A    
C2    C4    A    
C32   H11   S    
C43   H33   S    
C39   H16   S    
C20   C23   S    
C9    C37   A    
C10   C12   S    
C26   H7    S    
N5    H28   S    
C30   H9    S    
C41   H22   S    
C22   C24   A    
C8    C37   A    
C32   N2    A    
C31   H10   S    
C34   O8    A    
C39   C40   A    
C44   H38   S    
C19   H4    S    
C42   H25   S    
O1    Zn1   S    
C11   C17   A    
C9    N3    S    
C15   H2    S    
C4    C5    A    
C1    O1    A    
C34   O7    A    
C42   H26   S    
N8    C44   S    
C6    C7    A    
C29   C35   S    
C6    N6    S    
C10   C38   A    
C32   C33   A    
C23   O5    A    
C2    C3    A    
N3    H19   S    
C3    C10   A    
C27   N1    A    
C18   H3    S    
C43   H34   S    
C11   C13   A    
C5    C6    A    
N2    Zn1   S    
O5    Zn1   S    
C33   C35   A    
N1    Zn2   S    
C42   H24   S    
C2    C40   A    
C22   H5    S    
C20   C21   A    
O8    Zn2   S    
N8    H35   S    
C14   C15   A    
C1    C14   S    
C40   N8    S    
N7    H31   S    
C13   C14   A    
C25   H6    S    
C7    H17   S    
C27   C28   A    
