data_mof_unit_37658.cif
_audit_creation_date              2012-10-26T19:13:27-0400
_audit_creation_method            fapswitch 2.2
_symmetry_space_group_name_H-M    P1
_symmetry_Int_Tables_number       1
_space_group_crystal_system       triclinic
_cell_length_a                    13.427669
_cell_length_b                    13.879546
_cell_length_c                    15.131767
_cell_angle_alpha                 90.363908
_cell_angle_beta                  90.496667
_cell_angle_gamma                 73.409612
_cell_volume                      2702.58333823

loop_
_atom_site_label
_atom_site_type_symbol
_atom_type_description
_atom_site_fract_x
_atom_site_fract_y
_atom_site_fract_z
_atom_type_partial_charge
C1    C     C_R   0.499679 0.500313 0.670079 0.554857
C2    C     C_R   0.813127 0.415907 0.491839 -0.043983
C3    C     C_R   0.464097 0.428171 0.903692 -0.118466
C4    C     C_R   0.699895 0.446711 0.501064 0.530227
C5    C     C_R   0.465671 0.427722 0.811892 -0.124936
C6    C     C_R   0.498452 0.500861 0.766508 0.026509
C7    C     C_R   0.530069 0.574210 0.813869 -0.117133
C8    C     C_R   0.529980 0.573790 0.905736 -0.113163
C9    C     C_R   0.496734 0.500887 0.951379 0.034592
C10   C     C_R   0.466033 0.591429 0.095682 -0.118234
C11   C     C_R   0.467403 0.591157 0.187504 -0.132271
C12   C     C_R   0.976820 0.459708 0.497292 -0.008785
C13   C     C_R   0.497882 0.499892 0.233427 0.012812
C14   C     C_R   0.526920 0.408860 0.186537 -0.122533
C15   C     C_R   0.526879 0.409160 0.094675 -0.124089
C16   C     C_R   0.499411 0.499902 0.329903 0.540678
C17   C     C_R   0.496415 0.500473 0.048515 0.034564
C18   C     C_R   0.420527 0.913787 0.458377 -0.148552
C19   C     C_R   0.423159 0.811673 0.457110 0.043372
C20   C     C_R   0.575294 0.769862 0.545040 0.044268
C21   C     C_R   0.576134 0.871089 0.547064 -0.139541
C22   C     C_R   0.498194 0.945480 0.503450 0.031073
C23   C     C_R   0.875099 0.472844 0.529449 -0.033927
C24   C     C_R   0.539681 0.097925 0.574245 -0.166535
C25   C     C_R   0.540329 0.199288 0.570896 -0.005358
C26   C     C_R   0.458278 0.218500 0.430537 0.417346
C27   C     C_R   0.460029 0.116192 0.430665 -0.132900
C28   C     C_R   0.300583 0.553168 0.504083 0.566820
C29   C     C_R   0.498938 0.054372 0.503347 -0.016532
C30   C     C_R   0.055340 0.653646 0.631918 -0.104174
C31   C     C_R   0.190470 0.581332 0.526498 0.006047
C32   C     C_R   0.857579 0.335844 0.434460 -0.101582
C33   C     C_R   0.961202 0.314703 0.410497 0.256374
C34   C     C_R   0.033945 0.525621 0.527457 -0.015033
C35   C     C_R   0.018597 0.379151 0.438012 -0.100081
C36   C     C_3   0.180428 0.802234 0.605741 -0.108334
C37   C     C_3   0.811370 0.752923 0.691524 -0.021664
C38   C     C_3   0.719179 0.789217 0.753222 -0.372917
C39   C     C_3   0.314503 0.288811 0.345685 -0.014918
C40   C     C_3   0.271080 0.372315 0.279170 -0.360427
C41   C     C_3   0.073875 0.158224 0.398252 -0.012428
C42   C     C_3   0.116072 0.070229 0.335543 -0.372230
C43   C     C_R   0.995277 0.593395 0.598312 0.009181
C44   C     C_R   0.898609 0.597885 0.635871 0.258168
C45   C     C_R   0.838774 0.539701 0.600234 -0.091906
C46   C     C_R   0.130181 0.523982 0.490847 -0.182428
C47   C     C_R   0.151705 0.649498 0.595381 0.248861
Cu1   Cu    Cu3+1 0.500000 0.403570 0.500010 0.983775
Cu2   Cu    Cu3+1 0.500000 0.596430 0.499990 0.958348
H1    H     H_    0.439979 0.370970 0.776454 0.124103
H2    H     H_    0.635153 0.713800 0.579529 0.117834
H3    H     H_    0.638378 0.890950 0.581228 0.082238
H4    H     H_    0.570395 0.054483 0.632559 0.098221
H5    H     H_    0.573373 0.230100 0.625813 0.129246
H6    H     H_    0.432911 0.085033 0.372646 0.093312
H7    H     H_    0.030134 0.701864 0.688656 0.152005
H8    H     H_    0.162052 0.477118 0.435253 0.104238
H9    H     H_    0.811004 0.291180 0.405949 0.146378
H10   H     H_    0.096380 0.361858 0.413643 0.095944
H11   H     H_    0.765313 0.544126 0.631416 0.134571
H12   H     H_    0.556309 0.630849 0.779948 0.118944
H13   H     H_    0.436314 0.372297 0.937292 0.105563
H14   H     H_    0.184065 0.806725 0.532405 0.108340
H15   H     H_    0.233488 0.843057 0.633767 0.146402
H16   H     H_    0.100616 0.840874 0.629215 0.092544
H17   H     H_    0.782941 0.763750 0.621897 0.102618
H18   H     H_    0.863526 0.801217 0.702445 0.129441
H19   H     H_    0.746133 0.780638 0.823098 0.168751
H20   H     H_    0.679043 0.869757 0.740759 0.088443
H21   H     H_    0.663477 0.744651 0.742081 0.140672
H22   H     H_    0.272600 0.309876 0.409222 0.121587
H23   H     H_    0.557220 0.629641 0.940990 0.107603
H24   H     H_    0.300221 0.218857 0.319516 0.112934
H25   H     H_    0.310817 0.352378 0.214716 0.158756
H26   H     H_    0.186540 0.383134 0.269470 0.108236
H27   H     H_    0.283319 0.443784 0.303467 0.155868
H28   H     H_    0.035036 0.131692 0.454111 0.127553
H29   H     H_    0.140868 0.182421 0.424164 0.110491
H30   H     H_    0.158479 0.093350 0.280620 0.153480
H31   H     H_    0.170263 0.007014 0.371668 0.076067
H32   H     H_    0.051228 0.044321 0.307854 0.164728
H33   H     H_    0.440278 0.662740 0.061635 0.106777
H34   H     H_    0.443546 0.662288 0.222508 0.123015
H35   H     H_    0.551234 0.337572 0.220787 0.158320
H36   H     H_    0.552196 0.338048 0.059844 0.107643
H37   H     H_    0.357248 0.967448 0.424874 0.076983
H38   H     H_    0.363015 0.788935 0.422017 0.110601
N1    N     N_R   0.500000 0.741310 0.499980 -0.217444
N2    N     N_R   0.500060 0.258650 0.499980 -0.210390
O1    O     O_R   0.499990 0.418570 0.628550 -0.524906
O2    O     O_3   0.865162 0.652220 0.712430 -0.561792
O3    O     O_3   0.421885 0.276132 0.356703 -0.534711
O4    O     O_3   0.002658 0.236878 0.352114 -0.555201
O5    O     O_R   0.499990 0.581440 0.628540 -0.493396
O6    O     O_R   0.650980 0.378820 0.499990 -0.507922
O7    O     O_R   0.650980 0.541690 0.499970 -0.509776
O8    O     O_R   0.500010 0.418560 0.371460 -0.443710
O9    O     O_R   0.500010 0.581430 0.371450 -0.513321
O10   O     O_R   0.349020 0.458310 0.500030 -0.497573
O11   O     O_R   0.349020 0.621180 0.500010 -0.479769
O12   O     O_3   0.213681 0.701822 0.635035 -0.543352

loop_
_geom_bond_atom_site_label_1
_geom_bond_atom_site_label_2
_ccdc_geom_bond_type
C38   H21   S    
C45   H11   S    
C42   H31   S    
C1    O1    A    
C47   O12   S    
Cu1   O6    S    
C27   C29   A    
C41   C42   S    
C14   H35   S    
C7    C8    A    
C26   N2    A    
Cu1   O8    S    
C12   C23   A    
C26   C27   A    
C18   H37   S    
C23   C45   A    
C35   H10   S    
C22   C29   S    
C20   H2    S    
C19   H38   S    
C41   H28   S    
C5    C6    A    
C27   H6    S    
C16   O8    A    
C10   C17   A    
C26   O3    S    
C37   H18   S    
C2    C32   A    
C18   C19   A    
C24   C29   A    
C7    H12   S    
Cu2   O9    S    
C4    O7    A    
C41   O4    S    
C8    C9    A    
C31   C46   A    
C34   C46   A    
C32   H9    S    
Cu2   O5    S    
C36   H14   S    
C15   H36   S    
C28   O11   A    
C38   H20   S    
C42   H30   S    
Cu1   O1    S    
C21   C22   A    
Cu2   N1    S    
C42   H32   S    
C8    H23   S    
C37   O2    S    
C1    C6    S    
C30   C47   A    
C24   C25   A    
C19   N1    A    
C41   H29   S    
C36   H16   S    
C1    O5    A    
C11   H34   S    
C24   H4    S    
C30   H7    S    
C10   H33   S    
C40   H27   S    
C36   O12   S    
C2    C4    S    
C43   C44   A    
C37   C38   S    
C3    C9    A    
C4    O6    A    
C37   H17   S    
C25   H5    S    
C12   C35   A    
C44   O2    S    
C28   O10   A    
C9    C17   S    
Cu1   Cu2   S    
C38   H19   S    
Cu1   N2    S    
C46   H8    S    
C30   C43   A    
C12   C34   A    
C39   O3    S    
C39   C40   S    
C44   C45   A    
C3    H13   S    
C15   C17   A    
Cu1   O10   S    
C18   C22   A    
C28   C31   S    
C34   C43   A    
C3    C5    A    
C33   O4    S    
C6    C7    A    
C25   N2    A    
C40   H26   S    
C32   C33   A    
C36   H15   S    
Cu2   O11   S    
C11   C13   A    
C16   O9    A    
C20   N1    A    
C33   C35   A    
C40   H25   S    
C39   H24   S    
Cu2   O7    S    
C5    H1    S    
C10   C11   A    
C20   C21   A    
C13   C16   S    
C2    C23   A    
C39   H22   S    
C14   C15   A    
C31   C47   A    
C13   C14   A    
C21   H3    S    
