data_mof_unit_49973.cif
_audit_creation_date              2013-03-05T16:10:29-0500
_audit_creation_method            fapswitch 2.2
_symmetry_space_group_name_H-M    P1
_symmetry_Int_Tables_number       1
_space_group_crystal_system       triclinic
_cell_length_a                    10.695741
_cell_length_b                    9.845304
_cell_length_c                    14.920285
_cell_angle_alpha                 90.057678
_cell_angle_beta                  90.388442
_cell_angle_gamma                 90.049616
_cell_volume                      1571.11060873

loop_
_atom_site_label
_atom_site_type_symbol
_atom_site_description
_atom_site_fract_x
_atom_site_fract_y
_atom_site_fract_z
_atom_type_partial_charge
O1    O     O_R   0.316770 0.614620 0.499990 -0.620722
O2    O     O_R   0.683230 0.385380 0.500010 -0.620721
O3    O     O_R   0.683230 0.614620 0.500010 -0.631139
O4    O     O_R   0.316770 0.385380 0.499990 -0.631140
C1    C     C_R   0.259936 0.499914 0.500768 0.887750
C2    C     C_R   0.740064 0.500086 0.499231 0.887753
O5    O     O_R   0.499980 0.614680 0.367850 -0.598762
O6    O     O_R   0.500020 0.385320 0.632150 -0.598762
O7    O     O_R   0.500020 0.614680 0.632150 -0.619051
O8    O     O_R   0.499980 0.385320 0.367850 -0.619054
C3    C     C_R   0.497018 0.499918 0.327102 0.929145
C4    C     C_R   0.502982 0.500082 0.672898 0.929148
Zn1   Zn    Zn3+2 0.500000 0.653120 0.500000 0.970055
Zn2   Zn    Zn3+2 0.500000 0.346880 0.500000 0.970054
C5    C     C_R   0.620691 0.484002 0.814395 0.072597
C6    C     C_R   0.379314 0.515993 0.185604 0.072592
C7    C     C_R   0.507165 0.500733 0.768178 -0.090562
C8    C     C_R   0.492838 0.499266 0.231822 -0.090561
C9    C     C_R   0.394354 0.515786 0.811657 -0.269985
C10   C     C_R   0.605650 0.484208 0.188344 -0.269983
C11   C     C_R   0.390740 0.509432 0.903768 0.096407
C12   C     C_R   0.609265 0.490555 0.096233 0.096404
C13   C     C_R   0.503138 0.501624 0.953159 -0.004302
C14   C     C_R   0.496868 0.498362 0.046841 -0.004303
C15   C     C_R   0.621191 0.497342 0.908773 0.073903
C16   C     C_R   0.378815 0.502643 0.091226 0.073910
C17   C     C_R   0.275221 0.505237 0.946059 -0.207015
C18   C     C_R   0.724784 0.494745 0.053942 -0.207007
C19   C     C_R   0.267342 0.494407 0.038853 0.201502
C20   C     C_R   0.732664 0.505571 0.961148 0.201493
H1    H     H_    0.308359 0.525191 0.772961 0.142410
H2    H     H_    0.691644 0.474803 0.227041 0.142410
H3    H     H_    0.190147 0.503612 0.905935 0.158326
H4    H     H_    0.809858 0.496367 0.094067 0.158321
C21   C     C_R   0.063780 0.380865 0.477449 -0.162214
C22   C     C_R   0.936220 0.619135 0.522548 -0.162211
C23   C     C_R   0.935756 0.381141 0.476572 -0.173377
C24   C     C_R   0.064244 0.618859 0.523425 -0.173376
H5    H     H_    0.112520 0.288604 0.459042 0.155046
H6    H     H_    0.887480 0.711396 0.540956 0.155047
H7    H     H_    0.886631 0.288984 0.457793 0.157991
H8    H     H_    0.113369 0.711016 0.542205 0.157991
C25   C     C_R   0.872511 0.500254 0.499150 0.001408
C26   C     C_R   0.127489 0.499746 0.500848 0.001407
C27   C     C_R   0.581609 0.072101 0.553108 -0.060389
C28   C     C_R   0.418391 0.927899 0.446892 -0.060388
C29   C     C_R   0.418387 0.071775 0.446897 -0.067261
C30   C     C_R   0.581613 0.928225 0.553103 -0.067262
H9    H     H_    0.646847 0.126733 0.595582 0.154866
H10   H     H_    0.353152 0.873267 0.404418 0.154866
H11   H     H_    0.353132 0.126150 0.404435 0.134576
H12   H     H_    0.646868 0.873850 0.595565 0.134577
N1    N     N_R   0.500000 0.857200 0.500000 -0.086125
N2    N     N_R   0.500000 0.142800 0.500000 -0.086125
I1    I     I_    0.776548 0.408568 0.738357 -0.433891
I2    I     I_    0.223456 0.591442 0.261633 -0.433883
C31   C     C_3   0.141477 0.454690 0.075632 -0.864789
H13   H     H_    0.085520 0.398068 0.024871 0.230220
H14   H     H_    0.152146 0.384378 0.133241 0.262093
H15   H     H_    0.087593 0.546655 0.094078 0.261274
C32   C     C_3   0.858535 0.545270 0.924369 -0.864763
H16   H     H_    0.914515 0.601856 0.975137 0.230208
H17   H     H_    0.912397 0.453297 0.905905 0.261282
H18   H     H_    0.847872 0.615609 0.866773 0.262091

loop_
_geom_bond_atom_site_label_1
_geom_bond_atom_site_label_2
_geom_bond_distance
_ccdc_geom_bond_type
C4    C7    1.422028 S    
C23   C25   1.396409 A    
O5    Zn1   2.007332 S    
C21   H5    1.083763 S    
C13   C14   1.400218 A    
C6    I2    2.154904 S    
C3    C8    1.422026 S    
C24   C26   1.396409 A    
C30   N1    1.366435 A    
C17   C19   1.391839 A    
C10   C12   1.376610 A    
C28   H10   1.081878 S    
C8    C10   1.381815 A    
O3    Zn1   1.996420 S    
C27   H9    1.081879 S    
O6    C4    1.282777 A    
O3    C2    1.281580 A    
C9    H1    1.086712 S    
C18   C20   1.391843 A    
C11   C17   1.391759 A    
C18   H4    1.085912 S    
O4    Zn2   1.996422 S    
C12   C18   1.391753 A    
C17   H3    1.085912 S    
C32   H18   1.109529 S    
O5    C3    1.282778 A    
C21   C26   1.396665 A    
C31   H13   1.111314 S    
O2    C2    1.282163 A    
C29   N2    1.366437 A    
O1    C1    1.282164 A    
C31   H15   1.109166 S    
C28   N1    1.366403 A    
C22   C24   1.369288 A    
Zn2   N2    2.009230 S    
C1    C26   1.416622 S    
C19   C31   1.508608 S    
C27   N2    1.366401 A    
C24   H8    1.083732 S    
C30   H12   1.081862 S    
Zn1   N1    2.009230 S    
C2    C25   1.416623 S    
C11   C13   1.408011 A    
C23   H7    1.083731 S    
C32   H16   1.111334 S    
O2    Zn2   1.995775 S    
O7    C4    1.282483 A    
C12   C14   1.408007 A    
C5    C15   1.414111 A    
C31   H14   1.109516 S    
O8    C3    1.282481 A    
C20   C32   1.508612 S    
C22   H6    1.083763 S    
C13   C15   1.430396 A    
O1    Zn1   1.995778 S    
C21   C23   1.369289 A    
C16   C19   1.423314 A    
C6    C8    1.402219 A    
C10   H2    1.086712 S    
C27   C30   1.416507 A    
C15   C20   1.423323 A    
C32   H17   1.109180 S    
O7    Zn1   2.008079 S    
C28   C29   1.416507 A    
C22   C25   1.396665 A    
C29   H11   1.081862 S    
O6    Zn2   2.007330 S    
C7    C9    1.381814 A    
C5    C7    1.402223 A    
C14   C16   1.430391 A    
O8    Zn2   2.008080 S    
O4    C1    1.281579 A    
C9    C11   1.376606 A    
C6    C16   1.414103 A    
C5    I1    2.154913 S    
