data_mof_unit_9950.cif
_audit_creation_date              2012-10-26T18:28:23-0400
_audit_creation_method            fapswitch 2.2
_symmetry_space_group_name_H-M    P1
_symmetry_Int_Tables_number       1
_space_group_crystal_system       triclinic
_cell_length_a                    27.776455
_cell_length_b                    11.03711
_cell_length_c                    9.811349
_cell_angle_alpha                 111.229933
_cell_angle_beta                  97.747683
_cell_angle_gamma                 90.949614
_cell_volume                      2771.18656631

loop_
_atom_site_label
_atom_site_type_symbol
_atom_type_description
_atom_site_fract_x
_atom_site_fract_y
_atom_site_fract_z
_atom_type_partial_charge
C1    C     C_R   0.496486 0.254049 0.440568 0.564564
C2    C     C_R   0.867219 0.399326 0.386849 0.034013
C3    C     C_R   0.354708 0.499688 0.506480 0.003485
C4    C     C_R   0.645294 0.500426 0.493574 0.003513
C5    C     C_R   0.969432 0.391442 0.403098 0.034700
C6    C     C_R   0.030671 0.610186 0.598171 0.036629
C7    C     C_R   0.979381 0.619586 0.580648 0.001645
C8    C     C_R   0.020678 0.381929 0.421065 0.004863
C9    C     C_R   0.949148 0.505921 0.490687 0.001249
C10   C     C_R   0.050925 0.495606 0.510598 0.003660
C11   C     C_R   0.937639 0.294932 0.290701 -0.066822
C12   C     C_R   0.503514 0.745950 0.559432 0.564597
C13   C     C_R   0.062570 0.706731 0.710161 -0.068806
C14   C     C_R   0.887459 0.295718 0.286380 -0.082774
C15   C     C_R   0.112735 0.705899 0.713989 -0.084672
C16   C     C_R   0.407495 0.500052 0.501892 0.554867
C17   C     C_R   0.592505 0.499960 0.498112 0.555124
C18   C     C_R   0.043714 0.263111 0.359172 0.201599
C19   C     C_R   0.956245 0.738147 0.643366 0.218762
C20   C     C_2   0.494566 0.114646 0.407029 -0.120043
C21   C     C_2   0.505434 0.885354 0.592971 -0.119962
C22   C     C_2   0.500897 0.069583 0.516568 -0.153942
C23   C     C_R   0.102235 0.493659 0.517165 -0.036886
C24   C     C_2   0.499103 0.930417 0.483432 -0.153978
C25   C     C_2   0.504195 0.510410 0.081161 -0.023369
C26   C     C_2   0.495805 0.489590 0.918839 -0.023436
C27   C     C_R   0.173615 0.385874 0.429818 0.409131
C28   C     C_R   0.826357 0.614884 0.571235 0.410115
C29   C     C_R   0.183296 0.601445 0.611355 0.407243
C30   C     C_R   0.816803 0.399728 0.388810 0.408696
C31   C     C_R   0.271795 0.490708 0.385299 -0.052232
C32   C     C_R   0.728196 0.509322 0.614781 -0.051426
C33   C     C_R   0.321762 0.491676 0.381005 -0.137428
C34   C     C_R   0.897824 0.507659 0.483836 -0.037940
C35   C     C_R   0.678224 0.508144 0.618963 -0.136612
C36   C     C_R   0.336727 0.506646 0.636189 -0.141700
C37   C     C_R   0.663296 0.493940 0.364048 -0.141240
C38   C     C_R   0.286722 0.505111 0.640005 -0.052218
C39   C     C_R   0.713309 0.495704 0.360352 -0.051243
C40   C     C_R   0.254046 0.497242 0.514656 0.236683
C41   C     C_R   0.745970 0.503316 0.485632 0.236394
C42   C     C_R   0.123003 0.382749 0.429029 -0.008688
C43   C     C_R   0.876984 0.618229 0.572325 -0.015668
C44   C     C_R   0.093515 0.268242 0.351579 -0.070756
C45   C     C_R   0.906424 0.732647 0.650612 -0.054628
C46   C     C_R   0.132896 0.602069 0.613603 0.034094
Cu1   Cu    Cu3+1 0.508480 0.521810 0.644910 0.949474
Cu2   Cu    Cu3+1 0.491520 0.478190 0.355090 0.949248
H1    H     H_    0.361222 0.512423 0.734408 0.130586
H2    H     H_    0.726745 0.491788 0.260336 0.140487
H3    H     H_    0.110019 0.178846 0.296004 0.184149
H4    H     H_    0.889878 0.821887 0.706641 0.211917
H5    H     H_    0.665425 0.512967 0.720168 0.138233
H6    H     H_    0.334544 0.486475 0.279654 0.137734
H7    H     H_    0.753188 0.514793 0.711935 0.142873
H8    H     H_    0.246788 0.485017 0.288085 0.141850
H9    H     H_    0.864614 0.215714 0.202553 0.183352
H10   H     H_    0.135640 0.785931 0.797569 0.179622
H11   H     H_    0.951074 0.218860 0.203173 0.196549
H12   H     H_    0.638811 0.488402 0.265904 0.130781
H13   H     H_    0.049285 0.782653 0.798064 0.193417
H14   H     H_    0.492529 0.864443 0.368288 0.157898
H15   H     H_    0.507472 0.135557 0.631712 0.157969
H16   H     H_    0.074316 0.969226 0.301695 0.354252
H17   H     H_    0.952056 0.073004 0.664489 0.394573
H18   H     H_    0.512025 0.951605 0.707920 0.108642
H19   H     H_    0.487975 0.048395 0.292080 0.108535
H20   H     H_    0.467472 0.417555 0.846143 0.146117
H21   H     H_    0.532528 0.582445 0.153858 0.146271
H22   H     H_    0.547913 0.622300 0.934141 0.205904
H23   H     H_    0.452087 0.377700 0.065859 0.205665
H24   H     H_    0.273303 0.509427 0.740178 0.139384
N1    N     N_R   0.202541 0.495122 0.518217 -0.395958
N2    N     N_R   0.797485 0.505729 0.482241 -0.395666
N3    N     N_2   0.478780 0.445430 0.137360 -0.352026
N4    N     N_2   0.521220 0.554570 0.862640 -0.351953
O1    O     O_R   0.504520 0.332330 0.577400 -0.497798
O2    O     O_2   0.806060 0.720385 0.656995 -0.476752
O3    O     O_2   0.787425 0.294454 0.299619 -0.482325
O4    O     O_2   0.212731 0.706797 0.700009 -0.484615
O5    O     O_2   0.975733 0.114578 0.414986 -0.215934
O6    O     O_2   0.000455 0.032334 0.168472 -0.270630
O7    O     O_3   0.060213 0.021956 0.390328 -0.445476
O8    O     O_2   0.999398 0.967113 0.836999 -0.276402
O9    O     O_2   0.023674 0.889125 0.588945 -0.199806
O10   O     O_3   0.938982 0.980830 0.619038 -0.471625
O11   O     O_R   0.495480 0.667670 0.422600 -0.497851
O12   O     O_R   0.490210 0.295500 0.332650 -0.485466
O13   O     O_R   0.509790 0.704500 0.667350 -0.485415
O14   O     O_R   0.437420 0.518430 0.622370 -0.500221
O15   O     O_R   0.562580 0.481570 0.377630 -0.500070
O16   O     O_R   0.423110 0.481600 0.377610 -0.492861
O17   O     O_R   0.576890 0.518400 0.622390 -0.492657
O18   O     O_2   0.193845 0.280071 0.344392 -0.482309
S1    S     S_3+6 0.017659 0.105625 0.330517 0.039939
S2    S     S_3+6 0.982133 0.896349 0.674554 0.039238

loop_
_geom_bond_atom_site_label_1
_geom_bond_atom_site_label_2
_ccdc_geom_bond_type
H23   N3    S    
C16   O14   A    
C21   H18   S    
C35   H5    S    
C1    O1    A    
C20   H19   S    
C17   O15   A    
C28   N2    A    
H17   O10   S    
C39   C41   A    
C31   C40   A    
C23   C42   A    
Cu1   N4    S    
C5    C11   A    
C30   N2    A    
C11   C14   A    
C29   N1    A    
C3    C33   A    
C40   N1    S    
O8    S2    D    
C22   H15   S    
Cu2   O15   S    
C26   N4    D    
C32   C41   A    
Cu2   O12   S    
C31   H8    S    
C28   O2    S    
C32   H7    S    
C2    C34   A    
C1    O12   A    
C41   N2    S    
C4    C35   A    
C23   C46   A    
C18   S1    S    
Cu1   O13   S    
Cu2   N3    S    
C42   C44   A    
C11   H11   S    
C38   H24   S    
C32   C35   A    
C12   O13   A    
C45   H4    S    
C25   C26   S    
C12   C21   S    
C8    C18   A    
C25   N3    D    
H16   O7    S    
C5    C9    A    
C18   C44   A    
Cu1   Cu2   S    
O7    S1    S    
C31   C33   A    
Cu1   O17   S    
Cu2   O11   S    
C43   C45   A    
O10   S2    S    
C30   O3    S    
C44   H3    S    
C20   C22   D    
C16   O16   A    
C7    C19   A    
C13   C15   A    
H22   N4    S    
C9    C34   A    
C15   H10   S    
C22   C24   S    
C17   O17   A    
C4    C17   S    
C25   H21   S    
C33   H6    S    
C7    C9    A    
C14   H9    S    
C1    C20   S    
C24   H14   S    
O6    S1    D    
C12   O11   A    
C34   C43   A    
C6    C10   A    
C5    C8    A    
C19   C45   A    
C6    C7    A    
C10   C23   A    
C28   C43   A    
C29   C46   A    
C2    C30   A    
C26   H20   S    
C36   C38   A    
C37   C39   A    
C6    C13   A    
C38   C40   A    
C27   C42   A    
C29   O4    S    
C3    C36   A    
O5    S1    D    
O9    S2    D    
C2    C14   A    
Cu1   O14   S    
C37   H12   S    
C3    C16   S    
C19   S2    S    
C39   H2    S    
C13   H13   S    
C4    C37   A    
C8    C10   A    
Cu2   O16   S    
C21   C24   D    
Cu1   O1    S    
C27   O18   S    
C15   C46   A    
C27   N1    A    
C36   H1    S    
