data_mof_unit_56844.cif
_audit_creation_date              2013-03-05T16:05:18-0500
_audit_creation_method            fapswitch 2.2
_symmetry_space_group_name_H-M    P1
_symmetry_Int_Tables_number       1
_space_group_crystal_system       triclinic
_cell_length_a                    10.776895
_cell_length_b                    9.673451
_cell_length_c                    15.918345
_cell_angle_alpha                 89.983685
_cell_angle_beta                  92.849562
_cell_angle_gamma                 90.367157
_cell_volume                      1657.39776684

loop_
_atom_site_label
_atom_site_type_symbol
_atom_site_description
_atom_site_fract_x
_atom_site_fract_y
_atom_site_fract_z
_atom_type_partial_charge
O1    O     O_R   0.319660 0.618740 0.500000 -0.580654
O2    O     O_R   0.319660 0.381260 0.500000 -0.589635
C1    C     C_R   0.263118 0.499579 0.500316 0.827383
O3    O     O_R   0.500020 0.618840 0.379440 -0.562324
O4    O     O_R   0.500020 0.381160 0.379440 -0.600415
C2    C     C_R   0.498632 0.500010 0.340710 0.943546
Cu1   Cu    Cu3+1 0.500020 0.640660 0.500000 0.989815
Cu2   Cu    Cu3+1 0.500020 0.359340 0.500000 0.961866
O5    O     O_R   0.680370 0.618830 0.500010 -0.596625
O6    O     O_R   0.680370 0.381170 0.500010 -0.563601
O7    O     O_R   0.500010 0.618730 0.620560 -0.558509
O8    O     O_R   0.500010 0.381270 0.620560 -0.615059
C3    C     C_R   0.736957 0.500357 0.500897 0.823586
C4    C     C_R   0.500594 0.500028 0.659197 0.784650
C5    C     C_3   0.429225 0.646032 0.047808 -0.082061
C6    C     C_3   0.414625 0.368594 0.047562 -0.088999
C7    C     C_3   0.434750 0.355203 0.946567 0.090280
C8    C     C_3   0.412272 0.632539 0.945309 0.010848
C9    C     C_1   0.498677 0.500269 0.748161 -0.155929
C10   C     C_3   0.494304 0.503181 0.083072 -0.088515
C11   C     C_3   0.495285 0.501257 0.915912 0.029072
C12   C     C_3   0.639315 0.516579 0.954140 0.246052
C13   C     C_3   0.638752 0.496723 0.055126 0.309581
C14   C     C_1   0.496775 0.500726 0.823280 -0.107648
C15   C     C_1   0.495612 0.501737 0.176074 -0.071930
C16   C     C_1   0.496979 0.500369 0.251423 -0.057434
C17   C     C_R   0.059080 0.469625 0.425258 -0.057956
C18   C     C_R   0.071244 0.527831 0.576372 -0.044577
C19   C     C_R   0.929152 0.474752 0.425152 -0.025726
C20   C     C_R   0.940669 0.522249 0.577518 -0.053432
C21   C     C_R   0.871275 0.501443 0.501016 -0.119012
C22   C     C_R   0.128883 0.498647 0.500652 -0.134497
C23   C     C_R   0.420145 0.073659 0.445996 0.274320
C24   C     C_R   0.420617 0.925305 0.445650 0.230031
N1    N     N_R   0.500030 0.852070 0.500020 -0.216078
N2    N     N_R   0.500030 0.147930 0.500020 -0.214487
C25   C     C_R   0.578454 0.926488 0.553960 0.034949
C26   C     C_R   0.579723 0.074577 0.553165 0.017498
C27   C     C_3   0.272704 0.613504 0.913884 -0.794097
H1    H     H_    0.218344 0.550363 0.956132 0.221786
H2    H     H_    0.219492 0.711673 0.911107 0.259215
H3    H     H_    0.264520 0.573564 0.848472 0.257017
C28   C     C_3   0.315213 0.305696 0.893225 -0.647903
H4    H     H_    0.228468 0.362024 0.897736 0.250518
H5    H     H_    0.331412 0.302359 0.824796 0.184176
H6    H     H_    0.289793 0.198282 0.911350 0.293629
C29   C     C_2   0.661678 0.853540 0.615180 0.473795
H7    H     H_    0.743802 0.802228 0.594764 0.078050
O9    O     O_2   0.641820 0.856630 0.689994 -0.569500
C30   C     C_2   0.671222 0.148566 0.608988 0.477121
H8    H     H_    0.641985 0.204481 0.663329 0.081798
O10   O     O_2   0.781828 0.141928 0.596346 -0.547469
C31   C     C_2   0.305555 0.682025 0.087256 0.330175
H9    H     H_    0.230869 0.731108 0.050781 0.136922
O11   O     O_2   0.293387 0.675859 0.163142 -0.543662
C32   C     C_2   0.278545 0.382561 0.071422 0.344923
H10   H     H_    0.257635 0.436389 0.128291 0.141696
O12   O     O_2   0.194184 0.312552 0.039433 -0.523175
C33   C     C_2   0.445546 0.236120 0.097477 0.473366
H11   H     H_    0.509512 0.236763 0.152011 0.045751
O13   O     O_2   0.389512 0.127938 0.082014 -0.418370
C34   C     C_2   0.504533 0.769774 0.083455 0.412193
H12   H     H_    0.535132 0.768292 0.149525 0.109895
O14   O     O_2   0.524445 0.875638 0.044984 -0.459049
C35   C     C_2   0.519429 0.237221 0.919643 0.375196
H13   H     H_    0.556337 0.241589 0.857421 0.089889
O15   O     O_2   0.535610 0.129836 0.958454 -0.445761
C36   C     C_2   0.442445 0.765992 0.897054 0.516816
H14   H     H_    0.502815 0.765184 0.844809 0.105131
O16   O     O_2   0.388661 0.874348 0.910019 -0.454128
C37   C     C_3   0.729049 0.602982 0.103289 -0.781354
H15   H     H_    0.827746 0.581092 0.091105 0.237298
H16   H     H_    0.720667 0.712575 0.086334 0.221179
H17   H     H_    0.721096 0.596601 0.172202 0.268050
C38   C     C_3   0.701194 0.357979 0.085597 -0.819520
H18   H     H_    0.696898 0.345084 0.154744 0.228470
H19   H     H_    0.662509 0.265016 0.055297 0.245598
H20   H     H_    0.801685 0.355167 0.072969 0.247282
C39   C     C_3   0.697010 0.659189 0.928350 -0.782686
H21   H     H_    0.693001 0.672232 0.858925 0.250696
H22   H     H_    0.655366 0.749632 0.956346 0.242855
H23   H     H_    0.797113 0.668097 0.948206 0.245540
C40   C     C_3   0.735166 0.416957 0.912646 -0.758421
H24   H     H_    0.727611 0.422484 0.842924 0.246073
H25   H     H_    0.832541 0.446147 0.931677 0.252856
H26   H     H_    0.733107 0.307184 0.930085 0.220896
C41   C     C_2   0.120713 0.441232 0.345248 0.316519
H27   H     H_    0.083626 0.362949 0.302073 0.070643
O17   O     O_2   0.211422 0.507609 0.325631 -0.556161
C42   C     C_2   0.149068 0.566758 0.652806 0.482185
H28   H     H_    0.237547 0.516813 0.666263 0.015017
O18   O     O_2   0.117294 0.658916 0.699390 -0.505792
C43   C     C_2   0.854199 0.459272 0.344698 0.337235
H29   H     H_    0.874337 0.378395 0.300372 0.057543
O19   O     O_2   0.771510 0.540756 0.326147 -0.576111
C44   C     C_2   0.875155 0.529489 0.658017 0.452201
H30   H     H_    0.781514 0.569481 0.658886 0.024028
O20   O     O_2   0.922550 0.484216 0.723568 -0.514724
C45   C     C_3   0.328518 0.144232 0.384329 -0.760153
H31   H     H_    0.327937 0.255675 0.383723 0.282470
H32   H     H_    0.347714 0.114933 0.318887 0.207410
H33   H     H_    0.232040 0.114453 0.398036 0.200957
C46   C     C_3   0.330122 0.853731 0.383053 -0.661720
H34   H     H_    0.328037 0.742241 0.382852 0.297831
H35   H     H_    0.233396 0.883280 0.395245 0.202453
H36   H     H_    0.351651 0.882734 0.317904 0.219045

loop_
_geom_bond_atom_site_label_1
_geom_bond_atom_site_label_2
_geom_bond_distance
_ccdc_geom_bond_type
C5    C8    1.637922 S    
C41   H27   1.083809 S    
C43   H29   1.083875 S    
C17   C19   1.401333 A    
C8    C11   1.639703 S    
C28   H4    1.090510 S    
C39   H23   1.111781 S    
C7    C28   1.579067 S    
Cu1   Cu2   2.721335 S    
C29   O9    1.220821 D    
C2    C16   1.420529 S    
C31   H9    1.081054 S    
Cu1   O7    1.930749 S    
C25   C26   1.432559 A    
C5    C31   1.543091 S    
N1    C25   1.374845 A    
C12   C39   1.572360 S    
O4    C2    1.304223 A    
O7    C4    1.302347 A    
C10   C15   1.479854 S    
C8    C36   1.543120 S    
C23   N2    1.384093 A    
C32   H10   1.078644 S    
C24   N1    1.384611 A    
Cu2   N2    2.045066 S    
C8    C27   1.571041 S    
O5    C3    1.301389 A    
C34   O14   1.216423 D    
C29   H7    1.081487 S    
C6    C7    1.638162 S    
C35   O15   1.217542 D    
C44   O20   1.221114 D    
C30   O10   1.220773 D    
C25   C29   1.474071 S    
C6    C10   1.640028 S    
C33   H11   1.081328 S    
C43   O19   1.218742 D    
C11   C12   1.644618 S    
O3    Cu1   1.930748 S    
C28   H6    1.114437 S    
C23   C24   1.435143 A    
C27   H3    1.109933 S    
C31   O11   1.222928 D    
C5    C10   1.639933 S    
C33   O13   1.223792 D    
C13   C37   1.582648 S    
C18   C22   1.412541 A    
O3    C2    1.304200 A    
C27   H1    1.096762 S    
C39   H22   1.091154 S    
C36   H14   1.081137 S    
C15   C16   1.198864 T    
C7    C11   1.636855 S    
O1    C1    1.300514 A    
C6    C33   1.537252 S    
C38   H18   1.110933 S    
C6    C32   1.539855 S    
C34   H12   1.086580 S    
C37   H17   1.106235 S    
C38   H19   1.091142 S    
C42   O18   1.221222 D    
C40   H24   1.110095 S    
C10   C13   1.641721 S    
Cu2   O8    1.930869 S    
C44   H30   1.083807 S    
C40   H26   1.097864 S    
C30   H8    1.081505 S    
C46   H35   1.109026 S    
C17   C41   1.491768 S    
C28   H5    1.112216 S    
C36   O16   1.223534 D    
C40   H25   1.112378 S    
O8    C4    1.303068 A    
C41   O17   1.219687 D    
C37   H16   1.097064 S    
Cu1   O5    1.956389 S    
C45   H32   1.109360 S    
C17   C22   1.411652 A    
O1    Cu1   1.953901 S    
Cu1   N1    2.045064 S    
C4    C9    1.417341 S    
C3    C21   1.447409 S    
O2    Cu2   1.956603 S    
C13   C38   1.571044 S    
O6    C3    1.300587 A    
O4    Cu2   1.930629 S    
C26   C30   1.475951 S    
C7    C35   1.539988 S    
C24   C46   1.522672 S    
C45   H31   1.078129 S    
C12   C40   1.585231 S    
C18   C20   1.408914 A    
O2    C1    1.300224 A    
C37   H15   1.112314 S    
C19   C21   1.411106 A    
C19   C43   1.486876 S    
C42   H28   1.083541 S    
C20   C21   1.410827 A    
N2    C26   1.375517 A    
C5    C34   1.534807 S    
C32   O12   1.220981 D    
C9    C14   1.196976 T    
C46   H36   1.109492 S    
C1    C22   1.446880 S    
C38   H20   1.111763 S    
C20   C44   1.495336 S    
C39   H21   1.111010 S    
C45   H33   1.109200 S    
C27   H2    1.112224 S    
Cu2   O6    1.953698 S    
C35   H13   1.086259 S    
C11   C14   1.475445 S    
C46   H34   1.078584 S    
C12   C13   1.619221 S    
C18   C42   1.490089 S    
C23   C45   1.522043 S    
