data_mof_unit_57581.cif
_audit_creation_date              2012-12-11T14:36:27-0500
_audit_creation_method            fapswitch 2.2
_symmetry_space_group_name_H-M    P1
_symmetry_Int_Tables_number       1
_space_group_crystal_system       triclinic
_cell_length_a                    13.553553
_cell_length_b                    13.591786
_cell_length_c                    27.473713
_cell_angle_alpha                 91.09835
_cell_angle_beta                  90.071698
_cell_angle_gamma                 59.94553
_cell_volume                      4379.64617511

loop_
_atom_site_label
_atom_site_type_symbol
_atom_type_description
_atom_site_fract_x
_atom_site_fract_y
_atom_site_fract_z
_atom_type_partial_charge
C1    C     C_R   0.620524 0.102484 0.569496 0.545888
C2    C     C_1   0.632495 0.726039 0.661574 -0.064242
C3    C     C_3   0.588155 0.951229 0.810578 -0.445236
C4    C     C_3   0.117885 0.134012 0.742317 -0.105233
C5    C     C_R   0.597616 0.783026 0.569515 0.545100
C6    C     C_3   0.199645 0.048307 0.779593 -0.106185
C7    C     C_1   0.110954 0.192969 0.904703 -0.020616
C8    C     C_1   0.247858 0.130310 0.621020 -0.016379
C9    C     C_3   0.102515 0.233805 0.775798 -0.101537
C10   C     C_3   0.184698 0.147782 0.812440 0.052288
C11   C     C_3   0.204254 0.233409 0.750496 -0.098923
C12   C     C_3   0.218649 0.134320 0.717534 0.051325
C13   C     C_1   0.621988 0.746102 0.618769 -0.014941
C14   C     C_3   0.286692 0.147244 0.787750 -0.102476
C15   C     C_3   0.301693 0.047534 0.753822 -0.107483
C16   C     C_1   0.150922 0.166900 0.864089 -0.062764
C17   C     C_R   0.281858 0.120290 0.570797 0.544086
C18   C     C_1   0.232164 0.132563 0.664388 -0.063405
C19   C     C_3   0.627099 0.301897 0.734751 -0.085108
C20   C     C_3   0.566840 0.272331 0.775241 -0.116248
C21   C     C_1   0.702929 0.216056 0.899215 -0.016221
C22   C     C_1   0.637806 0.141575 0.615576 -0.017560
C23   C     C_3   0.740531 0.236702 0.762742 0.050904
C24   C     C_3   0.663523 0.575610 0.765576 -0.115746
C25   C     C_3   0.680638 0.207496 0.802601 0.047536
C26   C     C_3   0.770007 0.125543 0.735014 -0.087750
C27   C     C_3   0.656839 0.190121 0.707957 0.045109
C28   C     C_3   0.709657 0.096673 0.775112 -0.119273
C29   C     C_R   0.622059 0.098358 0.430979 0.545847
C30   C     C_3   0.595700 0.161162 0.747241 -0.112661
C31   C     C_1   0.691377 0.211957 0.855754 -0.065834
C32   C     C_1   0.647165 0.168436 0.656484 -0.063066
C33   C     C_R   0.736431 0.701691 0.359952 -0.137851
C34   C     C_R   0.748556 0.683342 0.309570 0.016156
C35   C     C_3   0.657599 0.655877 0.806978 0.044502
C36   C     C_R   0.762406 0.662830 0.207625 0.016141
C37   C     C_R   0.851758 0.660774 0.234239 -0.134576
C38   C     C_R   0.844548 0.671710 0.284970 -0.136556
C39   C     C_R   0.771903 0.643101 0.157329 -0.136990
C40   C     C_R   0.683756 0.639179 0.132067 -0.005198
C41   C     C_R   0.602267 0.775243 0.430604 0.546767
C42   C     C_R   0.557363 0.700931 0.357310 -0.129448
C43   C     C_R   0.564438 0.690300 0.307144 0.013761
C44   C     C_R   0.659474 0.683185 0.282969 0.065702
C45   C     C_R   0.474321 0.693888 0.280768 -0.133706
C46   C     C_3   0.559391 0.676024 0.741668 -0.120839
C47   C     C_R   0.477296 0.692376 0.230271 -0.134206
C48   C     C_R   0.572445 0.682766 0.205899 0.013775
C49   C     C_R   0.664546 0.677063 0.232147 0.065386
C50   C     C_R   0.580401 0.670150 0.155771 -0.130429
C51   C     C_R   0.637578 0.716846 0.383342 -0.003858
C52   C     C_R   0.219734 0.053838 0.357309 -0.134055
C53   C     C_R   0.278028 0.120352 0.431214 0.548246
C54   C     C_R   0.191903 0.068598 0.307931 0.014157
C55   C     C_R   0.150494 0.096028 0.207398 0.015312
C56   C     C_R   0.177275 0.993029 0.229096 -0.126164
C57   C     C_3   0.639967 0.705102 0.713891 0.047774
C58   C     C_R   0.198817 0.979080 0.279007 -0.124885
C59   C     C_R   0.126217 0.112338 0.157697 -0.133146
C60   C     C_R   0.098331 0.216663 0.136907 -0.002217
C61   C     C_R   0.177018 0.250021 0.364495 -0.128312
C62   C     C_R   0.153065 0.264802 0.315223 0.013453
C63   C     C_R   0.162300 0.173311 0.286544 0.062390
C64   C     C_R   0.126588 0.367676 0.293760 -0.125321
C65   C     C_3   0.744118 0.604246 0.736882 -0.113073
C66   C     C_R   0.111588 0.379279 0.243745 -0.124181
C67   C     C_R   0.120034 0.289197 0.214959 0.011847
C68   C     C_3   0.552325 0.755087 0.784443 -0.085681
C69   C     C_R   0.144332 0.186050 0.236274 0.062234
C70   C     C_R   0.100468 0.302462 0.165371 -0.127220
C71   C     C_R   0.217482 0.142994 0.385008 -0.004844
C72   C     C_R   0.572452 0.236757 0.363883 -0.133413
C73   C     C_R   0.577643 0.255763 0.314245 0.015615
C74   C     C_R   0.587466 0.289884 0.214059 0.012888
C75   C     C_R   0.515669 0.381320 0.245143 -0.127044
C76   C     C_R   0.509894 0.364121 0.294860 -0.127561
C77   C     C_3   0.737836 0.684167 0.779232 -0.085019
C78   C     C_R   0.599878 0.306887 0.164880 -0.134976
C79   C     C_3   0.632619 0.784156 0.756240 0.051071
C80   C     C_R   0.677093 0.214979 0.135154 -0.004595
C81   C     C_R   0.718585 0.038510 0.351556 -0.126699
C82   C     C_R   0.721322 0.054885 0.302085 0.009971
C83   C     C_R   0.650495 0.163660 0.283151 0.062417
C84   C     C_R   0.791775 0.963036 0.271159 -0.126177
C85   C     C_R   0.792379 0.978567 0.221365 -0.126257
C86   C     C_R   0.724746 0.086872 0.202262 0.013564
C87   C     C_R   0.653305 0.180064 0.233079 0.062662
C88   C     C_R   0.733153 0.104566 0.153278 -0.128493
C89   C     C_1   0.693444 0.604979 0.900429 -0.015412
C90   C     C_1   0.675897 0.630722 0.858502 -0.063950
C91   C     C_R   0.641742 0.127650 0.382411 -0.000539
C92   C     C_R   0.050834 0.235205 0.950301 0.544456
C93   C     C_R   0.711279 0.562100 0.948401 0.544759
C94   C     C_R   0.725082 0.227227 0.949619 0.544699
C95   C     C_R   0.046416 0.246610 0.088791 0.546528
C96   C     C_R   0.707281 0.575886 0.086036 0.545838
C97   C     C_R   0.718246 0.234772 0.089309 0.548774
C98   C     C_3   0.829590 0.272765 0.767435 -0.284677
C99   C     C_3   0.847970 0.311754 0.717816 -0.444339
C100  C     C_3   0.615817 0.903437 0.757970 -0.281287
Cr1   Cr    Cr6+3 0.417550 0.169090 0.500530 1.021291
Cr2   Cr    Cr6+3 0.669180 0.913420 0.499920 1.019089
Cr3   Cr    Cr6+3 0.413260 0.917540 0.499520 1.019398
Cr4   Cr    Cr6+3 0.909170 0.177380 0.020380 1.020427
Cr5   Cr    Cr6+3 0.912710 0.429210 0.018220 1.018046
Cr6   Cr    Cr6+3 0.657170 0.432570 0.019030 1.020110
H1    H     H_    0.811562 0.687593 0.795019 0.100360
H2    H     H_    0.851109 0.621297 0.138823 0.119043
H3    H     H_    0.823504 0.543571 0.717070 0.103244
H4    H     H_    0.799434 0.712117 0.380196 0.116845
H5    H     H_    0.927009 0.650663 0.215831 0.091970
H6    H     H_    0.913769 0.671261 0.304927 0.093264
H7    H     H_    0.510694 0.670639 0.136110 0.128373
H8    H     H_    0.406757 0.695537 0.210316 0.095083
H9    H     H_    0.400713 0.700032 0.299183 0.092468
H10   H     H_    0.482070 0.709700 0.375287 0.128739
H11   H     H_    0.124601 0.046017 0.135747 0.119405
H12   H     H_    0.355318 0.153768 0.806899 0.101699
H13   H     H_    0.250433 0.971126 0.373135 0.124542
H14   H     H_    0.182252 0.923163 0.207451 0.101510
H15   H     H_    0.221235 0.898307 0.294947 0.100450
H16   H     H_    0.078491 0.383585 0.149789 0.130386
H17   H     H_    0.092973 0.458756 0.227588 0.099630
H18   H     H_    0.120086 0.438153 0.315473 0.101222
H19   H     H_    0.173330 0.319669 0.385931 0.129417
H20   H     H_    0.556210 0.392337 0.150839 0.126535
H21   H     H_    0.512702 0.305419 0.387689 0.116485
H22   H     H_    0.464737 0.466132 0.231080 0.107062
H23   H     H_    0.205685 0.309881 0.738004 0.104055
H24   H     H_    0.453561 0.435696 0.318203 0.103714
H25   H     H_    0.791336 0.033280 0.130132 0.127021
H26   H     H_    0.471820 0.812927 0.804278 0.098763
H27   H     H_    0.848014 0.906630 0.198005 0.104710
H28   H     H_    0.846503 0.879353 0.285533 0.107140
H29   H     H_    0.771246 0.953534 0.365325 0.131341
H30   H     H_    0.485891 0.672528 0.725705 0.104858
H31   H     H_    0.662968 0.495914 0.770918 0.115115
H32   H     H_    0.198120 0.971924 0.792131 0.102016
H33   H     H_    0.054908 0.120856 0.721928 0.106357
H34   H     H_    0.022181 0.311688 0.786761 0.107312
H35   H     H_    0.380043 0.968071 0.743233 0.110367
H36   H     H_    0.878539 0.241330 0.690376 0.148880
H37   H     H_    0.767754 0.383316 0.703991 0.150020
H38   H     H_    0.910892 0.340631 0.720368 0.136452
H39   H     H_    0.804198 0.340239 0.795796 0.140516
H40   H     H_    0.909483 0.198897 0.780094 0.145962
H41   H     H_    0.512475 0.950540 0.825271 0.148010
H42   H     H_    0.661972 0.900440 0.834503 0.152366
H43   H     H_    0.566766 0.040752 0.813043 0.139152
H44   H     H_    0.695028 0.899618 0.744830 0.143661
H45   H     H_    0.482953 0.332181 0.792214 0.104892
H46   H     H_    0.546163 0.958430 0.733243 0.136546
H47   H     H_    0.591566 0.386280 0.717769 0.096713
H48   H     H_    0.531694 0.135465 0.738928 0.110095
H49   H     H_    0.749363 0.012249 0.792186 0.109119
H50   H     H_    0.853859 0.065285 0.718070 0.099312
O1    O     O_R   0.301710 0.195650 0.554160 -0.508571
O2    O     O_R   0.635520 0.542770 0.964420 -0.509997
O3    O     O_R   0.665950 0.325030 0.970100 -0.495327
O4    O     O_R   0.522390 0.158990 0.550460 -0.496902
O5    O     O_R   0.816620 0.158530 0.074540 -0.518511
O6    O     O_R   0.004460 0.188870 0.069750 -0.499835
O7    O     O_R   0.025800 0.341780 0.072300 -0.523320
O8    O     O_R   0.807650 0.528950 0.067500 -0.502813
O9    O     O_R   0.633420 0.550490 0.071810 -0.523901
O10   O     O_R   0.664000 0.332180 0.069640 -0.501411
O11   O     O_3   0.826350 0.346390 0.019210 -0.248284
O12   O     O_R   0.658900 0.818120 0.449760 -0.502781
O13   O     O_R   0.694390 0.003530 0.554040 -0.507885
O14   O     O_R   0.657700 0.819660 0.549320 -0.496301
O15   O     O_R   0.501930 0.803280 0.552920 -0.509125
O16   O     O_R   0.318170 0.023580 0.549580 -0.495787
O17   O     O_R   0.303010 0.193990 0.446760 -0.519179
O18   O     O_R   0.523600 0.157450 0.450900 -0.499140
O19   O     O_R   0.695690 0.001860 0.446640 -0.523483
O20   O     O_R   0.503220 0.801620 0.445520 -0.523662
O21   O     O_R   0.319370 0.022040 0.450020 -0.502043
O22   O     O_3   0.499990 0.000010 0.499990 -0.249107
O23   O     O_R   0.818720 0.150820 0.967160 -0.509636
O24   O     O_R   0.006410 0.181720 0.970200 -0.496678
O25   O     O_R   0.027890 0.334070 0.964920 -0.506553
O26   O     O_R   0.809600 0.521790 0.967960 -0.497171

loop_
_geom_bond_atom_site_label_1
_geom_bond_atom_site_label_2
_ccdc_geom_bond_type
C44   C49   A    
C25   C31   S    
C47   H8    S    
C83   C87   A    
C55   C56   A    
Cr2   O14   S    
C94   O3    A    
C55   C59   A    
C80   C97   S    
C57   C79   S    
C99   H36   S    
Cr1   O17   S    
C19   C20   S    
C29   C91   S    
C29   O18   A    
C75   C76   A    
C81   C82   A    
C17   O16   A    
C53   O17   A    
C45   C47   A    
C20   C30   S    
C85   C86   A    
C100  H46   S    
C25   C28   S    
C3    H41   S    
C21   C31   T    
C84   H28   S    
C26   C27   S    
C37   C38   A    
C36   C39   A    
C22   C32   T    
Cr6   O10   S    
C99   H37   S    
C36   C37   A    
C40   C96   S    
C92   O25   A    
Cr4   O6    S    
C11   C14   S    
C86   C88   A    
Cr4   O23   S    
C21   C94   S    
Cr6   O3    S    
C41   O12   A    
C75   H22   S    
C23   C26   S    
C68   H26   S    
C2    C13   T    
C45   H9    S    
C62   C64   A    
Cr1   O22   S    
C92   O24   A    
C6    C15   S    
C15   H35   S    
C26   H50   S    
C3    C100  S    
C63   C69   A    
Cr1   O4    S    
C14   H12   S    
C20   C25   S    
C28   H49   S    
C5    O14   A    
Cr5   O7    S    
Cr5   O26   S    
C4    C12   S    
C17   O1    A    
C9    C10   S    
C5    C13   S    
C42   C51   A    
C61   C71   A    
C68   C79   S    
C48   C50   A    
C66   C67   A    
Cr1   O1    S    
C59   C60   A    
C59   H11   S    
C60   C95   S    
C27   C30   S    
Cr3   O15   S    
C56   H14   S    
Cr1   O18   S    
C61   C62   A    
C76   H24   S    
C29   O19   A    
C11   H23   S    
C52   C54   A    
C81   H29   S    
C77   C79   S    
C3    H42   S    
C39   H2    S    
C2    C57   S    
C24   C35   S    
C3    H43   S    
C74   C75   A    
C72   H21   S    
Cr6   O9    S    
C79   C100  S    
C77   H1    S    
C65   C77   S    
C84   C85   A    
C4    C6    S    
C10   C14   S    
C95   O6    A    
C39   C40   A    
C10   C16   S    
C72   C91   A    
C86   C87   A    
C98   H40   S    
C100  H44   S    
Cr2   O19   S    
Cr6   O2    S    
C35   C77   S    
C8    C18   T    
C96   O8    A    
C99   H38   S    
Cr3   O21   S    
C64   C66   A    
C6    H32   S    
C74   C87   A    
C19   C23   S    
C43   C44   A    
C35   C90   S    
C46   C68   S    
C62   C63   A    
C95   O7    A    
C9    C11   S    
C93   O26   A    
C70   H16   S    
C47   C48   A    
C12   C15   S    
C60   C70   A    
C33   C34   A    
C5    O15   A    
Cr5   O8    S    
C34   C44   A    
C40   C50   A    
C43   C45   A    
C65   H3    S    
C55   C69   A    
C24   C65   S    
C42   H10   S    
C7    C16   T    
C41   O20   A    
C98   C99   S    
C30   H48   S    
C82   C84   A    
C46   C57   S    
C74   C78   A    
Cr3   O16   S    
C19   H47   S    
C73   C76   A    
C42   C43   A    
C38   H6    S    
C53   C71   S    
Cr4   O5    S    
C19   C27   S    
C54   C58   A    
Cr5   O25   S    
C48   C49   A    
C58   H15   S    
Cr2   O12   S    
C66   H17   S    
C27   C32   S    
C34   C38   A    
Cr3   O22   S    
C1    O4    A    
C57   C65   S    
C72   C73   A    
C53   O21   A    
C6    C10   S    
C11   C12   S    
C98   H39   S    
C24   H31   S    
C33   C51   A    
C26   C28   S    
C8    C17   S    
C96   O9    A    
C20   H45   S    
C67   C70   A    
C24   C46   S    
Cr6   O11   S    
C50   H7    S    
C28   C30   S    
C4    C9    S    
C80   C88   A    
C52   C71   A    
C64   H18   S    
Cr4   O11   S    
Cr4   O24   S    
C35   C68   S    
Cr2   O13   S    
Cr2   O22   S    
C7    C92   S    
C1    O13   A    
Cr3   O20   S    
C9    H34   S    
C56   C58   A    
C78   C80   A    
C94   O23   A    
C23   C25   S    
C89   C93   S    
C93   O2    A    
C37   H5    S    
C46   H30   S    
C81   C91   A    
C52   H13   S    
Cr5   O11   S    
C1    C22   S    
C23   C98   S    
C82   C83   A    
C54   C63   A    
C12   C18   S    
C14   C15   S    
C61   H19   S    
C33   H4    S    
C88   H25   S    
C67   C69   A    
C89   C90   T    
C73   C83   A    
C41   C51   S    
C36   C49   A    
C97   O10   A    
C97   O5    A    
C85   H27   S    
C4    H33   S    
C78   H20   S    
