data_mof_unit_23583.cif
_audit_creation_date              2012-12-10T18:47:47-0500
_audit_creation_method            fapswitch 2.2
_symmetry_space_group_name_H-M    P1
_symmetry_Int_Tables_number       1
_space_group_crystal_system       triclinic
_cell_length_a                    9.845643
_cell_length_b                    10.720824
_cell_length_c                    15.521681
_cell_angle_alpha                 90.080955
_cell_angle_beta                  67.844975
_cell_angle_gamma                 90.010554
_cell_volume                      1517.39899216

loop_
_atom_site_label
_atom_site_type_symbol
_atom_type_description
_atom_site_fract_x
_atom_site_fract_y
_atom_site_fract_z
_atom_type_partial_charge
C1    C     C_R   0.499994 0.740127 0.500099 0.869166
C2    C     C_R   0.368746 0.936098 0.516144 -0.194318
C3    C     C_R   0.499978 0.127416 0.499956 -0.015328
C4    C     C_R   0.499961 0.872570 0.500162 -0.013897
C5    C     C_R   0.963415 0.424791 0.440463 -0.084679
C6    C     C_R   0.036548 0.575138 0.559601 -0.087555
C7    C     C_R   0.107227 0.424757 0.440524 -0.070555
C8    C     C_R   0.892723 0.575155 0.559553 -0.074489
C9    C     C_R   0.408586 0.501390 0.676005 0.873733
C10   C     C_R   0.591533 0.501850 0.324024 0.873462
C11   C     C_R   0.353912 0.521137 0.776242 -0.056875
C12   C     C_R   0.499983 0.259870 0.499941 0.869320
C13   C     C_R   0.649230 0.511379 0.222908 -0.058623
C14   C     C_R   0.184118 0.617042 0.916425 -0.223397
C15   C     C_R   0.841826 0.483580 0.071890 -0.217893
C16   C     C_R   0.218058 0.577255 0.824992 -0.210537
C17   C     C_R   0.795306 0.483051 0.168477 -0.201779
C18   C     C_R   0.452710 0.502326 0.819643 -0.260574
C19   C     C_R   0.552911 0.547221 0.180789 -0.265648
C20   C     C_R   0.427321 0.552156 0.907283 0.095916
C21   C     C_R   0.597042 0.549684 0.084199 0.095651
C22   C     C_R   0.288009 0.605000 0.957916 0.176913
C23   C     C_R   0.356564 0.630622 0.090498 -0.232811
C24   C     C_R   0.742844 0.513427 0.029458 0.177937
C25   C     C_R   0.536381 0.548323 0.946045 0.070318
C26   C     C_R   0.496273 0.577053 0.041351 0.067456
C27   C     C_R   0.684635 0.518807 0.892219 -0.232340
C28   C     C_R   0.255213 0.645978 0.048672 -0.242176
C29   C     C_R   0.786498 0.503587 0.933427 -0.247519
C30   C     C_R   0.631162 0.936105 0.484138 -0.194237
C31   C     C_R   0.368766 0.063878 0.516010 -0.194860
C32   C     C_R   0.631181 0.063883 0.484010 -0.194472
H1    H     H_    0.149862 0.688138 0.088094 0.152102
H2    H     H_    0.266403 0.112483 0.528956 0.157270
H3    H     H_    0.733570 0.112489 0.470961 0.154027
H4    H     H_    0.266358 0.887485 0.529198 0.154009
H5    H     H_    0.937177 0.364681 0.392867 0.120436
H6    H     H_    0.062746 0.635170 0.607259 0.119931
H7    H     H_    0.189898 0.364506 0.392982 0.130652
H8    H     H_    0.809999 0.635290 0.607186 0.130714
H9    H     H_    0.440737 0.566142 0.224954 0.158786
H10   H     H_    0.551173 0.449988 0.782597 0.154829
H11   H     H_    0.898355 0.478912 0.890323 0.151037
H12   H     H_    0.871564 0.456185 0.200404 0.155362
H13   H     H_    0.140932 0.594021 0.791677 0.150466
H14   H     H_    0.078722 0.660415 0.953665 0.147193
H15   H     H_    0.953381 0.456030 0.030588 0.151317
H16   H     H_    0.324307 0.665669 0.160559 0.149018
H17   H     H_    0.725868 0.509821 0.817476 0.147495
H18   H     H_    0.733529 0.887502 0.471188 0.156860
N1    N     N_R   0.142780 0.500030 0.500020 -0.076619
N2    N     N_R   0.857220 0.499970 0.499980 -0.076381
O1    O     O_R   0.385370 0.683250 0.500010 -0.625203
O2    O     O_R   0.614630 0.316750 0.499990 -0.624043
O3    O     O_R   0.614700 0.683220 0.500000 -0.623745
O4    O     O_R   0.385300 0.316780 0.500000 -0.623498
O5    O     O_R   0.319830 0.500020 0.632250 -0.616970
O6    O     O_R   0.680170 0.499980 0.367750 -0.617016
O7    O     O_R   0.549160 0.499990 0.632240 -0.616439
O8    O     O_R   0.450840 0.500010 0.367760 -0.618789
Zn1   Zn    Zn3+2 0.346870 0.500020 0.500000 0.940258
Zn2   Zn    Zn3+2 0.653130 0.499980 0.500000 0.941629

loop_
_geom_bond_atom_site_label_1
_geom_bond_atom_site_label_2
_ccdc_geom_bond_type
C16   H13   S    
O6    Zn2   S    
C2    C4    A    
C21   C26   A    
C6    H6    S    
C11   C18   A    
O5    Zn1   S    
C23   H16   S    
C5    H5    S    
C6    N1    A    
C27   C29   A    
C8    H8    S    
C11   C16   A    
C8    N2    A    
C9    O7    A    
C10   O8    A    
N1    Zn1   S    
C13   C17   A    
C1    C4    S    
C14   C22   A    
C1    O3    A    
C17   H12   S    
C7    N1    A    
C14   H14   S    
C22   C28   A    
C23   C28   A    
C29   H11   S    
C3    C31   A    
C9    C11   S    
C12   O4    A    
C12   O2    A    
C6    C8    A    
C15   C24   A    
C10   O6    A    
C20   C22   A    
C28   H1    S    
C18   C20   A    
C18   H10   S    
C30   H18   S    
C3    C32   A    
C14   C16   A    
C21   C24   A    
C31   H2    S    
C25   C27   A    
C20   C25   A    
C13   C19   A    
C30   C32   A    
C32   H3    S    
C19   H9    S    
O3    Zn2   S    
C9    O5    A    
C5    C7    A    
C23   C26   A    
C2    H4    S    
C15   C17   A    
C1    O1    A    
O4    Zn1   S    
C2    C31   A    
C15   H15   S    
C7    H7    S    
C3    C12   S    
O2    Zn2   S    
C5    N2    A    
C19   C21   A    
C25   C26   A    
C24   C29   A    
O1    Zn1   S    
N2    Zn2   S    
C4    C30   A    
C27   H17   S    
O8    Zn1   S    
O7    Zn2   S    
C10   C13   S    
