data_mof_unit_6680.cif
_audit_creation_date              2013-03-05T15:54:39-0500
_audit_creation_method            fapswitch 2.2
_symmetry_space_group_name_H-M    P1
_symmetry_Int_Tables_number       1
_space_group_crystal_system       triclinic
_cell_length_a                    13.981247
_cell_length_b                    14.064353
_cell_length_c                    30.059646
_cell_angle_alpha                 97.058514
_cell_angle_beta                  96.775148
_cell_angle_gamma                 61.29329
_cell_volume                      5133.23846127

loop_
_atom_site_label
_atom_site_type_symbol
_atom_site_description
_atom_site_fract_x
_atom_site_fract_y
_atom_site_fract_z
_atom_type_partial_charge
O1    O     O_R   0.688580 0.499770 0.460490 -0.531961
O2    O     O_R   0.480400 0.672610 0.462660 -0.510574
C1    C     C_R   0.387045 0.707649 0.441229 0.903111
O3    O     O_R   0.315310 0.685650 0.451800 -0.540135
O4    O     O_R   0.346220 0.474990 0.446280 -0.522448
C2    C     C_R   0.398857 0.381227 0.426451 0.824446
O5    O     O_R   0.492270 0.312460 0.441630 -0.541086
O6    O     O_R   0.669740 0.350480 0.455640 -0.544735
C3    C     C_R   0.710968 0.405512 0.442364 0.768336
O7    O     O_R   0.691150 0.501150 0.557860 -0.540161
O8    O     O_R   0.482790 0.673890 0.552920 -0.518145
C4    C     C_R   0.410684 0.661136 0.571726 0.810819
O9    O     O_R   0.317880 0.687030 0.549170 -0.496905
O10   O     O_R   0.348600 0.476260 0.536540 -0.523828
C5    C     C_R   0.402239 0.383935 0.552811 0.840042
O11   O     O_R   0.494840 0.313840 0.539010 -0.535541
O12   O     O_R   0.672120 0.351750 0.545910 -0.526358
C6    C     C_R   0.712496 0.408103 0.568653 0.782750
Cr1   Cr    Cr6+3 0.581000 0.584320 0.508140 1.028727
Cr2   Cr    Cr6+3 0.339110 0.576430 0.496080 1.056959
Cr3   Cr    Cr6+3 0.579910 0.339270 0.495810 0.977233
O13   O     O_3   0.500010 0.500010 0.500010 -0.390640
C7    C     C_1   0.367097 0.365555 0.380497 -0.111129
C8    C     C_R   0.227704 0.385368 0.270931 0.323932
C9    C     C_R   0.214285 0.380210 0.223539 0.334673
C10   C     C_R   0.409266 0.315266 0.219899 -0.174239
C11   C     C_R   0.424053 0.319444 0.266713 0.123001
C12   C     C_R   0.332882 0.353964 0.292351 -0.061867
C13   C     C_R   0.306205 0.344418 0.198405 -0.061958
C14   C     C_1   0.298276 0.327795 0.150391 0.121758
C15   C     C_1   0.348068 0.358319 0.340589 0.090109
C16   C     C_1   0.290258 0.306016 0.110734 -0.079015
H1    H     H_    0.479247 0.286107 0.199956 0.165390
H2    H     H_    0.842317 0.464462 0.098055 0.162369
H3    H     H_    0.773262 0.487627 0.171175 0.142948
H4    H     H_    0.741742 0.536476 0.396104 0.175031
C17   C     C_R   0.762132 0.374648 0.398754 -0.096636
C18   C     C_R   0.793995 0.272286 0.374560 0.111650
C19   C     C_R   0.801684 0.265198 0.327953 -0.164301
C20   C     C_R   0.787365 0.354209 0.306150 0.085013
C21   C     C_R   0.772385 0.451686 0.331519 0.149015
C22   C     C_R   0.760153 0.459297 0.377406 -0.204717
C23   C     C_R   0.800819 0.409512 0.152269 -0.140177
C24   C     C_R   0.840701 0.396197 0.110493 -0.076239
C25   C     C_R   0.880884 0.207303 0.103695 -0.221721
C26   C     C_R   0.840805 0.219661 0.145837 0.402358
C27   C     C_R   0.805255 0.320947 0.170944 -0.009820
C28   C     C_1   0.792878 0.330948 0.218144 0.073191
C29   C     C_1   0.788834 0.341043 0.258219 0.024867
C30   C     C_R   0.885686 0.293807 0.086806 -0.121688
H5    H     H_    0.913283 0.128457 0.085080 0.198912
H6    H     H_    0.818108 0.189721 0.308225 0.159741
H7    H     H_    0.287726 0.651551 0.371044 0.202838
C31   C     C_R   0.375245 0.741603 0.395726 -0.223442
C32   C     C_R   0.430142 0.795656 0.383437 0.385988
C33   C     C_R   0.436510 0.801030 0.337623 -0.279638
C34   C     C_R   0.390738 0.752549 0.304656 -0.083081
C35   C     C_R   0.335915 0.699151 0.316750 0.420071
C36   C     C_R   0.326374 0.696762 0.362095 -0.296198
C37   C     C_R   0.291602 0.786327 0.144395 0.291172
C38   C     C_R   0.263212 0.824575 0.101116 0.286414
C39   C     C_R   0.384460 0.905621 0.117266 -0.234049
C40   C     C_R   0.414120 0.867177 0.159949 0.118890
C41   C     C_R   0.364433 0.810541 0.174005 -0.098430
C42   C     C_1   0.381317 0.784714 0.219826 0.097273
C43   C     C_1   0.389535 0.768284 0.258564 0.096534
C44   C     C_R   0.305971 0.889415 0.088438 -0.240280
H8    H     H_    0.419230 0.953509 0.107447 0.171360
H9    H     H_    0.476058 0.844271 0.327541 0.178992
H10   H     H_    0.162950 0.496381 0.666940 0.182168
C45   C     C_R   0.370819 0.371580 0.595978 -0.177398
C46   C     C_R   0.455833 0.313926 0.627725 -0.182814
C47   C     C_R   0.436375 0.325605 0.672788 -0.118452
C48   C     C_R   0.331823 0.394372 0.686931 0.012751
C49   C     C_R   0.244730 0.447260 0.655672 -0.131883
C50   C     C_R   0.262716 0.435751 0.609835 0.377512
C51   C     C_R   0.281399 0.443171 0.854090 0.429582
C52   C     C_R   0.278676 0.409744 0.896578 -0.061236
C53   C     C_R   0.323277 0.228011 0.860637 0.397136
C54   C     C_R   0.326811 0.262025 0.819898 -0.253564
C55   C     C_R   0.304811 0.368068 0.816192 -0.107172
C56   C     C_1   0.306732 0.394415 0.771949 0.118669
C57   C     C_1   0.314380 0.401237 0.733315 0.021074
C58   C     C_R   0.296830 0.301725 0.899266 -0.237179
H11   H     H_    0.539302 0.265099 0.618311 0.208604
H12   H     H_    0.345393 0.204765 0.790429 0.183207
H13   H     H_    0.503594 0.282400 0.696843 0.180125
C59   C     C_1   0.761264 0.376837 0.612666 -0.093619
C60   C     C_R   0.850871 0.398596 0.726391 -0.219003
C61   C     C_R   0.866974 0.387994 0.772541 -0.141595
C62   C     C_R   0.818397 0.242707 0.762169 -0.227048
C63   C     C_R   0.802451 0.251684 0.715391 0.388903
C64   C     C_R   0.818501 0.331519 0.697594 0.004408
C65   C     C_R   0.850406 0.310475 0.790548 0.064553
C66   C     C_1   0.875241 0.295558 0.837797 -0.017409
C67   C     C_1   0.791409 0.354248 0.650980 0.049078
C68   C     C_1   0.904448 0.283393 0.876965 -0.138158
H14   H     H_    0.862029 0.460655 0.713174 0.155628
H15   H     H_    0.892726 0.440199 0.794222 0.145830
H16   H     H_    0.807807 0.181596 0.776477 0.170840
C69   C     C_1   0.403659 0.688886 0.619240 -0.116360
C70   C     C_R   0.275859 0.781997 0.721887 0.350180
C71   C     C_R   0.258332 0.810900 0.767896 0.003214
C72   C     C_R   0.456236 0.741243 0.784779 0.114378
C73   C     C_R   0.473487 0.707365 0.738407 0.077437
C74   C     C_R   0.382044 0.733334 0.707114 -0.073892
C75   C     C_R   0.348120 0.794677 0.799020 0.055302
C76   C     C_1   0.326843 0.840704 0.844988 0.066881
C77   C     C_1   0.395408 0.709109 0.659227 0.076015
C78   C     C_1   0.302006 0.886264 0.881778 -0.073782
O14   O     O_R   0.167510 0.972920 0.030390 -0.503371
O15   O     O_R   0.990840 0.178580 0.027590 -0.538911
C79   C     C_R   0.949632 0.273248 0.047903 0.808724
O16   O     O_R   0.972840 0.345510 0.038590 -0.534649
O17   O     O_R   0.181550 0.320660 0.045200 -0.516696
C80   C     C_R   0.275421 0.270615 0.065240 0.794459
O18   O     O_R   0.346150 0.177650 0.050510 -0.552547
O19   O     O_R   0.314200 0.996600 0.036060 -0.551547
C81   C     C_R   0.261814 0.952414 0.048381 0.865423
O20   O     O_R   0.168690 0.969990 0.933130 -0.535797
O21   O     O_R   0.991920 0.175870 0.937430 -0.532005
C82   C     C_R   0.952210 0.269166 0.922106 0.798424
O22   O     O_R   0.974010 0.342590 0.941330 -0.541215
O23   O     O_R   0.182630 0.317940 0.955040 -0.542400
C83   C     C_R   0.277226 0.266308 0.939829 0.830684
O24   O     O_R   0.347320 0.174720 0.953250 -0.505154
O25   O     O_R   0.315290 0.993890 0.945900 -0.511204
C84   C     C_R   0.262679 0.949014 0.923273 0.842439
Cr4   Cr    Cr6+3 0.082090 0.079210 0.982490 1.019698
Cr5   Cr    Cr6+3 0.082460 0.324610 0.994920 0.993653
Cr6   Cr    Cr6+3 0.323630 0.087860 0.996130 1.004763
O26   O     O_3   0.162730 0.163890 0.991180 -0.351978
N1    N     N_R   0.135736 0.417207 0.297028 0.137441
O27   O     O_R   0.114712 0.491056 0.330424 -0.327895
O28   O     O_R   0.073569 0.371093 0.287867 -0.356762
N2    N     N_R   0.842030 0.128105 0.163383 0.103866
O29   O     O_R   0.773160 0.142686 0.192394 -0.384369
O30   O     O_R   0.905971 0.029464 0.147661 -0.312409
N3    N     N_R   0.189191 0.799912 0.070880 0.145311
O31   O     O_R   0.095792 0.818505 0.083866 -0.284815
O32   O     O_R   0.216161 0.756438 0.030505 -0.376289
N4    N     N_R   0.245195 0.724245 0.158419 0.177295
O33   O     O_R   0.257901 0.634772 0.135439 -0.318128
O34   O     O_R   0.183077 0.761427 0.192077 -0.282980
N5    N     N_R   0.292690 0.644111 0.283664 0.122817
O35   O     O_R   0.205830 0.638174 0.290915 -0.322894
O36   O     O_R   0.347752 0.587506 0.249245 -0.357543
N6    N     N_R   0.477922 0.846212 0.416617 0.108641
O37   O     O_R   0.434154 0.888669 0.454786 -0.350045
O38   O     O_R   0.558339 0.860401 0.406990 -0.361507
C85   C     C_3   0.495049 0.891964 0.190495 -0.337203
C86   C     C_3   0.606250 0.790838 0.194340 -0.692680
H17   H     H_    0.599210 0.725491 0.208539 0.211412
H18   H     H_    0.639736 0.760774 0.160746 0.242532
H19   H     H_    0.663901 0.811111 0.216827 0.238207
H20   H     H_    0.506435 0.956209 0.177410 0.190089
H21   H     H_    0.463676 0.924038 0.224365 0.180259
N7    N     N_R   0.107517 0.412894 0.201246 0.134383
O39   O     O_R   0.091516 0.349767 0.169255 -0.384789
O40   O     O_R   0.025311 0.505366 0.213442 -0.315564
C87   C     C_3   0.263377 0.486425 0.938713 -0.266866
C88   C     C_3   0.363994 0.502581 0.951383 -0.662993
H22   H     H_    0.437762 0.422874 0.956093 0.210224
H23   H     H_    0.377180 0.543259 0.925141 0.254167
H24   H     H_    0.352598 0.554261 0.983391 0.252231
H25   H     H_    0.189785 0.565946 0.934000 0.245826
H26   H     H_    0.249642 0.455428 0.968162 0.173939
N8    N     N_R   0.259728 0.552281 0.849199 0.069250
O41   O     O_R   0.166588 0.634318 0.859745 -0.383871
O42   O     O_R   0.327370 0.569104 0.829251 -0.402803
N9    N     N_R   0.171372 0.488691 0.578068 0.115812
O43   O     O_R   0.169203 0.442773 0.537907 -0.353942
O44   O     O_R   0.084422 0.576144 0.590759 -0.319347
N10   N     N_R   0.340890 0.119156 0.861454 0.078538
O45   O     O_R   0.278112 0.088176 0.835509 -0.417419
O46   O     O_R   0.434038 0.045713 0.878023 -0.366412
N11   N     N_R   0.770220 0.179926 0.687048 0.087824
O47   O     O_R   0.727013 0.129972 0.704189 -0.374303
O48   O     O_R   0.792891 0.155779 0.645081 -0.343374
N12   N     N_R   0.185042 0.802414 0.689748 0.105825
O49   O     O_R   0.147198 0.733167 0.682369 -0.348596
O50   O     O_R   0.151248 0.880836 0.663418 -0.330072
C89   C     C_3   0.142833 0.862024 0.783310 -0.276549
C90   C     C_3   0.084818 0.985313 0.781512 -0.661551
H27   H     H_    0.129466 0.021629 0.804032 0.252049
H28   H     H_    0.078879 0.007328 0.746690 0.268170
H29   H     H_    0.000990 0.019806 0.792826 0.216410
H30   H     H_    0.093935 0.828084 0.762309 0.241865
H31   H     H_    0.143698 0.841955 0.818005 0.214122
C91   C     C_3   0.551659 0.721344 0.819338 -0.336621
C92   C     C_3   0.587001 0.617653 0.842502 -0.716591
H32   H     H_    0.519025 0.624957 0.860846 0.250558
H33   H     H_    0.611849 0.546328 0.817496 0.231553
H34   H     H_    0.657631 0.603867 0.866954 0.221532
H35   H     H_    0.622647 0.716273 0.804244 0.191867
H36   H     H_    0.529371 0.791050 0.845058 0.217214
C93   C     C_3   0.588063 0.642216 0.721821 -0.375362
C94   C     C_3   0.626876 0.716192 0.705956 -0.663724
H37   H     H_    0.572719 0.760458 0.677208 0.242569
H38   H     H_    0.627221 0.776195 0.733571 0.233931
H39   H     H_    0.711159 0.666408 0.694862 0.222801
H40   H     H_    0.647561 0.591995 0.747957 0.194282
H41   H     H_    0.590140 0.582056 0.693763 0.176152
C95   C     C_3   0.538912 0.281276 0.288117 -0.332869
C96   C     C_3   0.589348 0.162867 0.299027 -0.689464
H42   H     H_    0.544486 0.154641 0.325171 0.230256
H43   H     H_    0.587056 0.110939 0.268349 0.241886
H44   H     H_    0.675844 0.133543 0.311646 0.221219
H45   H     H_    0.591457 0.287868 0.264912 0.206539
H46   H     H_    0.539153 0.333378 0.319031 0.175579
C97   C     C_3   0.763366 0.554029 0.314528 -0.334046
C98   C     C_3   0.778852 0.553989 0.265295 -0.647826
H47   H     H_    0.858991 0.486233 0.255678 0.294444
H48   H     H_    0.709952 0.550573 0.244056 0.186797
H49   H     H_    0.777987 0.631040 0.259821 0.237907
H50   H     H_    0.681709 0.623025 0.321981 0.177933
H51   H     H_    0.825381 0.572728 0.334463 0.239986
C99   C     C_3   0.820339 0.170498 0.396903 -0.355762
C100  C     C_3   0.934242 0.077890 0.387206 -0.654600
H52   H     H_    0.938087 0.047706 0.351235 0.235160
H53   H     H_    0.996681 0.105635 0.396399 0.244576
H54   H     H_    0.953914 0.008997 0.407434 0.236978
H55   H     H_    0.820209 0.185090 0.433929 0.208500
H56   H     H_    0.758163 0.143714 0.385171 0.193635

loop_
_geom_bond_atom_site_label_1
_geom_bond_atom_site_label_2
_geom_bond_distance
_ccdc_geom_bond_type
C8    N1    1.437971 S    
C32   C33   1.403979 A    
C59   C67   1.204888 T    
C91   C92   1.527070 S    
N1    O27   1.301159 A    
C70   N12   1.434057 S    
C21   C22   1.394682 A    
C18   C99   1.519065 S    
H4    C22   1.084531 S    
C34   C43   1.426609 S    
C49   C50   1.405609 A    
C93   H41   1.111250 S    
C46   H11   1.083444 S    
H7    C36   1.083987 S    
C35   N5    1.439434 S    
C99   H55   1.106746 S    
O4    Cr2   1.913171 S    
C96   H42   1.110301 S    
C90   H27   1.109230 S    
C51   N8    1.437558 S    
C4    O9    1.294251 A    
N9    O44   1.301499 A    
O8    Cr1   1.908384 S    
C10   C11   1.396091 A    
C39   C40   1.392844 A    
C83   O24   1.266557 A    
C39   C44   1.405167 A    
C71   C89   1.522686 S    
C85   H21   1.111268 S    
C11   C12   1.414138 A    
C17   C18   1.415276 A    
N6    O38   1.301606 A    
C88   H22   1.111003 S    
N5    O35   1.301397 A    
O4    C2    1.270395 A    
C1    C31   1.468942 S    
C25   H5    1.082934 S    
C69   C77   1.206722 T    
C5    O11   1.272895 A    
O24   Cr6   2.034677 S    
C80   O18   1.265870 A    
C9    N7    1.438459 S    
O17   Cr5   1.912959 S    
O14   C81   1.272346 A    
C47   C48   1.392959 A    
C17   C22   1.407762 A    
N10   O45   1.300317 A    
O15   C79   1.274284 A    
C54   H12   1.085692 S    
O19   Cr6   1.919371 S    
C37   N4    1.435374 S    
O19   C81   1.271855 A    
O14   Cr4   2.035290 S    
C47   H13   1.083695 S    
C97   C98   1.520628 S    
C76   C78   1.207014 T    
O6    C3    1.284271 A    
N11   O48   1.301105 A    
C95   H45   1.112253 S    
C85   C86   1.525503 S    
C98   H49   1.110104 S    
C61   C65   1.397326 A    
C94   H37   1.110249 S    
O15   Cr4   1.910061 S    
H3    C23   1.081673 S    
C48   C57   1.427376 S    
C40   C85   1.516576 S    
C87   H25   1.108447 S    
C91   H36   1.110438 S    
Cr4   O26   1.975285 S    
C73   C93   1.523279 S    
C97   H50   1.112609 S    
Cr3   O13   1.977803 S    
N7    O40   1.301204 A    
C95   C96   1.526337 S    
O16   Cr5   2.026233 S    
C53   N10   1.432052 S    
C70   C71   1.408590 A    
C89   H31   1.110681 S    
C72   C73   1.426172 A    
N5    O36   1.301368 A    
N12   O50   1.300704 A    
C87   C88   1.528069 S    
C88   H23   1.109074 S    
C31   C36   1.407435 A    
C96   H43   1.111225 S    
C9    C13   1.410661 A    
C18   C19   1.405413 A    
C97   H51   1.112554 S    
O1    Cr1   2.024720 S    
C82   O22   1.267807 A    
C48   C49   1.396638 A    
C40   C41   1.406822 A    
C11   C95   1.514584 S    
O10   Cr2   1.919641 S    
Cr1   O13   1.975172 S    
O1    C3    1.271362 A    
C8    C9    1.412290 A    
N2    O30   1.301660 A    
O21   Cr4   1.917115 S    
C62   C63   1.409062 A    
C54   C55   1.386863 A    
C35   C36   1.391170 A    
C51   C52   1.424747 A    
C55   C56   1.430328 S    
C1    O3    1.264919 A    
C92   H32   1.110746 S    
C19   H6    1.083737 S    
C37   C38   1.408715 A    
C7    C15   1.200374 T    
C50   N9    1.439003 S    
Cr5   O26   1.977869 S    
C89   C90   1.526141 S    
C92   H33   1.110635 S    
C13   C14   1.433251 S    
C52   C58   1.426146 A    
C100  H53   1.111103 S    
C88   H24   1.110188 S    
C38   C44   1.413201 A    
C10   H1    1.085062 S    
C27   C28   1.431180 S    
C86   H19   1.110291 S    
C51   C55   1.407392 A    
O7    Cr1   2.032177 S    
C75   C76   1.452252 S    
C72   C91   1.524172 S    
C94   H39   1.110310 S    
C3    C17   1.483826 S    
O12   C6    1.272716 A    
O23   Cr5   1.910381 S    
C93   H40   1.107177 S    
C66   C68   1.204671 T    
C85   H20   1.112101 S    
C16   C80   1.423376 S    
N9    O43   1.301523 A    
C20   C29   1.431195 S    
O21   C82   1.276929 A    
C87   H26   1.107219 S    
C91   H35   1.107392 S    
C10   C13   1.392754 A    
N8    O41   1.300633 A    
Cr2   O13   1.968644 S    
C56   C57   1.198266 T    
C64   C67   1.441357 S    
C23   C24   1.389272 A    
C53   C58   1.413151 A    
N7    O39   1.301255 A    
C62   H16   1.083395 S    
N4    O34   1.300909 A    
C33   C34   1.400007 A    
C68   C82   1.432399 S    
C61   H15   1.083710 S    
C19   C20   1.402390 A    
N12   O49   1.300736 A    
C79   O16   1.274634 A    
C96   H44   1.107940 S    
C24   C30   1.399944 A    
C58   C83   1.472842 S    
C100  H52   1.109593 S    
H2    C24   1.083115 S    
C26   C27   1.410671 A    
C20   C21   1.417688 A    
O9    Cr2   2.027969 S    
O20   Cr4   2.025866 S    
O2    Cr1   1.917005 S    
N4    O33   1.301100 A    
N11   O47   1.301582 A    
C12   C15   1.438546 S    
C38   N3    1.436262 S    
C8    C12   1.412321 A    
C86   H18   1.110929 S    
C46   C47   1.387495 A    
O6    Cr3   1.911835 S    
C31   C32   1.414195 A    
C71   C75   1.415430 A    
N3    O31   1.301199 A    
O20   C84   1.264753 A    
O11   Cr3   2.028810 S    
C99   H56   1.109748 S    
C2    O5    1.266374 A    
O3    Cr2   2.036907 S    
C5    C45   1.473147 S    
C73   C74   1.415925 A    
C90   H29   1.109930 S    
C39   H8    1.083665 S    
C60   H14   1.083812 S    
C37   C41   1.410603 A    
C30   C79   1.471641 S    
C41   C42   1.431324 S    
O25   Cr6   1.912104 S    
O2    C1    1.274038 A    
C60   C61   1.393655 A    
C92   H34   1.110328 S    
C45   C46   1.406293 A    
O22   Cr5   2.028167 S    
O5    Cr3   2.029306 S    
Cr6   O26   1.968619 S    
C62   C65   1.398676 A    
C14   C16   1.199653 T    
N3    O32   1.301207 A    
C99   C100  1.530069 S    
C45   C50   1.420622 A    
C44   C81   1.475591 S    
C25   C30   1.407387 A    
O7    C6    1.270110 A    
C28   C29   1.200368 T    
C2    C7    1.424231 S    
N8    O42   1.301376 A    
C63   C64   1.419612 A    
N10   O46   1.300833 A    
C90   H28   1.110353 S    
C70   C74   1.405138 A    
C32   N6    1.439242 S    
N6    O37   1.301403 A    
C42   C43   1.196489 T    
C60   C64   1.400428 A    
C93   C94   1.526348 S    
O18   Cr6   2.029573 S    
C6    C59   1.432051 S    
C63   N11   1.443083 S    
C98   H48   1.108917 S    
C26   N2    1.442301 S    
C53   C54   1.382727 A    
C21   C97   1.529608 S    
C25   C26   1.403100 A    
C4    C69   1.435662 S    
C98   H47   1.109087 S    
C52   C87   1.523035 S    
C33   H9    1.084110 S    
C95   H46   1.111200 S    
H10   C49   1.083694 S    
N1    O28   1.301188 A    
O10   C5    1.273490 A    
N2    O29   1.301591 A    
C94   H38   1.109995 S    
C86   H17   1.108946 S    
O17   C80   1.269259 A    
C34   C35   1.403399 A    
C89   H30   1.109659 S    
C23   C27   1.399982 A    
C65   C66   1.438285 S    
C72   C75   1.419596 A    
O25   C84   1.274546 A    
O8    C4    1.304297 A    
C78   C84   1.436021 S    
O23   C83   1.274380 A    
C100  H54   1.110645 S    
C74   C77   1.450808 S    
O12   Cr3   1.911855 S    
