data_mof_unit_60968.cif
_audit_creation_date              2013-03-05T16:16:23-0500
_audit_creation_method            fapswitch 2.2
_symmetry_space_group_name_H-M    P1
_symmetry_Int_Tables_number       1
_space_group_crystal_system       monoclinic
_cell_length_a                    44.375737
_cell_length_b                    39.031517
_cell_length_c                    21.385711
_cell_angle_alpha                 90.0
_cell_angle_beta                  61.359475
_cell_angle_gamma                 90.0
_cell_volume                      32508.9678128

loop_
_atom_site_label
_atom_site_type_symbol
_atom_site_description
_atom_site_fract_x
_atom_site_fract_y
_atom_site_fract_z
_atom_type_partial_charge
O1    O     O_R   0.049900 0.528880 0.450120 -0.579537
O2    O     O_R   0.950100 0.528880 0.549880 -0.579537
O3    O     O_R   0.549900 0.028880 0.450120 -0.580577
O4    O     O_R   0.450100 0.028880 0.549880 -0.580578
O5    O     O_R   0.049890 0.471100 0.450130 -0.585895
O6    O     O_R   0.950110 0.471100 0.549870 -0.585895
O7    O     O_R   0.549890 0.971100 0.450130 -0.585393
O8    O     O_R   0.450110 0.971100 0.549870 -0.585393
C1    C     C_R   0.066070 0.499994 0.433920 0.873552
C2    C     C_R   0.933930 0.499994 0.566080 0.873552
C3    C     C_R   0.566063 0.999995 0.433932 0.873429
C4    C     C_R   0.433937 0.999995 0.566068 0.873429
O9    O     O_R   0.999990 0.528880 0.591580 -0.590991
O10   O     O_R   0.000010 0.528880 0.408420 -0.590991
O11   O     O_R   0.499990 0.028880 0.591580 -0.591498
O12   O     O_R   0.500010 0.028880 0.408420 -0.591497
O13   O     O_R   0.999970 0.471100 0.591590 -0.600996
O14   O     O_R   0.000030 0.471100 0.408410 -0.600995
O15   O     O_R   0.499970 0.971100 0.591590 -0.600009
O16   O     O_R   0.500030 0.971100 0.408410 -0.600009
C5    C     C_R   0.999985 0.500003 0.620517 0.824778
C6    C     C_R   0.000014 0.500003 0.379483 0.824777
C7    C     C_R   0.500014 0.000000 0.620483 0.823841
C8    C     C_R   0.499986 0.000000 0.379516 0.823842
Cu1   Cu    Cu3+1 0.000000 0.534200 0.500000 0.963733
Cu2   Cu    Cu3+1 0.500000 0.034200 0.500000 0.962284
Cu3   Cu    Cu3+1 0.000000 0.465780 0.500000 0.952299
Cu4   Cu    Cu3+1 0.500000 0.965780 0.500000 0.952751
C9    C     C_3   0.028849 0.484828 0.700862 -0.217928
C10   C     C_3   0.971151 0.484828 0.299138 -0.217928
C11   C     C_3   0.531287 0.990586 0.698396 -0.225902
C12   C     C_3   0.468714 0.990581 0.301602 -0.225894
C13   C     C_3   0.000726 0.468709 0.769837 0.495335
C14   C     C_3   0.999273 0.468709 0.230163 0.495335
C15   C     C_3   0.506789 0.969391 0.763735 0.497654
C16   C     C_3   0.493215 0.969391 0.236260 0.497654
H1    H     H_    0.052275 0.471996 0.659512 0.153526
H2    H     H_    0.947725 0.471996 0.340488 0.153526
H3    H     H_    0.556746 0.982491 0.654993 0.161885
H4    H     H_    0.443257 0.982483 0.345004 0.161879
C17   C     C_3   0.999835 0.500784 0.811262 -0.034579
C18   C     C_3   0.000165 0.500784 0.188738 -0.034579
C19   C     C_3   0.499761 0.000681 0.811325 -0.031094
C20   C     C_3   0.500238 0.000682 0.188675 -0.031096
C21   C     C_3   0.027697 0.517564 0.742988 -0.209742
C22   C     C_3   0.972303 0.517564 0.257012 -0.209742
C23   C     C_3   0.523880 0.022492 0.746827 -0.220100
C24   C     C_3   0.476116 0.022489 0.253176 -0.220095
C25   C     C_3   0.999006 0.532846 0.729855 -0.142386
C26   C     C_3   0.000994 0.532846 0.270145 -0.142387
C27   C     C_3   0.492819 0.032036 0.736008 -0.140232
C28   C     C_3   0.507176 0.032037 0.263997 -0.140238
C29   C     C_3   0.971139 0.516039 0.799136 -0.192694
C30   C     C_3   0.028861 0.516039 0.200864 -0.192693
C31   C     C_3   0.468668 0.010206 0.801561 -0.191448
C32   C     C_3   0.531330 0.010211 0.198441 -0.191448
C33   C     C_3   0.971827 0.483305 0.757460 -0.240471
C34   C     C_3   0.028173 0.483305 0.242540 -0.240472
C35   C     C_3   0.475604 0.978232 0.753669 -0.242287
C36   C     C_3   0.524399 0.978236 0.246327 -0.242285
C37   C     C_3   0.999933 0.500089 0.689021 -0.046322
C38   C     C_3   0.000067 0.500089 0.310979 -0.046322
C39   C     C_3   0.499981 0.000069 0.688956 -0.046790
C40   C     C_3   0.500019 0.000069 0.311043 -0.046791
H5    H     H_    0.050231 0.531759 0.738956 0.155456
H6    H     H_    0.949769 0.531760 0.261044 0.155456
H7    H     H_    0.543246 0.040729 0.746057 0.152646
H8    H     H_    0.456747 0.040723 0.253949 0.152648
H9    H     H_    0.998251 0.559433 0.712223 0.153510
H10   H     H_    0.001749 0.559433 0.287776 0.153510
H11   H     H_    0.487066 0.057985 0.723239 0.155319
H12   H     H_    0.512925 0.057987 0.276770 0.155318
H13   H     H_    0.947785 0.529003 0.840407 0.167851
H14   H     H_    0.052216 0.529003 0.159593 0.167851
H15   H     H_    0.443241 0.018484 0.844794 0.172209
H16   H     H_    0.556756 0.018492 0.155209 0.172206
H17   H     H_    0.949165 0.469192 0.761885 0.148034
H18   H     H_    0.050835 0.469192 0.238115 0.148035
H19   H     H_    0.456047 0.960071 0.755025 0.149389
H20   H     H_    0.543959 0.960078 0.244968 0.149389
C41   C     C_R   0.377806 0.487939 0.069244 -0.183609
C42   C     C_R   0.622194 0.487939 0.930756 -0.183609
C43   C     C_R   0.877760 0.988425 0.069036 -0.184958
C44   C     C_R   0.122239 0.988425 0.930964 -0.184958
H21   H     H_    0.391338 0.478279 0.015206 0.154193
H22   H     H_    0.608662 0.478279 0.984794 0.154193
H23   H     H_    0.891261 0.979087 0.014745 0.154523
H24   H     H_    0.108739 0.979087 0.985254 0.154523
C45   C     C_R   0.341958 0.487973 0.104640 -0.147514
C46   C     C_R   0.658042 0.487973 0.895359 -0.147514
C47   C     C_R   0.841912 0.988490 0.104493 -0.148371
C48   C     C_R   0.158088 0.988490 0.895507 -0.148372
H25   H     H_    0.328456 0.478669 0.077169 0.146571
H26   H     H_    0.671544 0.478669 0.922830 0.146571
H27   H     H_    0.828390 0.979537 0.076807 0.146308
H28   H     H_    0.171610 0.979537 0.923193 0.146308
C49   C     C_R   0.323687 0.500628 0.174410 0.124182
C50   C     C_R   0.676313 0.500628 0.825590 0.124182
C51   C     C_R   0.823670 0.000722 0.174614 0.124312
C52   C     C_R   0.176330 0.000722 0.825386 0.124311
C53   C     C_R   0.341741 0.512791 0.208711 -0.160916
C54   C     C_R   0.658259 0.512791 0.791288 -0.160917
C55   C     C_R   0.841764 0.012444 0.209166 -0.161513
C56   C     C_R   0.158236 0.012444 0.790834 -0.161512
H29   H     H_    0.328049 0.522548 0.262662 0.140078
H30   H     H_    0.671951 0.522548 0.737338 0.140078
H31   H     H_    0.828106 0.021861 0.263389 0.140394
H32   H     H_    0.171894 0.021861 0.736611 0.140393
C57   C     C_R   0.377599 0.512117 0.173844 -0.179665
C58   C     C_R   0.622400 0.512117 0.826156 -0.179666
C59   C     C_R   0.877620 0.011758 0.174206 -0.179329
C60   C     C_R   0.122380 0.011758 0.825794 -0.179329
H33   H     H_    0.390982 0.521616 0.201403 0.152259
H34   H     H_    0.609018 0.521616 0.798597 0.152259
H35   H     H_    0.891021 0.020916 0.201985 0.153728
H36   H     H_    0.108979 0.020916 0.798015 0.153727
C61   C     C_R   0.395937 0.499936 0.103596 -0.033295
C62   C     C_R   0.604063 0.499936 0.896404 -0.033294
C63   C     C_R   0.895929 0.999985 0.103637 -0.034204
C64   C     C_R   0.104071 0.999985 0.896362 -0.034204
C65   C     C_R   0.268421 0.532300 0.240625 -0.232337
C66   C     C_R   0.731579 0.532300 0.759375 -0.232337
C67   C     C_R   0.768387 0.032202 0.242498 -0.232768
C68   C     C_R   0.231612 0.032202 0.757503 -0.232768
H37   H     H_    0.283036 0.555249 0.236297 0.179641
H38   H     H_    0.716964 0.555249 0.763703 0.179641
H39   H     H_    0.782995 0.055005 0.239240 0.179275
H40   H     H_    0.217005 0.055006 0.760761 0.179275
C69   C     C_R   0.232450 0.534040 0.272832 0.360498
C70   C     C_R   0.767550 0.534040 0.727167 0.360498
C71   C     C_R   0.732413 0.033976 0.274895 0.360970
C72   C     C_R   0.267587 0.033976 0.725106 0.360971
C73   C     C_R   0.213637 0.503888 0.277492 0.044895
C74   C     C_R   0.786363 0.503888 0.722507 0.044894
C75   C     C_R   0.713607 0.004037 0.278101 0.044832
C76   C     C_R   0.286393 0.004036 0.721899 0.044832
C77   C     C_R   0.231322 0.473146 0.248561 -0.147565
C78   C     C_R   0.768678 0.473146 0.751439 -0.147563
C79   C     C_R   0.731293 0.973477 0.247650 -0.148146
C80   C     C_R   0.268707 0.973476 0.752350 -0.148147
H41   H     H_    0.217315 0.449793 0.252531 0.159933
H42   H     H_    0.782685 0.449793 0.747469 0.159932
H43   H     H_    0.717285 0.950278 0.250490 0.159567
H44   H     H_    0.282715 0.950277 0.749510 0.159568
C81   C     C_R   0.267073 0.472125 0.214669 -0.167284
C82   C     C_R   0.732927 0.472125 0.785331 -0.167284
C83   C     C_R   0.767043 0.972441 0.213654 -0.167410
C84   C     C_R   0.232957 0.972441 0.786345 -0.167409
H45   H     H_    0.280123 0.448155 0.192369 0.146415
H46   H     H_    0.719877 0.448155 0.807630 0.146415
H47   H     H_    0.780088 0.948613 0.190196 0.145807
H48   H     H_    0.219912 0.948613 0.809804 0.145807
C85   C     C_R   0.285833 0.501613 0.210865 0.022995
C86   C     C_R   0.714167 0.501613 0.789135 0.022995
C87   C     C_R   0.785808 0.001714 0.211204 0.023542
C88   C     C_R   0.214192 0.001714 0.788796 0.023542
C89   C     C_R   0.156324 0.491563 0.282929 0.379849
C90   C     C_R   0.843676 0.491563 0.717071 0.379849
C91   C     C_R   0.656343 0.992601 0.282696 0.379865
C92   C     C_R   0.343657 0.992600 0.717304 0.379865
C93   C     C_R   0.120458 0.489353 0.323699 -0.327273
C94   C     C_R   0.879542 0.489353 0.676301 -0.327273
C95   C     C_R   0.620473 0.990323 0.323237 -0.327191
C96   C     C_R   0.379527 0.990323 0.676763 -0.327191
H49   H     H_    0.105409 0.480514 0.299197 0.183040
H50   H     H_    0.894591 0.480514 0.700803 0.183040
H51   H     H_    0.605451 0.982171 0.298186 0.184380
H52   H     H_    0.394549 0.982170 0.701814 0.184382
C97   C     C_R   0.103613 0.500176 0.394751 -0.158060
C98   C     C_R   0.896387 0.500176 0.605249 -0.158059
C99   C     C_R   0.603595 0.000189 0.394884 -0.157988
C100  C     C_R   0.396405 0.000189 0.605116 -0.157988
C101  C     C_R   0.122520 0.512905 0.426670 0.427780
C102  C     C_R   0.877480 0.512905 0.573330 0.427780
C103  C     C_R   0.622457 0.012040 0.427601 0.426987
C104  C     C_R   0.377543 0.012040 0.572399 0.426987
C105  C     C_R   0.158468 0.513210 0.387688 -0.240837
C106  C     C_R   0.841532 0.513210 0.612312 -0.240837
C107  C     C_R   0.658405 0.012417 0.388727 -0.240436
C108  C     C_R   0.341595 0.012417 0.611274 -0.240436
H53   H     H_    0.173133 0.521134 0.413654 0.160015
H54   H     H_    0.826867 0.521133 0.586346 0.160015
H55   H     H_    0.673034 0.019679 0.415182 0.160210
H56   H     H_    0.326965 0.019679 0.584819 0.160211
C109  C     C_R   0.175602 0.503324 0.315733 -0.028805
C110  C     C_R   0.824398 0.503324 0.684267 -0.028805
C111  C     C_R   0.675578 0.003463 0.316240 -0.029115
C112  C     C_R   0.324422 0.003463 0.683760 -0.029115
O17   O     O_R   0.971100 0.450110 0.028870 -0.578987
O18   O     O_R   0.028900 0.450110 0.971130 -0.578987
O19   O     O_R   0.471100 0.950110 0.028870 -0.583809
O20   O     O_R   0.528900 0.950110 0.971130 -0.583806
C113  C     C_R   0.000000 0.433856 0.000000 0.829340
C114  C     C_R   0.500000 0.933774 0.000000 0.832782
O21   O     O_R   0.971110 0.500030 0.937300 -0.584822
O22   O     O_R   0.028890 0.500030 0.062700 -0.584822
O23   O     O_R   0.471110 0.000030 0.937300 -0.588464
O24   O     O_R   0.528890 0.000030 0.062700 -0.588460
O25   O     O_R   0.028880 0.500040 0.879560 -0.586647
O26   O     O_R   0.971120 0.500040 0.120440 -0.586647
O27   O     O_R   0.528880 0.000040 0.879560 -0.581200
O28   O     O_R   0.471120 0.000040 0.120440 -0.581206
C115  C     C_R   0.999948 0.500418 0.879548 0.834455
C116  C     C_R   0.000052 0.500418 0.120452 0.834455
C117  C     C_R   0.499935 0.000345 0.879555 0.834774
C118  C     C_R   0.500065 0.000345 0.120445 0.834776
Cu5   Cu    Cu3+1 0.965780 0.500020 0.034200 0.980403
Cu6   Cu    Cu3+1 0.034220 0.500020 0.965800 0.980403
Cu7   Cu    Cu3+1 0.465780 0.000020 0.034200 0.979153
Cu8   Cu    Cu3+1 0.534220 0.000020 0.965800 0.979158
O29   O     O_R   0.971110 0.549940 0.028880 -0.590919
O30   O     O_R   0.028890 0.549940 0.971120 -0.590919
O31   O     O_R   0.471110 0.049940 0.028880 -0.590483
O32   O     O_R   0.528890 0.049940 0.971120 -0.590484
C119  C     C_R   0.000000 0.566235 0.000000 0.767409
C120  C     C_R   0.500000 0.066234 0.000000 0.767934
O33   O     O_R   0.499970 0.450010 0.052910 -0.584560
O34   O     O_R   0.500030 0.450010 0.947090 -0.584558
O35   O     O_R   0.999970 0.950010 0.052910 -0.584424
O36   O     O_R   0.000030 0.950010 0.947090 -0.584423
C121  C     C_R   0.500000 0.433762 0.000000 0.784300
C122  C     C_R   0.000000 0.933762 0.000000 0.784299
O37   O     O_R   0.450080 0.499920 0.102890 -0.586514
O38   O     O_R   0.549920 0.499920 0.897110 -0.586514
O39   O     O_R   0.950080 0.999920 0.102890 -0.585388
O40   O     O_R   0.049920 0.999920 0.897110 -0.585388
O41   O     O_R   0.450090 0.499990 0.996890 -0.582357
O42   O     O_R   0.549910 0.499990 0.003110 -0.582358
O43   O     O_R   0.950090 0.999990 0.996890 -0.584075
O44   O     O_R   0.049910 0.999990 0.003110 -0.584075
C123  C     C_R   0.433782 0.499927 0.066095 0.787830
C124  C     C_R   0.566218 0.499927 0.933905 0.787829
C125  C     C_R   0.933779 0.999938 0.066101 0.786404
C126  C     C_R   0.066221 0.999938 0.933899 0.786404
Cu9   Cu    Cu3+1 0.499990 0.499910 0.062770 0.952780
Cu10  Cu    Cu3+1 0.500010 0.499910 0.937230 0.952780
Cu11  Cu    Cu3+1 0.999990 0.999910 0.062770 0.954158
Cu12  Cu    Cu3+1 0.000010 0.999910 0.937230 0.954158
O45   O     O_R   0.500000 0.549830 0.053110 -0.586742
O46   O     O_R   0.500000 0.549830 0.946890 -0.586741
O47   O     O_R   0.000000 0.049830 0.053110 -0.583656
O48   O     O_R   0.000000 0.049830 0.946890 -0.583656
C127  C     C_R   0.500000 0.566094 0.000000 0.789231
C128  C     C_R   0.000000 0.066064 0.000000 0.785179
C129  C     C_R   0.500047 0.622109 0.943300 -0.176007
C130  C     C_R   0.499953 0.622109 0.056700 -0.176007
C131  C     C_R   0.013916 0.121977 0.036856 -0.176771
C132  C     C_R   0.986084 0.121977 0.963144 -0.176771
H57   H     H_    0.499993 0.608799 0.898923 0.155742
H58   H     H_    0.500007 0.608799 0.101077 0.155742
H59   H     H_    0.024929 0.108520 0.065394 0.151342
H60   H     H_    0.975071 0.108520 0.934606 0.151342
C133  C     C_R   0.500059 0.657844 0.943303 -0.162772
C134  C     C_R   0.499941 0.657844 0.056697 -0.162771
C135  C     C_R   0.014277 0.157757 0.036143 -0.160236
C136  C     C_R   0.985723 0.157757 0.963857 -0.160236
H61   H     H_    0.499669 0.671256 0.899363 0.131137
H62   H     H_    0.500331 0.671256 0.100637 0.131137
H63   H     H_    0.025298 0.171357 0.064512 0.135735
H64   H     H_    0.974702 0.171357 0.935488 0.135735
C137  C     C_R   0.500000 0.676043 0.000000 0.104545
C138  C     C_R   0.000000 0.175854 1.000000 0.097003
C139  C     C_R   0.500000 0.603884 0.000000 -0.035711
C140  C     C_R   0.000000 0.103800 0.000000 -0.031189
C141  C     C_R   0.479110 0.732112 0.062761 -0.168465
C142  C     C_R   0.520890 0.732112 0.937239 -0.168466
C143  C     C_R   0.969155 0.231687 0.023837 -0.168327
C144  C     C_R   0.030845 0.231687 0.976162 -0.168327
H65   H     H_    0.462507 0.718704 0.111704 0.132439
H66   H     H_    0.537493 0.718704 0.888297 0.132439
H67   H     H_    0.945053 0.218079 0.043049 0.138306
H68   H     H_    0.054947 0.218079 0.956951 0.138306
C145  C     C_R   0.969080 0.267459 0.024599 -0.169301
C146  C     C_R   0.030920 0.267459 0.975401 -0.169301
C147  C     C_R   0.479096 0.767842 0.062753 -0.169649
C148  C     C_R   0.520904 0.767842 0.937248 -0.169649
H69   H     H_    0.944693 0.280608 0.045415 0.131986
H70   H     H_    0.055307 0.280608 0.954584 0.131986
H71   H     H_    0.462995 0.781256 0.112019 0.131378
H72   H     H_    0.537005 0.781256 0.887982 0.131378
C149  C     C_R   1.000000 0.285867 1.000000 0.097004
C150  C     C_R   0.500000 0.786036 0.000000 0.097901
C151  C     C_R   0.500000 0.713912 0.000000 0.095550
C152  C     C_R   0.000000 0.213598 1.000000 0.088525
C153  C     C_R   0.024011 0.342417 0.012131 -0.169951
C154  C     C_R   0.975989 0.342417 0.987869 -0.169951
C155  C     C_R   0.530959 0.842088 0.963737 -0.170677
C156  C     C_R   0.469041 0.842088 0.036264 -0.170675
H73   H     H_    0.042362 0.329275 0.023343 0.129374
H74   H     H_    0.957638 0.329275 0.976657 0.129374
H75   H     H_    0.555225 0.828673 0.936070 0.134279
H76   H     H_    0.444775 0.828673 0.063931 0.134279
C157  C     C_R   0.024283 0.378184 0.011160 -0.165825
C158  C     C_R   0.975717 0.378184 0.988840 -0.165825
C159  C     C_R   0.530969 0.877816 0.963799 -0.166955
C160  C     C_R   0.469031 0.877816 0.036201 -0.166959
H77   H     H_    0.042991 0.391763 0.020690 0.155478
H78   H     H_    0.957009 0.391763 0.979310 0.155479
H79   H     H_    0.555247 0.891148 0.935455 0.158769
H80   H     H_    0.444753 0.891148 0.064545 0.158769
C161  C     C_R   0.000000 0.396256 0.000000 -0.015385
C162  C     C_R   0.500000 0.896019 0.000000 -0.021739
C163  C     C_R   1.000000 0.324010 0.000000 0.105408
C164  C     C_R   0.500000 0.823895 0.000000 0.100348
C165  C     C_R   0.514786 0.377937 0.935526 -0.178314
C166  C     C_R   0.485214 0.377937 0.064474 -0.178314
C167  C     C_R   0.014765 0.877928 0.935393 -0.180658
C168  C     C_R   0.985235 0.877928 0.064607 -0.180658
H81   H     H_    0.526663 0.391429 0.885094 0.148628
H82   H     H_    0.473337 0.391429 0.114906 0.148628
H83   H     H_    0.026440 0.891403 0.884946 0.149514
H84   H     H_    0.973560 0.891403 0.115054 0.149514
C169  C     C_R   0.515164 0.342176 0.935481 -0.160797
C170  C     C_R   0.484835 0.342176 0.064518 -0.160798
C171  C     C_R   0.015140 0.842159 0.935422 -0.161330
C172  C     C_R   0.984860 0.842159 0.064577 -0.161330
H85   H     H_    0.527786 0.329034 0.884764 0.127721
H86   H     H_    0.472214 0.329034 0.115236 0.127722
H87   H     H_    0.026869 0.828506 0.885171 0.136496
H88   H     H_    0.973131 0.828506 0.114829 0.136496
C173  C     C_R   0.500000 0.323779 0.000000 0.104585
C174  C     C_R   0.000000 0.824134 0.000000 0.095413
C175  C     C_R   0.500000 0.396074 0.000000 -0.029777
C176  C     C_R   0.000000 0.896076 0.000000 -0.028998
C177  C     C_R   0.502087 0.267251 0.054462 -0.169784
C178  C     C_R   0.497913 0.267251 0.945538 -0.169785
C179  C     C_R   0.968948 0.768481 0.028507 -0.168398
C180  C     C_R   0.031052 0.768481 0.971493 -0.168397
H89   H     H_    0.504503 0.280388 0.096396 0.129820
H90   H     H_    0.495497 0.280388 0.903604 0.129821
H91   H     H_    0.944768 0.782143 0.050225 0.137539
H92   H     H_    0.055232 0.782143 0.949775 0.137539
C181  C     C_R   0.968931 0.732721 0.027777 -0.169829
C182  C     C_R   0.031069 0.732721 0.972223 -0.169830
C183  C     C_R   0.501676 0.231491 0.054850 -0.167905
C184  C     C_R   0.498324 0.231491 0.945150 -0.167905
H93   H     H_    0.944559 0.719584 0.048150 0.130845
H94   H     H_    0.055441 0.719584 0.951850 0.130845
H95   H     H_    0.503246 0.217829 0.097293 0.137056
H96   H     H_    0.496754 0.217829 0.902707 0.137056
C185  C     C_R   0.000000 0.714321 0.000000 0.096748
C186  C     C_R   0.500000 0.213474 1.000000 0.088104
C187  C     C_R   0.500000 0.285651 1.000000 0.097258
C188  C     C_R   1.000000 0.786497 0.000000 0.087475
C189  C     C_R   0.026962 0.657796 0.944970 -0.160849
C190  C     C_R   0.973038 0.657796 0.055030 -0.160850
C191  C     C_R   0.526965 0.157810 0.944874 -0.161139
C192  C     C_R   0.473035 0.157810 0.055125 -0.161139
H97   H     H_    0.047763 0.670938 0.900832 0.127764
H98   H     H_    0.952237 0.670938 0.099168 0.127764
H99   H     H_    0.547976 0.171461 0.902043 0.136799
H100  H     H_    0.452024 0.171461 0.097957 0.136799
C193  C     C_R   0.027149 0.622036 0.945473 -0.179284
C194  C     C_R   0.972851 0.622036 0.054527 -0.179284
C195  C     C_R   0.527193 0.122042 0.945332 -0.181776
C196  C     C_R   0.472807 0.122042 0.054668 -0.181776
H101  H     H_    0.048205 0.608535 0.902436 0.146689
H102  H     H_    0.951795 0.608535 0.097563 0.146689
H103  H     H_    0.548336 0.108555 0.902467 0.147354
H104  H     H_    0.451664 0.108555 0.097533 0.147354
C197  C     C_R   1.000000 0.603909 0.000000 -0.022977
C198  C     C_R   0.500000 0.103904 0.000000 -0.021881
C199  C     C_R   0.000000 0.676194 0.000000 0.104680
C200  C     C_R   0.500000 0.175836 1.000000 0.095454
O49   O     O_3   0.001481 0.435932 0.796811 -0.593327
C201  C     C_3   0.002423 0.410676 0.748845 0.067993
H105  H     H_    0.026227 0.413016 0.696673 0.146590
H106  H     H_    0.979547 0.412524 0.740554 0.148891
C202  C     C_3   0.002235 0.375500 0.779664 -0.760197
H107  H     H_    0.978496 0.372196 0.831435 0.246031
H108  H     H_    0.003137 0.355274 0.742289 0.200206
H109  H     H_    0.024918 0.372696 0.788176 0.254434
O50   O     O_3   0.998519 0.435932 0.203189 -0.593327
C203  C     C_3   0.997577 0.410676 0.251155 0.067993
H110  H     H_    0.973773 0.413016 0.303327 0.146591
H111  H     H_    0.020453 0.412524 0.259446 0.148891
C204  C     C_3   0.997765 0.375500 0.220336 -0.760198
H112  H     H_    0.021503 0.372196 0.168565 0.246031
H113  H     H_    0.996863 0.355274 0.257711 0.200206
H114  H     H_    0.975081 0.372696 0.211824 0.254434
O51   O     O_3   0.513894 0.937337 0.784218 -0.590089
C205  C     C_3   0.519283 0.912729 0.731669 0.070800
H115  H     H_    0.541713 0.919747 0.679737 0.146210
H116  H     H_    0.496061 0.909913 0.724844 0.147556
C206  C     C_3   0.526645 0.878277 0.754782 -0.762748
H117  H     H_    0.504554 0.870385 0.806295 0.253763
H118  H     H_    0.530913 0.858566 0.713911 0.198245
H119  H     H_    0.549979 0.880094 0.761259 0.249145
O52   O     O_3   0.486116 0.937335 0.215771 -0.590090
C207  C     C_3   0.480730 0.912726 0.268317 0.070796
H120  H     H_    0.458299 0.919741 0.320250 0.146209
H121  H     H_    0.503952 0.909914 0.275143 0.147558
C208  C     C_3   0.473375 0.878273 0.245199 -0.762748
H122  H     H_    0.495467 0.870385 0.193685 0.253765
H123  H     H_    0.469109 0.858561 0.286067 0.198245
H124  H     H_    0.450040 0.880087 0.238720 0.249146
N1    N     N_R   0.215717 0.566570 0.298369 0.111185
O53   O     O_R   0.188864 0.574750 0.292082 -0.341795
O54   O     O_R   0.229635 0.589761 0.320154 -0.365177
N2    N     N_R   0.784283 0.566570 0.701631 0.111186
O55   O     O_R   0.811136 0.574750 0.707918 -0.341795
O56   O     O_R   0.770365 0.589761 0.679846 -0.365177
N3    N     N_R   0.715670 0.066353 0.302102 0.111185
O57   O     O_R   0.688777 0.075004 0.296366 -0.342106
O58   O     O_R   0.729610 0.089012 0.324958 -0.365071
N4    N     N_R   0.284330 0.066353 0.697900 0.111184
O59   O     O_R   0.311223 0.075004 0.703636 -0.342106
O60   O     O_R   0.270390 0.089013 0.675044 -0.365071
N5    N     N_R   0.172448 0.482828 0.208448 0.122263
O61   O     O_R   0.158269 0.460474 0.185506 -0.361622
O62   O     O_R   0.198825 0.500091 0.162145 -0.326019
N6    N     N_R   0.827552 0.482828 0.791552 0.122263
O63   O     O_R   0.841731 0.460474 0.814494 -0.361622
O64   O     O_R   0.801175 0.500091 0.837855 -0.326018
N7    N     N_R   0.672516 0.984849 0.207750 0.122372
O65   O     O_R   0.658360 0.963137 0.183504 -0.360513
O66   O     O_R   0.698924 0.002423 0.162479 -0.326202
N8    N     N_R   0.327484 0.984848 0.792250 0.122372
O67   O     O_R   0.341640 0.963136 0.816495 -0.360513
O68   O     O_R   0.301076 0.002422 0.837522 -0.326203
O69   O     O_3   0.105744 0.522083 0.497879 -0.597555
C209  C     C_3   0.108555 0.557845 0.503600 0.104679
H125  H     H_    0.100413 0.572067 0.468941 0.164711
H126  H     H_    0.135362 0.565096 0.489153 0.165171
C210  C     C_3   0.085253 0.568660 0.580272 -0.789919
H127  H     H_    0.092973 0.555335 0.616259 0.246052
H128  H     H_    0.087214 0.596753 0.585668 0.204549
H129  H     H_    0.058216 0.562072 0.595978 0.256631
O70   O     O_3   0.894256 0.522083 0.502121 -0.597555
C211  C     C_3   0.891446 0.557845 0.496399 0.104679
H130  H     H_    0.899587 0.572067 0.531058 0.164711
H131  H     H_    0.864638 0.565096 0.510847 0.165171
C212  C     C_3   0.914747 0.568660 0.419728 -0.789920
H132  H     H_    0.907027 0.555335 0.383741 0.246052
H133  H     H_    0.912786 0.596753 0.414332 0.204549
H134  H     H_    0.941784 0.562072 0.404022 0.256631
O71   O     O_3   0.605640 0.020331 0.499278 -0.601608
C213  C     C_3   0.608196 0.055986 0.506857 0.101927
H135  H     H_    0.599735 0.070715 0.473303 0.165559
H136  H     H_    0.635002 0.063293 0.492316 0.166681
C214  C     C_3   0.585072 0.065878 0.584201 -0.795132
H137  H     H_    0.593016 0.051890 0.619140 0.247290
H138  H     H_    0.586982 0.093848 0.591101 0.205393
H139  H     H_    0.557993 0.059398 0.600002 0.259522
O72   O     O_3   0.394360 0.020332 0.500722 -0.601605
C215  C     C_3   0.391804 0.055987 0.493145 0.101928
H140  H     H_    0.400266 0.070715 0.526698 0.165558
H141  H     H_    0.364997 0.063295 0.507687 0.166680
C216  C     C_3   0.414928 0.065878 0.415801 -0.795127
H142  H     H_    0.413018 0.093849 0.408901 0.205391
H143  H     H_    0.442006 0.059399 0.399998 0.259520
H144  H     H_    0.406982 0.051892 0.380862 0.247289

loop_
_geom_bond_atom_site_label_1
_geom_bond_atom_site_label_2
_geom_bond_distance
_ccdc_geom_bond_type
C170  H86   1.082076 S    
C51   C55   1.403134 A    
C157  H77   1.083409 S    
C73   C77   1.404673 A    
C136  C138  1.402569 A    
O24   C118  1.283397 A    
O39   Cu11  1.954436 S    
C210  H127  1.110352 S    
C1    C97   1.462694 S    
C14   C18   1.523201 S    
C56   H32   1.083228 S    
C180  H92   1.083364 S    
C58   C62   1.404715 A    
C4    C100  1.462196 S    
O71   C213  1.411897 S    
C75   C79   1.404588 A    
C166  H82   1.083233 S    
C194  C197  1.401827 A    
C66   C70   1.404655 A    
N3    O58   1.301413 A    
C158  H78   1.083405 S    
C31   C35   1.548849 S    
N1    O54   1.301413 A    
O21   C115  1.283793 A    
C9    C13   1.537656 S    
C52   C56   1.403135 A    
C10   H2    1.110077 S    
C43   C63   1.404662 A    
C147  C150  1.404413 A    
C204  H114  1.110845 S    
C215  C216  1.520149 S    
C82   H46   1.083237 S    
C97   C101  1.402070 A    
C148  H72   1.083074 S    
C134  C137  1.404183 A    
C216  H143  1.110315 S    
O48   C128  1.300597 A    
C177  H89   1.082036 S    
O22   C116  1.283793 A    
C83   C87   1.399911 A    
C149  C163  1.488799 S    
C177  C187  1.408672 A    
C76   C80   1.404589 A    
C202  H109  1.110845 S    
C172  C174  1.401474 A    
C25   H9    1.110087 S    
O36   Cu12  1.959096 S    
C70   C74   1.418517 A    
C27   H11   1.110125 S    
C180  C188  1.399854 A    
O33   C121  1.296561 A    
C186  C200  1.469068 S    
C178  C184  1.395871 A    
C166  C170  1.395890 A    
C154  C163  1.408455 A    
C96   H52   1.083980 S    
C89   N5    1.439707 S    
C60   C64   1.404779 A    
C114  C162  1.473639 S    
C214  H139  1.110320 S    
C207  H121  1.113301 S    
O16   Cu4   1.969061 S    
C50   C54   1.403111 A    
C129  C133  1.394768 A    
O13   C5    1.286771 A    
O7    Cu4   1.954089 S    
C189  C193  1.395868 A    
O15   C7    1.286635 A    
C28   H12   1.110123 S    
C82   C86   1.399817 A    
C181  H93   1.082037 S    
Cu6   O30   1.959480 S    
C212  H134  1.110032 S    
O9    C5    1.285784 A    
C196  C198  1.404190 A    
O20   Cu8   1.959051 S    
C106  H54   1.083481 S    
C159  C162  1.404598 A    
C69   C73   1.418516 A    
Cu12  O48   1.959356 S    
O51   C205  1.408905 S    
O8    Cu4   1.954096 S    
C210  H129  1.110032 S    
N4    O60   1.301415 A    
C16   C20   1.523261 S    
C69   N1    1.439794 S    
C42   C62   1.404640 A    
C156  H76   1.083032 S    
C70   N2    1.439795 S    
C141  C151  1.404528 A    
C98   C102  1.402070 A    
C133  C137  1.404185 A    
C143  C145  1.396308 A    
C215  H141  1.112884 S    
C165  C175  1.401970 A    
C101  O69   1.383773 S    
O3    Cu2   1.954480 S    
C44   H24   1.083048 S    
C33   C37   1.541747 S    
C43   C47   1.396153 A    
C208  H122  1.110965 S    
C35   C39   1.541666 S    
C119  C197  1.470481 S    
C36   C40   1.541665 S    
O35   Cu11  1.959096 S    
C14   O50   1.410356 S    
C26   H10   1.110085 S    
O19   C114  1.293600 A    
O39   C125  1.299149 A    
O49   C201  1.408766 S    
C179  H91   1.083364 S    
C148  C150  1.404411 A    
C143  C152  1.401088 A    
C25   C29   1.548653 S    
C155  C159  1.394523 A    
O44   C126  1.299101 A    
C27   C31   1.549077 S    
C156  C160  1.394523 A    
O72   C215  1.411897 S    
C211  H131  1.112812 S    
O3    C3    1.291258 A    
C106  C110  1.404752 A    
C24   C28   1.548507 S    
C144  C146  1.396308 A    
C14   C34   1.537753 S    
C17   C21   1.535886 S    
O45   C127  1.301149 A    
N5    O61   1.301463 A    
C19   C23   1.535452 S    
C190  C194  1.395868 A    
C93   H49   1.083991 S    
C132  H60   1.083095 S    
C206  H118  1.110442 S    
C195  H103  1.083171 S    
C50   C86   1.474965 S    
O69   C209  1.411922 S    
C41   C61   1.404640 A    
C74   C110  1.481478 S    
C18   C116  1.462799 S    
O33   Cu9   1.959096 S    
C90   N6    1.439705 S    
C165  C169  1.395886 A    
O70   C211  1.411921 S    
C160  C162  1.404602 A    
C12   C16   1.537033 S    
C55   C59   1.396812 A    
N6    O63   1.301462 A    
C89   C109  1.417773 A    
C190  C199  1.407955 A    
O32   C120  1.292455 A    
C13   O49   1.410355 S    
C153  H73   1.082087 S    
C48   H28   1.083242 S    
C68   C72   1.404648 A    
C59   C63   1.404779 A    
C91   C111  1.417752 A    
C203  H110  1.113200 S    
C158  C161  1.400808 A    
C184  C186  1.399873 A    
O5    Cu3   1.954089 S    
C79   H43   1.083420 S    
C63   C125  1.474121 S    
C144  H68   1.083314 S    
N7    O66   1.301361 A    
C15   C19   1.523263 S    
C58   H34   1.083037 S    
C168  C176  1.404355 A    
O8    C4    1.291799 A    
C193  C197  1.401826 A    
C30   H14   1.110084 S    
Cu11  Cu12  2.684337 S    
C76   C112  1.481247 S    
Cu5   O29   1.959480 S    
C127  C139  1.475001 S    
O43   C125  1.299101 A    
C75   C111  1.481247 S    
C173  C187  1.488170 S    
N8    O68   1.301362 A    
C208  H124  1.110829 S    
C9    C37   1.541731 S    
C10   C14   1.537656 S    
O13   Cu3   1.969059 S    
C11   C39   1.541613 S    
C12   C40   1.541616 S    
C56   C60   1.396808 A    
C194  H102  1.083266 S    
C203  C204  1.521274 S    
O20   C114  1.293596 A    
O22   Cu6   1.969875 S    
C83   H47   1.083226 S    
C65   H37   1.083492 S    
C72   N4    1.439813 S    
C67   H39   1.083477 S    
O30   C119  1.292474 A    
C72   C76   1.418415 A    
C16   O52   1.410325 S    
Cu7   Cu8   2.665485 S    
O15   Cu4   1.969059 S    
C201  C202  1.521275 S    
C17   C29   1.536199 S    
O19   Cu7   1.959051 S    
C19   C31   1.536823 S    
C155  C164  1.404183 A    
C21   H5    1.109836 S    
C209  H125  1.115686 S    
C96   C100  1.398875 A    
C167  C171  1.396217 A    
O28   Cu7   1.968900 S    
C157  C161  1.400800 A    
C129  C139  1.404982 A    
C60   H36   1.083028 S    
C192  C196  1.396196 A    
O34   C121  1.296567 A    
C129  H57   1.082939 S    
C36   H20   1.110114 S    
O14   C6    1.286772 A    
C10   C22   1.550063 S    
C84   H48   1.083228 S    
N2    O55   1.301390 A    
C55   H31   1.083227 S    
O1    Cu1   1.954480 S    
C169  H85   1.082078 S    
C150  C164  1.477698 S    
O40   C126  1.299149 A    
Cu11  O47   1.959356 S    
C213  H135  1.115625 S    
O47   C128  1.300595 A    
O10   C6    1.285785 A    
N1    O53   1.301395 A    
O35   C122  1.296559 A    
C78   C82   1.393387 A    
C165  H81   1.083233 S    
C136  H64   1.083264 S    
O25   Cu6   1.968900 S    
C155  H75   1.083032 S    
C167  C176  1.404357 A    
C45   H25   1.083254 S    
C121  C175  1.471028 S    
C193  H101  1.083266 S    
C204  H113  1.110413 S    
C47   H27   1.083246 S    
C179  C188  1.399857 A    
O17   C113  1.292031 A    
C104  C108  1.401695 A    
C130  H58   1.082941 S    
C209  C210  1.520067 S    
C216  H142  1.110327 S    
O27   C117  1.284551 A    
O44   Cu11  1.955943 S    
C44   C48   1.396153 A    
C132  C140  1.404483 A    
C185  C199  1.488151 S    
C41   H21   1.083061 S    
C100  C104  1.401960 A    
C202  H108  1.110413 S    
C34   C38   1.541749 S    
C43   H23   1.083047 S    
C205  H115  1.113319 S    
C201  H106  1.113411 S    
C210  H128  1.110341 S    
O23   C117  1.283397 A    
C57   C61   1.404715 A    
C67   C87   1.402028 A    
O41   Cu10  1.955939 S    
O5    C1    1.291878 A    
C26   C30   1.548654 S    
C65   C85   1.401881 A    
C153  C163  1.408458 A    
C32   H16   1.110096 S    
C92   C96   1.403665 A    
C77   C81   1.393387 A    
C22   H6    1.109838 S    
C171  C174  1.401475 A    
C174  C188  1.469029 S    
C214  H138  1.110323 S    
C107  C111  1.404802 A    
C53   C57   1.396909 A    
C196  H104  1.083171 S    
C105  C109  1.404753 A    
C15   C35   1.538191 S    
C18   C22   1.535883 S    
C141  H65   1.083023 S    
C201  H105  1.113200 S    
O42   Cu9   1.955943 S    
C180  C182  1.395874 A    
C108  C112  1.404801 A    
O18   C113  1.292027 A    
C137  C151  1.478073 S    
C143  H67   1.083314 S    
C141  C147  1.394628 A    
C138  C152  1.473229 S    
C142  C148  1.394631 A    
C212  H133  1.110341 S    
C51   C87   1.475250 S    
C178  H90   1.082034 S    
C108  H56   1.083503 S    
Cu9   Cu10  2.684337 S    
C128  C140  1.472866 S    
C49   C85   1.474965 S    
C95   C99   1.398875 A    
O4    C4    1.291260 A    
C102  C106  1.401761 A    
C5    C37   1.463876 S    
O6    Cu3   1.954096 S    
C68   H40   1.083478 S    
C41   C45   1.396136 A    
C52   C88   1.475250 S    
C7    C39   1.463643 S    
C8    C40   1.463643 S    
C11   C23   1.550925 S    
O25   C115  1.284101 A    
C12   C24   1.550924 S    
C146  C149  1.408415 A    
C90   C110  1.417771 A    
O37   C123  1.299152 A    
C46   H26   1.083254 S    
O12   Cu2   1.969269 S    
C205  H116  1.113304 S    
C25   C37   1.537710 S    
C154  H74   1.082087 S    
Cu5   Cu6   2.665485 S    
C33   H17   1.110164 S    
O1    C1    1.291437 A    
C78   H42   1.083411 S    
C35   H19   1.110119 S    
C94   H50   1.083991 S    
C23   C27   1.548512 S    
C130  C134  1.394764 A    
C205  C206  1.521198 S    
C42   H22   1.083062 S    
C61   C123  1.473915 S    
O46   C127  1.301150 A    
C145  H69   1.082076 S    
C32   C36   1.548849 S    
C213  C214  1.520148 S    
C147  H71   1.083074 S    
C182  H94   1.082037 S    
C94   C98   1.399016 A    
C21   C25   1.548677 S    
C44   C64   1.404665 A    
C216  H144  1.110496 S    
C20   C118  1.462923 S    
C27   C39   1.537469 S    
C24   H8    1.109905 S    
C211  C212  1.520066 S    
C122  C176  1.470957 S    
N8    O67   1.301460 A    
C66   C86   1.401882 A    
O26   Cu5   1.968900 S    
C131  H59   1.083097 S    
C10   C38   1.541735 S    
C28   C40   1.537474 S    
C11   C15   1.537034 S    
C54   C58   1.396912 A    
C89   C93   1.403748 A    
C3    C99   1.462192 S    
C179  C181  1.395874 A    
C206  H117  1.110966 S    
O31   C120  1.292455 A    
C15   O51   1.410328 S    
C195  C198  1.404188 A    
C77   H41   1.083407 S    
C29   C33   1.549721 S    
C67   C71   1.404648 A    
Cu9   O45   1.959356 S    
C91   N7    1.439724 S    
C80   H44   1.083418 S    
C65   C69   1.404655 A    
O6    C2    1.291876 A    
O4    Cu2   1.954480 S    
C71   N3    1.439815 S    
C207  H120  1.113319 S    
C2    C98   1.462694 S    
C120  C198  1.470345 S    
C171  H87   1.083306 S    
C42   C46   1.396136 A    
C172  H88   1.083306 S    
C145  C149  1.408411 A    
N6    O64   1.301364 A    
O38   Cu10  1.954436 S    
O34   Cu10  1.959096 S    
C18   C30   1.536196 S    
O41   C123  1.298993 A    
O17   Cu5   1.959051 S    
O2    Cu1   1.954480 S    
C167  H83   1.083128 S    
O10   Cu1   1.969269 S    
C189  H97   1.082079 S    
Cu7   O31   1.959480 S    
C34   H18   1.110161 S    
C191  H99   1.083302 S    
C160  H80   1.082978 S    
O21   Cu5   1.969875 S    
C9    C21   1.550064 S    
N4    O59   1.301392 A    
C84   C88   1.399912 A    
C191  C195  1.396196 A    
O43   Cu12  1.955939 S    
C81   H45   1.083235 S    
C131  C135  1.396651 A    
C142  C151  1.404528 A    
C20   C24   1.535451 S    
C215  H140  1.115623 S    
O40   Cu12  1.954436 S    
C19   C117  1.462925 S    
N3    O57   1.301392 A    
C184  H96   1.083365 S    
C80   C84   1.393325 A    
C207  C208  1.521198 S    
O36   C122  1.296565 A    
O7    C3    1.291801 A    
C208  H123  1.110441 S    
C79   C83   1.393325 A    
C144  C152  1.401085 A    
C71   C75   1.418415 A    
O38   C124  1.299152 A    
C105  H53   1.083481 S    
O29   C119  1.292474 A    
C134  H62   1.083039 S    
C192  H100  1.083302 S    
O42   C124  1.298993 A    
C20   C32   1.536822 S    
C211  H130  1.115684 S    
C168  C172  1.396217 A    
C113  C161  1.467581 S    
C192  C200  1.401557 A    
O16   C8    1.286636 A    
C62   C124  1.473915 S    
C17   C115  1.462799 S    
C166  C175  1.401968 A    
C131  C140  1.404477 A    
C57   H33   1.083038 S    
C206  H119  1.110833 S    
C64   C126  1.474121 S    
O11   C7    1.285811 A    
C102  O70   1.383774 S    
C181  C185  1.408667 A    
O12   C8    1.285812 A    
C209  H126  1.112808 S    
C156  C164  1.404183 A    
O9    Cu1   1.969267 S    
C104  O72   1.383734 S    
O24   Cu8   1.969875 S    
C178  C187  1.408670 A    
C23   H7    1.109906 S    
C190  H98   1.082075 S    
C107  H55   1.083503 S    
C93   C97   1.399017 A    
C53   H29   1.083234 S    
C135  H63   1.083264 S    
C13   C17   1.523199 S    
N2    O56   1.301414 A    
C142  H66   1.083020 S    
O11   Cu2   1.969267 S    
C103  C107  1.401695 A    
Cu8   O32   1.959480 S    
C99   C103  1.401961 A    
Cu10  O46   1.959356 S    
C45   C49   1.402830 A    
C66   H38   1.083492 S    
C95   H51   1.083982 S    
C133  H61   1.083037 S    
O26   C116  1.284101 A    
C6    C38   1.463876 S    
C170  C173  1.407900 A    
N7    O65   1.301463 A    
C135  C138  1.402567 A    
C101  C105  1.401761 A    
C9    H1    1.110080 S    
C189  C199  1.407954 A    
C204  H112  1.110895 S    
O37   Cu9   1.954436 S    
C182  C185  1.408667 A    
O18   Cu6   1.959051 S    
C68   C88   1.402025 A    
C26   C38   1.537709 S    
C91   C95   1.403661 A    
C177  C183  1.395871 A    
N5    O62   1.301363 A    
C92   C112  1.417752 A    
O2    C2    1.291439 A    
O27   Cu8   1.968900 S    
C48   C52   1.402949 A    
C202  H107  1.110895 S    
C30   C34   1.549722 S    
C81   C85   1.399817 A    
C13   C33   1.537755 S    
C146  H70   1.082076 S    
C191  C200  1.401554 A    
C29   H13   1.110081 S    
O14   Cu3   1.969061 S    
C169  C173  1.407904 A    
C16   C36   1.538194 S    
C74   C78   1.404673 A    
C132  C136  1.396651 A    
C73   C109  1.481474 S    
C159  H79   1.082983 S    
Cu1   Cu3   2.670536 S    
C22   C26   1.548679 S    
Cu2   Cu4   2.670536 S    
C103  O71   1.383735 S    
C47   C51   1.402949 A    
C31   H15   1.110097 S    
O50   C203  1.408766 S    
C183  H95   1.083365 S    
C214  H137  1.110495 S    
O52   C207  1.408906 S    
C203  H111  1.113411 S    
C11   H3    1.110156 S    
C154  C158  1.396172 A    
C54   H30   1.083230 S    
C12   H4    1.110154 S    
C213  H136  1.112885 S    
O23   Cu7   1.969875 S    
C90   C94   1.403748 A    
C168  H84   1.083128 S    
C212  H132  1.110350 S    
O28   C118  1.284551 A    
C153  C157  1.396172 A    
C59   H35   1.083025 S    
C46   C50   1.402830 A    
C183  C186  1.399871 A    
C49   C53   1.403113 A    
C130  C139  1.404980 A    
C28   C32   1.549079 S    
C92   N8    1.439723 S    
