data_mof_unit_30224.cif
_audit_creation_date              2012-12-11T15:35:02-0500
_audit_creation_method            fapswitch 2.2
_symmetry_space_group_name_H-M    P1
_symmetry_Int_Tables_number       1
_space_group_crystal_system       triclinic
_cell_length_a                    30.440488
_cell_length_b                    7.243775
_cell_length_c                    26.006694
_cell_angle_alpha                 90.018479
_cell_angle_beta                  112.118006
_cell_angle_gamma                 89.762057
_cell_volume                      5312.524851

loop_
_atom_site_label
_atom_site_type_symbol
_atom_type_description
_atom_site_fract_x
_atom_site_fract_y
_atom_site_fract_z
_atom_type_partial_charge
O1    O     O_R   0.295360 0.592990 0.320420 -0.540659
O2    O     O_R   0.704640 0.407010 0.679580 -0.530675
O3    O     O_R   0.204640 0.092990 0.179580 -0.539330
O4    O     O_R   0.795360 0.907010 0.820420 -0.528767
O5    O     O_R   0.294060 0.265620 0.213230 -0.546005
O6    O     O_R   0.705940 0.734380 0.786770 -0.541971
O7    O     O_R   0.205940 0.765620 0.286770 -0.524363
O8    O     O_R   0.794060 0.234380 0.713230 -0.542647
C1    C     C_R   0.304860 0.431743 0.200530 0.707754
C2    C     C_R   0.695850 0.568086 0.800489 0.719108
C3    C     C_R   0.195562 0.932129 0.300011 0.774129
C4    C     C_R   0.804120 0.067557 0.699519 0.717039
O9    O     O_R   0.300850 0.263360 0.322080 -0.536260
O10   O     O_R   0.699150 0.736640 0.677920 -0.537535
O11   O     O_R   0.199150 0.763360 0.177920 -0.522580
O12   O     O_R   0.800850 0.236640 0.822080 -0.538384
O13   O     O_R   0.211480 0.091820 0.289210 -0.525310
O14   O     O_R   0.788520 0.908180 0.710790 -0.510320
O15   O     O_R   0.288520 0.591820 0.210790 -0.512404
O16   O     O_R   0.711480 0.408180 0.789210 -0.509065
C5    C     C_R   0.313558 0.432184 0.343136 0.666596
C6    C     C_R   0.686910 0.567805 0.656377 0.680188
C7    C     C_R   0.186693 0.932546 0.156739 0.689268
C8    C     C_R   0.813143 0.067236 0.843593 0.682650
O17   O     O_3   0.220670 0.426670 0.239090 -0.367939
O18   O     O_3   0.779330 0.573330 0.760910 -0.371942
O19   O     O_3   0.279330 0.926670 0.260910 -0.379918
O20   O     O_3   0.720670 0.073330 0.739090 -0.370965
V1    V     V_3+5 0.255440 0.152290 0.252020 1.440971
V2    V     V_3+5 0.744560 0.847710 0.747980 1.473640
V3    V     V_3+5 0.244560 0.652290 0.247980 1.481968
V4    V     V_3+5 0.755440 0.347710 0.752020 1.470367
C9    C     C_R   0.848265 0.046548 0.901466 -0.238402
C10   C     C_R   0.149910 0.945024 0.099862 -0.224114
C11   C     C_R   0.651856 0.549962 0.598440 -0.233915
C12   C     C_R   0.350682 0.443043 0.399851 -0.226965
C13   C     C_R   0.868634 0.882988 0.989020 -0.150498
C14   C     C_R   0.128791 0.987972 0.000904 -0.138713
C15   C     C_R   0.632464 0.410882 0.507510 -0.148307
C16   C     C_R   0.372509 0.451753 0.499668 -0.138715
C17   C     C_R   0.834336 0.949475 0.940191 0.307715
C18   C     C_R   0.163528 0.969554 0.053884 0.298740
C19   C     C_R   0.666396 0.465555 0.558152 0.304310
C20   C     C_R   0.337531 0.443861 0.446591 0.305289
C21   C     C_R   0.897244 0.084288 0.915284 0.265716
C22   C     C_R   0.100884 0.948701 0.091366 0.268535
C23   C     C_R   0.602658 0.582573 0.585214 0.268736
C24   C     C_R   0.399335 0.464449 0.407926 0.269218
C25   C     C_R   0.932307 0.988848 0.960897 0.060231
C26   C     C_R   0.065493 0.947699 0.036089 0.064939
C27   C     C_R   0.568235 0.495318 0.537583 0.060283
C28   C     C_R   0.435275 0.449746 0.462632 0.061104
C29   C     C_R   0.916946 0.897751 0.999160 -0.047322
C30   C     C_R   0.080505 0.979074 0.991638 -0.047246
C31   C     C_R   0.584003 0.422039 0.497186 -0.047881
C32   C     C_R   0.420676 0.455446 0.508130 -0.048595
C33   C     C_R   0.981935 0.979175 0.969987 -0.046444
C34   C     C_R   0.015606 0.922857 0.023253 -0.039387
C35   C     C_R   0.518852 0.476934 0.528587 -0.045245
C36   C     C_R   0.485219 0.434750 0.474052 -0.042294
C37   C     C_R   0.998477 0.822539 0.058651 0.420656
C38   C     C_R   0.998469 0.998471 0.926006 0.419010
C39   C     C_R   0.502640 0.356378 0.435354 0.416604
C40   C     C_R   0.502833 0.473203 0.573273 0.416192
C41   C     C_R   0.949610 0.813865 0.046470 -0.273326
C42   C     C_R   0.047339 0.998980 0.937575 -0.257499
C43   C     C_R   0.551587 0.352247 0.447411 -0.269029
C44   C     C_R   0.454149 0.462852 0.562313 -0.259525
H1    H     H_    0.936846 0.736394 0.073693 0.122478
H2    H     H_    0.059635 0.013757 0.903702 0.123266
H3    H     H_    0.564613 0.289622 0.417970 0.122965
H4    H     H_    0.442261 0.459044 0.596718 0.123042
H5    H     H_    0.857111 0.810783 0.018242 0.148181
H6    H     H_    0.139919 0.010321 0.966382 0.149462
H7    H     H_    0.644380 0.350580 0.476808 0.148739
H8    H     H_    0.361670 0.455577 0.534896 0.149978
C45   C     C_R   0.074870 0.842819 0.459798 0.591360
C46   C     C_R   0.917124 0.154018 0.529642 0.621069
C47   C     C_R   0.431413 0.323328 0.046784 0.620859
C48   C     C_R   0.575942 0.673099 0.962844 0.620130
N1    N     N_R   0.069374 0.967249 0.418382 -0.547802
N2    N     N_R   0.920540 0.023081 0.568758 -0.553702
N3    N     N_R   0.428174 0.469421 0.078431 -0.558926
N4    N     N_R   0.578802 0.527882 0.930652 -0.556978
C49   C     C_R   0.035007 0.100548 0.404928 0.638023
C50   C     C_R   0.951382 0.877873 0.578019 0.649483
C51   C     C_R   0.453665 0.626950 0.081817 0.653226
C52   C     C_R   0.553378 0.370107 0.927379 0.652383
C53   C     C_R   0.004224 0.115566 0.434415 -0.096885
C54   C     C_R   0.983055 0.865637 0.549647 -0.101106
C55   C     C_R   0.486215 0.639431 0.054726 -0.091757
C56   C     C_R   0.521214 0.356723 0.954970 -0.091234
C57   C     C_R   0.009723 0.988568 0.477948 -0.109804
C58   C     C_R   0.979029 0.997561 0.507829 -0.113770
C59   C     C_R   0.488296 0.492676 0.019628 -0.113802
C60   C     C_R   0.519260 0.503167 0.990221 -0.113440
C61   C     C_R   0.045664 0.851492 0.491288 -0.142109
C62   C     C_R   0.943942 0.137543 0.495559 -0.134022
C63   C     C_R   0.459293 0.335534 0.013871 -0.148897
C64   C     C_R   0.548290 0.660235 0.996020 -0.148685
C65   C     C_R   0.967489 0.249915 0.420741 0.253952
C66   C     C_R   0.018470 0.726493 0.561892 0.267627
C67   C     C_R   0.516868 0.792703 0.062133 0.301434
C68   C     C_R   0.490694 0.203053 0.947758 0.300786
C69   C     C_R   0.937151 0.258105 0.450222 0.299754
C70   C     C_R   0.050243 0.723232 0.534258 0.278720
C71   C     C_R   0.548118 0.801189 0.033865 0.277499
C72   C     C_R   0.459586 0.194225 0.976201 0.277311
O21   O     O_2   0.107822 0.708562 0.469221 -0.508223
O22   O     O_2   0.888400 0.300848 0.524631 -0.496090
O23   O     O_2   0.408082 0.166436 0.047914 -0.483582
O24   O     O_2   0.599382 0.829939 0.961973 -0.485678
O25   O     O_2   0.030770 0.217001 0.362869 -0.500430
O26   O     O_2   0.951399 0.747180 0.614947 -0.485732
O27   O     O_2   0.447446 0.770202 0.111564 -0.473001
O28   O     O_2   0.559122 0.227678 0.897042 -0.475000
C73   C     C_R   0.904828 0.149772 0.648246 -0.073755
C74   C     C_R   0.088523 0.855684 0.339452 -0.177704
C75   C     C_R   0.596047 0.660000 0.852886 -0.069270
C76   C     C_R   0.410562 0.352471 0.157608 -0.063368
H9    H     H_    0.937669 0.226278 0.660159 0.159240
H10   H     H_    0.054831 0.784461 0.324028 0.125212
H11   H     H_    0.563935 0.741970 0.841772 0.165449
H12   H     H_    0.444296 0.280307 0.172169 0.156780
C77   C     C_R   0.877801 0.158988 0.681546 0.285078
C78   C     C_R   0.119463 0.844803 0.310450 0.268524
C79   C     C_R   0.623165 0.668651 0.819765 0.280921
C80   C     C_R   0.381529 0.342327 0.188471 0.275195
C81   C     C_R   0.834562 0.058352 0.666130 -0.169170
C82   C     C_R   0.163266 0.939051 0.330966 -0.110679
C83   C     C_R   0.665347 0.560297 0.833847 -0.170629
C84   C     C_R   0.337117 0.437979 0.169498 -0.173541
C85   C     C_R   0.820171 0.948953 0.617253 0.227935
C86   C     C_R   0.176168 0.037512 0.381559 0.182502
C87   C     C_R   0.678709 0.444963 0.881527 0.229696
C88   C     C_R   0.323199 0.538859 0.119098 0.219244
C89   C     C_R   0.848963 0.937825 0.585896 -0.150382
C90   C     C_R   0.144477 0.048457 0.409187 -0.147899
C91   C     C_R   0.649822 0.435049 0.912750 -0.145692
C92   C     C_R   0.353762 0.550122 0.090024 -0.149890
H13   H     H_    0.838264 0.852441 0.549037 0.146512
H14   H     H_    0.154200 0.124544 0.447730 0.141182
H15   H     H_    0.659803 0.345361 0.948711 0.151482
H16   H     H_    0.343229 0.628589 0.051781 0.145487
C93   C     C_R   0.891046 0.038074 0.600993 0.254463
C94   C     C_R   0.100817 0.958166 0.388470 0.311986
C95   C     C_R   0.608636 0.542052 0.898778 0.239310
C96   C     C_R   0.397270 0.457251 0.108942 0.247656
N5    N     N_2   0.776815 0.848729 0.599227 -0.514707
H17   H     H_    0.777322 0.732088 0.576696 0.271654
C97   C     C_3   0.734770 0.959415 0.571699 -0.466194
H18   H     H_    0.736050 0.022197 0.533297 0.202071
H19   H     H_    0.731391 0.070052 0.599495 0.212944
H20   H     H_    0.702836 0.870801 0.560288 0.187194
N6    N     N_2   0.221293 0.123482 0.405723 -0.511165
H21   H     H_    0.222767 0.228567 0.433072 0.289639
C98   C     C_3   0.262138 0.001009 0.425557 -0.446920
H22   H     H_    0.279069 0.008014 0.471546 0.194503
H23   H     H_    0.288351 0.045218 0.407835 0.203951
H24   H     H_    0.252536 0.854765 0.413680 0.181593
N7    N     N_2   0.721244 0.338232 0.898672 -0.512941
H25   H     H_    0.719696 0.219650 0.919862 0.268149
C99   C     C_3   0.764053 0.441717 0.927594 -0.473232
H26   H     H_    0.762910 0.502004 0.966381 0.200012
H27   H     H_    0.768562 0.553669 0.900932 0.216993
H28   H     H_    0.795300 0.348529 0.938555 0.185884
N8    N     N_2   0.278076 0.627277 0.096718 -0.509134
H29   H     H_    0.277667 0.740893 0.072664 0.282953
C100  C     C_3   0.239007 0.504155 0.068689 -0.462689
H30   H     H_    0.243257 0.441851 0.031759 0.194991
H31   H     H_    0.205145 0.582811 0.054816 0.204379
H32   H     H_    0.236924 0.392554 0.096920 0.197521
N9    N     N_2   0.087578 0.979772 0.137756 -0.472888
H33   H     H_    0.109716 0.921516 0.174562 0.280593
C101  C     C_3   0.075315 0.169132 0.144249 -0.498489
H34   H     H_    0.063288 0.178631 0.179525 0.205658
H35   H     H_    0.046016 0.218203 0.106188 0.200290
H36   H     H_    0.106716 0.259511 0.152956 0.199655
N10   N     N_2   0.910818 0.230434 0.887644 -0.469909
H37   H     H_    0.888057 0.256372 0.847569 0.260534
C102  C     C_3   0.925388 0.397648 0.920018 -0.491353
H38   H     H_    0.937340 0.500546 0.896468 0.213120
H39   H     H_    0.955391 0.369237 0.959807 0.195663
H40   H     H_    0.895177 0.457284 0.928699 0.182842
N11   N     N_2   0.411340 0.527124 0.362822 -0.472879
H41   H     H_    0.388517 0.487702 0.323951 0.240362
C103  C     C_3   0.423165 0.721019 0.365024 -0.472796
H42   H     H_    0.433966 0.755529 0.329879 0.208603
H43   H     H_    0.453183 0.753942 0.404294 0.194862
H44   H     H_    0.391881 0.806974 0.361749 0.190431
N12   N     N_2   0.588072 0.715839 0.616046 -0.471081
H45   H     H_    0.611176 0.735698 0.656239 0.254282
C104  C     C_3   0.571213 0.888357 0.587129 -0.488938
H46   H     H_    0.558830 0.980360 0.613137 0.215541
H47   H     H_    0.540955 0.864388 0.547310 0.192936
H48   H     H_    0.600304 0.958418 0.578823 0.183667
O29   O     O_3   0.210113 0.984348 0.058445 -0.651746
H49   H     H_    0.231831 0.979985 0.097797 0.291715
O30   O     O_3   0.787566 0.914723 0.932061 -0.651664
H50   H     H_    0.766247 0.985376 0.899735 0.294691
O31   O     O_3   0.291052 0.446601 0.442839 -0.649194
H51   H     H_    0.269193 0.461360 0.403779 0.292010
O32   O     O_3   0.713321 0.433699 0.566072 -0.651399
H52   H     H_    0.734453 0.492221 0.600869 0.294675
O33   O     O_3   0.029111 0.712241 0.100245 -0.629329
H53   H     H_    0.011492 0.649283 0.120384 0.286269
O34   O     O_3   0.966832 0.990792 0.871509 -0.629886
H54   H     H_    0.984084 0.004156 0.846100 0.299405
O35   O     O_3   0.472300 0.260897 0.389873 -0.628220
H55   H     H_    0.490070 0.212790 0.367608 0.299264
O36   O     O_3   0.535107 0.453898 0.627183 -0.631829
H56   H     H_    0.518185 0.451402 0.653145 0.295449
N13   N     N_2   0.958988 0.372681 0.375162 -0.464194
H57   H     H_    0.923774 0.384212 0.349347 0.274726
C105  C     C_3   0.981505 0.550391 0.390561 -0.406192
H58   H     H_    0.965971 0.627076 0.416724 0.193366
H59   H     H_    0.976101 0.632599 0.352621 0.178684
H60   H     H_    0.020189 0.531937 0.413622 0.231744
N14   N     N_2   0.023715 0.591444 0.603659 -0.447066
H61   H     H_    0.029450 0.459381 0.592589 0.281002
C106  C     C_3   0.056858 0.641741 0.658326 -0.448312
H62   H     H_    0.093462 0.648717 0.658790 0.181598
H63   H     H_    0.055959 0.536358 0.688899 0.196211
H64   H     H_    0.047145 0.777587 0.670988 0.201549
N15   N     N_2   0.518601 0.935487 0.100594 -0.433383
H65   H     H_    0.522707 0.066155 0.087391 0.281484
C107  C     C_3   0.551349 0.899684 0.156712 -0.469595
H66   H     H_    0.588399 0.897329 0.158477 0.181759
H67   H     H_    0.543311 0.765476 0.171848 0.200476
H68   H     H_    0.547995 0.010432 0.184553 0.197163
N16   N     N_2   0.488926 0.060173 0.909311 -0.433954
H69   H     H_    0.485171 0.929442 0.922736 0.280937
C108  C     C_3   0.455758 0.094934 0.853329 -0.469797
H70   H     H_    0.418825 0.095963 0.851962 0.180900
H71   H     H_    0.459132 0.984368 0.825446 0.197721
H72   H     H_    0.463331 0.229470 0.837939 0.201027
O37   O     O_3   0.900306 0.383597 0.432443 -0.623892
H73   H     H_    0.870970 0.315048 0.427960 0.317879
O38   O     O_3   0.085951 0.593085 0.550981 -0.624591
H74   H     H_    0.116193 0.662228 0.562852 0.321543
O39   O     O_3   0.579405 0.946685 0.046027 -0.627538
H75   H     H_    0.611531 0.892985 0.055673 0.319839
O40   O     O_3   0.428463 0.048223 0.964275 -0.627558
H76   H     H_    0.396265 0.101503 0.954379 0.318785
O41   O     O_3   0.895816 0.263886 0.729191 -0.623127
H77   H     H_    0.880999 0.225358 0.755309 0.286674
O42   O     O_3   0.107435 0.744742 0.261892 -0.642934
H78   H     H_    0.075763 0.688769 0.253120 0.300509
O43   O     O_3   0.606226 0.781215 0.773607 -0.623765
H79   H     H_    0.620217 0.742075 0.746759 0.285684
O44   O     O_3   0.398743 0.239910 0.236861 -0.628898
H80   H     H_    0.378718 0.258709 0.258676 0.291732

loop_
_geom_bond_atom_site_label_1
_geom_bond_atom_site_label_2
_ccdc_geom_bond_type
O17   V3    S    
N3    C51   A    
O32   H52   S    
C25   C29   A    
C85   C89   A    
C57   C58   A    
C51   C55   A    
O12   V4    S    
O19   V1    S    
C9    C21   A    
C100  H30   S    
O3    C7    A    
C59   C60   A    
C10   C18   A    
C56   C60   A    
C17   O30   S    
C11   C23   A    
C92   C96   A    
N11   C103  S    
N7    H25   S    
N11   H41   S    
C25   C33   A    
O44   H80   S    
N8    C100  S    
C5    C12   S    
C42   H2    S    
C102  H38   S    
O1    C5    A    
C6    C11   S    
C91   C95   A    
O43   H79   S    
C98   H22   S    
C62   C69   A    
C36   C39   A    
C40   C44   A    
C73   C93   A    
C99   H27   S    
O38   H74   S    
O10   V2    S    
C14   C18   A    
C106  H64   S    
C83   C87   A    
C105  H59   S    
C74   H10   S    
O4    C8    A    
C59   C63   A    
N4    C95   S    
C43   H3    S    
N6    C98   S    
C78   C82   A    
C75   C95   A    
O40   H76   S    
C68   C72   A    
O1    V3    S    
O13   V1    S    
O2    V4    S    
O39   H75   S    
O31   H51   S    
C97   H20   S    
O3    V1    S    
C107  H66   S    
C73   H9    S    
C2    C83   S    
C54   C66   A    
C103  H44   S    
C13   H5    S    
C28   C36   A    
C91   H15   S    
C88   C92   A    
C1    O15   A    
C15   C31   A    
C101  H34   S    
C2    O16   A    
C16   C32   A    
C46   C62   A    
C97   H18   S    
C40   O36   S    
C45   C61   A    
C10   C22   A    
C15   H7    S    
C11   C19   A    
C108  H70   S    
C53   C65   A    
C104  H46   S    
C84   C88   A    
C13   C29   A    
C7    C10   S    
C34   C37   A    
O11   C7    A    
O15   V3    S    
C35   C36   A    
O12   C8    A    
N9    H33   S    
O41   H77   S    
C48   C64   A    
C23   N12   S    
C100  H31   S    
C82   C86   A    
C39   O35   S    
C80   C84   A    
N7    C99   S    
N1    C49   A    
C54   C58   A    
C101  H36   S    
O5    V1    S    
N9    C101  S    
C65   C69   A    
C39   C43   A    
N6    H21   S    
C80   O44   S    
O7    V3    S    
C4    C81   S    
C38   C42   A    
C48   N4    A    
C26   C34   A    
C52   C56   A    
C74   C94   A    
C99   H28   S    
C85   N5    S    
C101  H35   S    
C90   H14   S    
C102  H39   S    
C65   N13   S    
N8    H29   S    
C49   C53   A    
O18   V4    S    
C68   N16   S    
C23   C27   A    
C21   N10   S    
C1    C84   S    
C104  H47   S    
N13   H57   S    
O11   V3    S    
O34   H54   S    
O9    V1    S    
C44   H4    S    
C79   O43   S    
O8    V4    S    
C52   O28   S    
O7    C3    A    
C105  H58   S    
N12   C104  S    
O5    C1    A    
C106  H62   S    
C63   C72   A    
C77   C81   A    
N14   C106  S    
C46   N2    A    
O36   H56   S    
C14   C30   A    
C45   N1    A    
O8    C4    A    
C104  H48   S    
C48   O24   S    
O35   H55   S    
C35   C40   A    
C22   N9    S    
O9    C5    A    
C46   O22   S    
C26   C30   A    
C45   O21   S    
C108  H71   S    
C66   N14   S    
C81   C85   A    
C61   C70   A    
O33   H53   S    
O6    V2    S    
C76   C96   A    
C98   H24   S    
C70   O38   S    
N16   C108  S    
C50   C54   A    
O14   V2    S    
C100  H32   S    
C105  H60   S    
C27   C35   A    
C33   C38   A    
C3    C82   S    
C57   C61   A    
C38   O34   S    
N14   H61   S    
N2    C93   S    
C29   C41   A    
C67   C71   A    
C49   O25   S    
O16   V4    S    
C102  H40   S    
C47   C63   A    
N12   H45   S    
C86   N6    S    
C89   H13   S    
C3    O13   A    
C64   C71   A    
C69   O37   S    
N15   H65   S    
C78   O42   S    
C51   O27   S    
C18   O29   S    
C92   H16   S    
C55   C67   A    
C86   C90   A    
C31   C43   A    
O42   H78   S    
C76   C80   A    
C89   C93   A    
C30   C42   A    
C88   N8    S    
C75   H11   S    
N10   H37   S    
C67   N15   S    
C22   C26   A    
C8    C9    S    
N2    C50   A    
C47   O23   S    
C50   O26   S    
C87   C91   A    
C9    C17   A    
C13   C17   A    
O10   C6    A    
N5    C97   S    
C87   N7    S    
N13   C105  S    
C24   N11   S    
C106  H63   S    
C107  H67   S    
C32   C44   A    
N5    H17   S    
C19   O32   S    
C33   C34   A    
C20   O31   S    
N4    C52   A    
C28   C32   A    
C90   C94   A    
C41   H1    S    
O37   H73   S    
C60   C64   A    
C72   O40   S    
O20   V2    S    
O2    C6    A    
N15   C107  S    
C14   H6    S    
C21   C25   A    
C12   C24   A    
C27   C31   A    
C97   H19   S    
C37   C41   A    
C53   C57   A    
O29   H49   S    
C108  H72   S    
C79   C83   A    
C103  H43   S    
C99   H26   S    
C12   C20   A    
O6    C2    A    
C56   C68   A    
O30   H50   S    
C55   C59   A    
N3    C96   S    
C47   N3    A    
C16   H8    S    
C16   C20   A    
C107  H68   S    
C15   C19   A    
C98   H23   S    
N1    C94   S    
C66   C70   A    
C4    O14   A    
N16   H69   S    
C58   C62   A    
C71   O39   S    
C103  H42   S    
C74   C78   A    
C77   O41   S    
C24   C28   A    
C73   C77   A    
O4    V2    S    
C76   H12   S    
C37   O33   S    
N10   C102  S    
C75   C79   A    
