data_mof_unit_57760.cif
_audit_creation_date              2013-03-05T16:18:32-0500
_audit_creation_method            fapswitch 2.2
_symmetry_space_group_name_H-M    P1
_symmetry_Int_Tables_number       1
_space_group_crystal_system       triclinic
_cell_length_a                    8.294172
_cell_length_b                    18.842391
_cell_length_c                    23.035364
_cell_angle_alpha                 100.294629
_cell_angle_beta                  90.624449
_cell_angle_gamma                 91.282529
_cell_volume                      3540.76618209

loop_
_atom_site_label
_atom_site_type_symbol
_atom_site_description
_atom_site_fract_x
_atom_site_fract_y
_atom_site_fract_z
_atom_type_partial_charge
P1    P     P_3+3 0.935930 0.665430 0.555670 0.509671
O1    O     O_2   0.110690 0.676100 0.539200 -0.396514
O2    O     O_3   0.863220 0.586720 0.534720 -0.343628
O3    O     O_3   0.368310 0.629070 0.432760 -0.309538
O4    O     O_2   0.226097 0.749532 0.475139 -0.408712
O5    O     O_3   0.946447 0.686019 0.633110 -0.577335
O6    O     O_3   0.329925 0.741677 0.370648 -0.470782
H1    H     H_    0.508672 0.676742 0.329992 0.064869
C1    C     C_3   0.430349 0.752905 0.276660 -0.623772
H2    H     H_    0.336365 0.715048 0.253406 0.285461
H3    H     H_    0.385803 0.808843 0.282392 0.274552
P2    P     P_3+3 0.382700 0.439650 0.365620 0.585562
P3    P     P_3+3 0.945927 0.589877 0.325255 0.605828
O7    O     O_2   0.210480 0.460990 0.358130 -0.273111
O8    O     O_3   0.959520 0.592090 0.401630 -0.287599
O9    O     O_2   0.083431 0.542268 0.297205 -0.287071
O10   O     O_3   0.370324 0.345500 0.345186 -0.556322
O11   O     O_3   0.001602 0.676225 0.313716 -0.461606
C2    C     C_3   0.875849 0.722441 0.333661 0.202354
H4    H     H_    0.837247 0.716212 0.378737 0.023012
H5    H     H_    0.773111 0.710367 0.302046 0.038855
C3    C     C_3   0.930800 0.800969 0.336864 -0.037764
H6    H     H_    0.048602 0.811075 0.360551 0.188795
C4    C     C_3   0.750509 0.326150 0.334945 0.221598
H7    H     H_    0.661731 0.357851 0.363070 0.077496
C5    C     C_3   0.672517 0.253220 0.306321 -0.174204
H8    H     H_    0.607640 0.229689 0.340249 0.093152
H9    H     H_    0.579981 0.260898 0.272831 0.135570
Ba1   Ba    Ba6+2 0.157800 0.534120 0.474430 1.699723
C6    C     C_3   0.943188 0.624232 0.659116 0.415619
H10   H     H_    0.067159 0.605525 0.662268 0.008428
H11   H     H_    0.869098 0.579295 0.634611 0.156887
C7    C     C_3   0.875892 0.644427 0.721050 -0.868773
H12   H     H_    0.954784 0.685924 0.748459 0.248887
H13   H     H_    0.867152 0.596574 0.742732 0.216789
H14   H     H_    0.753664 0.666547 0.718879 0.294417
C8    C     C_3   0.302980 0.313726 0.390028 0.226702
H15   H     H_    0.194895 0.343079 0.407414 0.135870
H16   H     H_    0.391931 0.316674 0.426822 0.089477
C9    C     C_3   0.252621 0.234992 0.363770 -0.588001
H17   H     H_    0.120419 0.227388 0.367251 0.229536
H18   H     H_    0.280132 0.222573 0.315943 0.260094
P4    P     P_3+3 0.874370 0.334570 0.444280 0.520618
O12   O     O_2   0.699610 0.323860 0.460780 -0.399712
O13   O     O_3   0.947090 0.413280 0.465240 -0.309539
O14   O     O_3   0.442000 0.370930 0.567190 -0.402477
O15   O     O_3   0.890851 0.315200 0.366693 -0.536723
P5    P     P_3+3 0.878520 0.421353 0.675765 0.431796
O16   O     O_3   0.359410 0.538600 0.570730 -0.359961
O17   O     O_3   0.850780 0.407910 0.598320 -0.395455
O18   O     O_2   0.727158 0.460996 0.701231 -0.401660
O19   O     O_3   0.848230 0.340317 0.702255 -0.505037
Ba2   Ba    Ba6+2 0.652390 0.465870 0.525520 1.611701
P6    P     P_3+3 0.376798 0.722892 0.440349 0.477986
C10   C     C_3   0.468550 0.733551 0.336456 0.311323
H19   H     H_    0.565647 0.771226 0.357484 0.032348
H20   H     H_    0.540783 0.749665 0.249648 0.223406
O20   O     O_3   0.450900 0.461390 0.429220 -0.344470
C11   C     C_3   0.350106 0.705995 0.658226 0.363524
H21   H     H_    0.251723 0.678549 0.629911 0.075979
C12   C     C_3   0.288430 0.730519 0.720741 -0.875224
H22   H     H_    0.385160 0.760049 0.749727 0.288579
H23   H     H_    0.184159 0.766341 0.719919 0.231367
H24   H     H_    0.249385 0.682940 0.739771 0.235601
P7    P     P_3+3 0.425697 0.569720 0.644290 0.450313
O21   O     O_2   0.599830 0.538970 0.641850 -0.336568
O22   O     O_3   0.482323 0.661510 0.659835 -0.549314
H25   H     H_    0.841415 0.836560 0.362449 0.064239
C13   C     C_3   0.943509 0.284358 0.673152 0.169903
H26   H     H_    0.061946 0.305447 0.660672 -0.038923
C14   C     C_3   0.973648 0.229949 0.715517 -0.041024
H27   H     H_    0.857267 0.202012 0.721987 0.166777
P8    P     P_3+3 0.425994 0.277661 0.563617 0.418433
C15   C     C_3   0.453420 0.317640 0.676185 0.346666
H28   H     H_    0.327862 0.336850 0.677470 0.035712
O23   O     O_2   0.562865 0.243514 0.523903 -0.394838
O24   O     O_3   0.469550 0.255889 0.632791 -0.528125
H29   H     H_    0.536502 0.361151 0.667696 0.186823
H30   H     H_    0.401900 0.265036 0.750255 0.261468
C16   C     C_3   0.497338 0.299761 0.736035 -0.706247
H31   H     H_    0.512326 0.350257 0.768946 0.244704
H32   H     H_    0.611542 0.270149 0.733747 0.267277
C17   C     C_R   0.997514 0.952895 0.528448 0.050406
C18   C     C_R   0.072903 0.905782 0.561003 -0.210829
C19   C     C_R   0.215784 0.047877 0.550285 -0.136348
C20   C     C_R   0.062597 0.023567 0.526200 0.081823
C21   C     C_R   0.272301 0.118359 0.551072 -0.136767
C22   C     C_R   0.178633 0.168358 0.528247 -0.034668
C23   C     C_R   0.030538 0.144321 0.499684 0.081050
C24   C     C_R   0.973493 0.071527 0.497894 0.102815
C25   C     C_R   0.228617 0.241553 0.532557 0.157933
C26   C     C_R   0.128234 0.290250 0.511241 -0.545236
C27   C     C_R   0.986817 0.267191 0.479495 0.172456
C28   C     C_R   0.939593 0.192897 0.472472 -0.045181
C29   C     C_R   0.847791 0.929613 0.499853 0.050869
C30   C     C_R   0.781910 0.858665 0.501490 0.036040
C31   C     C_R   0.872995 0.809635 0.528630 -0.018342
C32   C     C_R   0.013050 0.836015 0.560458 -0.043999
H33   H     H_    0.165675 0.346398 0.516293 0.181522
H34   H     H_    0.389907 0.133133 0.570673 0.200738
H35   H     H_    0.076149 0.803604 0.587006 0.137518
C33   C     C_R   0.804695 0.165376 0.438576 -0.006649
C34   C     C_R   0.750891 0.094575 0.435460 -0.127400
C35   C     C_R   0.827040 0.047520 0.467984 0.050024
C36   C     C_R   0.761773 0.977549 0.470835 0.021605
C37   C     C_R   0.605728 0.956757 0.449630 -0.157971
C38   C     C_R   0.624364 0.837741 0.477425 -0.112743
C39   C     C_R   0.534717 0.890395 0.454334 -0.097011
C40   C     C_R   0.565212 0.765897 0.478649 0.063832
C41   C     C_R   0.659460 0.719564 0.505723 -0.341050
C42   C     C_R   0.816888 0.737154 0.526355 0.235660
H36   H     H_    0.738065 0.198239 0.413966 0.135347
H37   H     H_    0.607050 0.668771 0.512257 0.201219
H38   H     H_    0.296539 0.013270 0.568491 0.126780
H39   H     H_    0.179434 0.921341 0.587848 0.139551
H40   H     H_    0.649408 0.078254 0.406159 0.152416
H41   H     H_    0.528407 0.994762 0.433995 0.170572
H42   H     H_    0.453761 0.326999 0.028948 0.187843
H43   H     H_    0.368774 0.324456 0.927377 0.195226
C43   C     C_R   0.640014 0.524191 0.332898 -0.024426
C44   C     C_R   0.355800 0.572341 0.953029 -0.063257
C45   C     C_R   0.311030 0.569949 0.893379 0.532648
O25   O     O_2   0.291269 0.626137 0.874967 -0.576310
N1    N     N_R   0.287670 0.504415 0.855810 -0.173890
C46   C     C_R   0.308378 0.440353 0.876182 0.547600
O26   O     O_2   0.284981 0.382910 0.842847 -0.541564
C47   C     C_R   0.357294 0.440803 0.935097 -0.072106
C48   C     C_R   0.379928 0.507268 0.973801 -0.010293
C49   C     C_R   0.376783 0.638219 0.992411 -0.095295
C50   C     C_R   0.420058 0.639549 0.051354 -0.081955
C51   C     C_R   0.445339 0.575063 0.072592 -0.068331
C52   C     C_R   0.426501 0.508666 0.033563 -0.011249
C53   C     C_R   0.384539 0.376358 0.956157 -0.066127
C54   C     C_R   0.433570 0.377814 0.014588 -0.072261
C55   C     C_R   0.454429 0.443703 0.054006 -0.084222
C56   C     C_R   0.502036 0.446206 0.113428 0.626491
N2    N     N_R   0.513845 0.511546 0.152139 -0.157823
C57   C     C_R   0.488044 0.575503 0.132074 0.586062
C58   C     C_2   0.096774 0.475887 0.772920 -0.138785
C59   C     C_3   0.051138 0.480800 0.709947 0.144756
C60   C     C_1   0.320859 0.523890 0.696714 0.233947
C61   C     C_2   0.358794 0.530824 0.753596 -0.226570
C62   C     C_2   0.242838 0.502998 0.794539 0.130418
C63   C     C_R   0.702190 0.547990 0.236177 -0.258537
C64   C     C_R   0.745663 0.552449 0.295370 0.054545
C65   C     C_R   0.497665 0.486298 0.312270 -0.046911
C66   C     C_R   0.453707 0.481097 0.251723 0.227752
C67   C     C_R   0.555722 0.513814 0.213880 0.029811
O27   O     O_2   0.533098 0.390340 0.130754 -0.544629
O28   O     O_2   0.501533 0.632930 0.166218 -0.602002
C68   C     C_2   0.198373 0.482175 0.672790 -0.440614
H44   H     H_    0.433932 0.691430 0.080292 0.185265
H45   H     H_    0.783002 0.570189 0.207033 0.194227
H46   H     H_    0.358943 0.689089 0.977846 0.181969
H47   H     H_    0.475985 0.552970 0.769944 0.163944
H48   H     H_    0.008932 0.456997 0.801623 0.183706
H49   H     H_    0.214552 0.440850 0.634106 0.156007
N3    N     N_R   0.792445 0.202963 0.278428 0.294620
O29   O     O_R   0.868635 0.215565 0.232114 -0.295649
O30   O     O_R   0.815339 0.142748 0.297132 -0.336166
C69   C     C_2   0.334487 0.180441 0.393289 0.518622
H50   H     H_    0.441139 0.194938 0.420660 0.036112
O31   O     O_2   0.284444 0.117988 0.384777 -0.514019
C70   C     C_2   0.404718 0.769990 0.632201 0.552510
H51   H     H_    0.351811 0.779353 0.591106 -0.037967
O32   O     O_2   0.512308 0.810716 0.655911 -0.546662
C71   C     C_2   0.854196 0.247832 0.617795 0.493694
H52   H     H_    0.832771 0.277617 0.582790 0.102131
O33   O     O_2   0.802837 0.185602 0.611647 -0.564314
C72   C     C_2   0.091546 0.173897 0.688526 0.542601
H53   H     H_    0.211387 0.190294 0.677052 0.028803
O34   O     O_2   0.052999 0.109920 0.679423 -0.524686
N4    N     N_R   0.030577 0.266350 0.774247 0.267033
O35   O     O_R   0.148755 0.240128 0.800781 -0.360150
O36   O     O_R   0.939172 0.313049 0.805899 -0.326165
C73   C     C_2   0.359632 0.885462 0.442274 0.592538
H54   H     H_    0.279364 0.871348 0.474873 0.032092
O37   O     O_2   0.303504 0.901977 0.397418 -0.552449
N5    N     N_R   0.309296 0.442379 0.228271 0.282610
O38   O     O_R   0.214010 0.469374 0.193034 -0.359337
O39   O     O_R   0.284557 0.375997 0.235079 -0.281812
N6    N     N_R   0.689681 0.524856 0.391538 0.257243
O40   O     O_R   0.657249 0.578730 0.432499 -0.396849
O41   O     O_R   0.788530 0.476828 0.402231 -0.343768
N7    N     N_R   0.944213 0.818472 0.277882 0.283609
O42   O     O_R   0.852186 0.866787 0.261882 -0.321341
O43   O     O_R   0.050785 0.787350 0.241490 -0.323214
C74   C     C_2   0.795288 0.367320 0.286858 0.642537
H55   H     H_    0.703863 0.377661 0.255631 -0.053558
O44   O     O_2   0.933669 0.388577 0.281806 -0.445408

loop_
_geom_bond_atom_site_label_1
_geom_bond_atom_site_label_2
_geom_bond_distance
_ccdc_geom_bond_type
C21   C22   1.403031 A    
C43   C65   1.399393 A    
C27   C28   1.425607 A    
C16   H31   1.109192 S    
P2    Ba1   3.403884 S    
N2    C67   1.453300 S    
C33   H36   1.069659 S    
C29   C30   1.439749 A    
O6    C10   1.396533 S    
C10   H19   1.109129 S    
C69   H50   1.081718 S    
C3    H25   1.112304 S    
C55   C56   1.412819 A    
C71   O33   1.222028 D    
Ba1   O16   2.751384 S    
N4    O35   1.301941 A    
C57   O28   1.220852 D    
C5    H8    1.104211 S    
H43   C53   1.083370 S    
Ba1   Ba2   4.531980 S    
P3    O11   1.747744 S    
O1    Ba1   2.858067 S    
C68   H49   1.085203 S    
C70   H51   1.083462 S    
C2    H5    1.107631 S    
C4    C5    1.539038 S    
C21   H34   1.079890 S    
C8    C9    1.545072 S    
C13   H26   1.111326 S    
C49   H46   1.083244 S    
C31   C42   1.424758 A    
N7    O43   1.300616 A    
C72   H53   1.083731 S    
C31   C32   1.399766 A    
C63   H45   1.082834 S    
C7    H14   1.108702 S    
C74   O44   1.220783 D    
P1    O1    1.520389 D    
P2    C65   1.888435 S    
C23   C28   1.423141 A    
C13   C14   1.558740 S    
C41   C42   1.396949 A    
C11   C70   1.502806 S    
C29   C36   1.416290 A    
C11   O22   1.399255 S    
N6    O40   1.291710 A    
C58   C62   1.358254 D    
O12   Ba2   2.858445 S    
P4    Ba2   3.411279 S    
P5    O18   1.542590 D    
C66   C67   1.428527 A    
P7    O22   1.754634 S    
C15   O24   1.401819 S    
P2    O10   1.752579 S    
C38   C39   1.425886 A    
N1    C62   1.451082 S    
C5    N3    1.462063 S    
C1    C10   1.518525 S    
P3    C64   1.865309 S    
C61   H47   1.085548 S    
P4    O15   1.766497 S    
C1    H2    1.110331 S    
O19   C13   1.407810 S    
O3    Ba1   2.771506 S    
H42   C54   1.083226 S    
C63   C67   1.409770 A    
P2    O20   1.546355 S    
C73   O37   1.221541 D    
O13   Ba2   2.928348 S    
C43   C64   1.399567 A    
C15   C16   1.519023 S    
N3    O30   1.300630 A    
C70   O32   1.221643 D    
C38   C40   1.434650 A    
C33   C34   1.386534 A    
C48   C52   1.421282 A    
H1    C10   1.112986 S    
P1    Ba1   3.410887 S    
C35   C36   1.426667 A    
C69   O31   1.220402 D    
O8    Ba1   2.717529 S    
N4    O36   1.301248 A    
C11   C12   1.528963 S    
O17   Ba2   2.717982 S    
C15   H28   1.109109 S    
P5    C59   1.874272 S    
C19   C21   1.395388 A    
P1    O5    1.757281 S    
O4    P6    1.537113 D    
C2    C3    1.527292 S    
C4    H7    1.100220 S    
P8    C25   1.845383 S    
C44   C48   1.411007 A    
C16   H32   1.107059 S    
C20   C24   1.420554 A    
C71   H52   1.076975 S    
O11   C2    1.401931 S    
C19   C20   1.414104 A    
C14   N4    1.470900 S    
P6    C40   1.880124 S    
Ba1   O13   2.815138 S    
C74   H55   1.084093 S    
P1    O2    1.579220 S    
C12   H24   1.109655 S    
P4    O12   1.520704 D    
C13   C71   1.513723 S    
C8    H15   1.104895 S    
C53   C54   1.397201 A    
P7    C60   1.822670 S    
C9    H18   1.111891 S    
C17   C18   1.412089 A    
C59   C68   1.501307 S    
C22   C25   1.417177 A    
P5    O19   1.756746 S    
C6    H10   1.100232 S    
Ba2   O20   2.750790 S    
C17   C29   1.422317 A    
C30   C31   1.429152 A    
C12   H23   1.110965 S    
C7    H12   1.108970 S    
C14   C72   1.510973 S    
O10   C8    1.398600 S    
Ba1   O20   2.926887 S    
Ba2   O21   2.828628 S    
P4    O13   1.579279 S    
C41   H37   1.077912 S    
C24   C35   1.414420 A    
C44   C45   1.412084 A    
O16   P7    1.768484 S    
C73   H54   1.073389 S    
O5    C6    1.401153 S    
C30   C38   1.432922 A    
P2    O7    1.508966 D    
C18   H39   1.077401 S    
C1    H3    1.110699 S    
C37   H41   1.077732 S    
C50   H44   1.083331 S    
C46   O26   1.220299 D    
P8    O23   1.544212 D    
H30   C16   1.105026 S    
O7    Ba1   2.828392 S    
C45   N1    1.383812 Am   
C47   C48   1.408995 A    
C25   C26   1.400918 A    
C60   C68   1.323191 D    
C65   C66   1.423466 A    
C36   C37   1.400825 A    
C56   O27   1.222223 D    
C19   H38   1.077448 S    
C6    C7    1.524638 S    
O3    P6    1.744830 S    
C61   C62   1.504446 S    
C4    O15   1.406596 S    
C47   C53   1.407615 A    
C44   C49   1.406605 A    
C56   N2    1.385928 Am   
P4    C27   1.882635 S    
C58   C59   1.514487 S    
C45   O25   1.222437 D    
C54   C55   1.407048 A    
C32   H35   1.077804 S    
N2    C57   1.385690 Am   
C5    H9    1.112252 S    
C4    C74   1.506604 S    
C63   C64   1.394017 A    
C18   C32   1.392636 A    
C2    H4    1.115143 S    
P3    O8    1.754676 S    
C50   C51   1.407593 A    
C49   C50   1.396361 A    
C9    C69   1.500316 S    
C8    H16   1.110620 S    
C51   C57   1.410045 A    
C60   C61   1.327005 D    
P1    C42   1.904901 S    
C6    H11   1.100688 S    
O2    Ba2   2.815868 S    
O2    Ba1   2.927656 S    
N7    O42   1.300817 A    
N3    O29   1.300924 A    
C37   C39   1.392501 A    
C58   H48   1.085219 S    
C3    N7    1.459088 S    
C52   C55   1.410702 A    
O16   Ba2   2.926047 S    
C39   C73   1.473292 S    
O14   Ba2   2.770756 S    
P5    O17   1.768208 S    
C26   C27   1.394369 A    
C7    H13   1.107489 S    
C34   H40   1.077253 S    
C1    H20   1.109604 S    
C12   H22   1.111156 S    
N6    O41   1.288526 A    
N5    O38   1.301433 A    
C66   N5    1.436880 S    
C11   H21   1.098950 S    
C17   C20   1.435407 A    
C14   H27   1.113333 S    
C22   C23   1.413438 A    
C28   C33   1.393090 A    
P7    O21   1.566024 D    
C15   H29   1.104627 S    
P3    O9    1.541957 D    
C34   C35   1.413687 A    
C46   C47   1.410749 A    
P8    O24   1.750898 S    
C3    H6    1.109755 S    
C9    H17   1.108276 S    
C72   O34   1.220779 D    
O6    P6    1.746426 S    
C23   C24   1.434293 A    
C40   C41   1.405962 A    
C43   N6    1.405734 S    
O14   P8    1.746578 S    
C51   C52   1.408562 A    
C26   H33   1.081555 S    
N1    C46   1.384475 Am   
N5    O39   1.300200 A    
