data_mof_unit_38296.cif
_audit_creation_date              2012-12-10T20:27:56-0500
_audit_creation_method            fapswitch 2.2
_symmetry_space_group_name_H-M    P1
_symmetry_Int_Tables_number       1
_space_group_crystal_system       triclinic
_cell_length_a                    12.836848
_cell_length_b                    10.684471
_cell_length_c                    9.862545
_cell_angle_alpha                 90.12554
_cell_angle_beta                  97.463743
_cell_angle_gamma                 89.968473
_cell_volume                      1341.23235657

loop_
_atom_site_label
_atom_site_type_symbol
_atom_type_description
_atom_site_fract_x
_atom_site_fract_y
_atom_site_fract_z
_atom_type_partial_charge
C1    C     C_R   0.499677 0.260401 0.499650 0.931755
C2    C     C_R   0.027199 0.523256 0.551100 0.190233
C3    C     C_R   0.973357 0.445032 0.448214 0.096815
C4    C     C_R   0.866010 0.422684 0.449051 -0.093429
C5    C     C_R   0.868887 0.561141 0.648327 -0.236100
C6    C     C_R   0.975517 0.577548 0.652223 -0.208663
C7    C     C_R   0.558744 0.062479 0.600512 0.160376
C8    C     C_R   0.500237 0.128749 0.496577 -0.128218
C9    C     C_R   0.445312 0.067191 0.384149 -0.189086
C10   C     C_R   0.437547 0.937570 0.384127 -0.032956
C11   C     C_R   0.491397 0.871833 0.496748 -0.196785
C12   C     C_R   0.298322 0.499519 0.472797 0.854829
C13   C     C_R   0.555084 0.934861 0.599959 0.125720
C14   C     C_3   0.556008 0.929098 0.751746 -0.469039
C15   C     C_3   0.559842 0.070841 0.751868 -0.465734
C16   C     C_R   0.454948 0.403624 0.063468 0.238533
C17   C     C_R   0.552822 0.588914 0.081149 -0.116265
C18   C     C_R   0.552914 0.588843 0.937169 -0.127977
C19   C     C_R   0.454865 0.403688 0.920917 0.212378
C20   C     C_3   0.342477 0.364665 0.896328 -0.486948
C21   C     C_3   0.342661 0.364549 0.050363 -0.522063
C22   C     C_R   0.494693 0.739554 0.499005 0.859691
C23   C     C_R   0.701658 0.495317 0.527140 0.942672
C24   C     C_R   0.814097 0.488443 0.544877 -0.070892
C25   C     C_R   0.186660 0.490092 0.455463 -0.040472
C26   C     C_R   0.029137 0.391436 0.348677 -0.216607
C27   C     C_R   0.135274 0.415190 0.351736 -0.189304
C28   C     C_R   0.133108 0.545142 0.553410 -0.273820
H1    H     H_    0.629164 0.885618 0.803683 0.196442
H2    H     H_    0.487707 0.114871 0.781970 0.212080
H3    H     H_    0.635113 0.109262 0.803824 0.210406
H4    H     H_    0.593814 0.662055 0.142552 0.156620
H5    H     H_    0.594127 0.661739 0.890000 0.143761
H6    H     H_    0.290585 0.437810 0.843583 0.223363
H7    H     H_    0.332905 0.269766 0.850003 0.204965
H8    H     H_    0.291100 0.437747 0.086500 0.216118
H9    H     H_    0.333204 0.269589 0.092894 0.213734
H10   H     H_    0.828264 0.610348 0.722159 0.161356
H11   H     H_    0.992874 0.330025 0.269162 0.132515
H12   H     H_    0.016942 0.636154 0.731461 0.148122
H13   H     H_    0.178099 0.370502 0.277168 0.151310
H14   H     H_    0.174736 0.603213 0.633281 0.147222
H15   H     H_    0.401995 0.120727 0.302057 0.185773
H16   H     H_    0.481832 0.890991 0.782168 0.223597
N1    N     N_R   0.499290 0.499140 0.142710 -0.113382
N2    N     N_R   0.499290 0.499180 0.857070 -0.109878
O1    O     O_R   0.500010 0.316790 0.614690 -0.627712
O2    O     O_R   0.500000 0.316760 0.385350 -0.598243
O3    O     O_R   0.346360 0.499990 0.595720 -0.621747
O4    O     O_R   0.346350 0.499960 0.366370 -0.637609
O5    O     O_R   0.500000 0.683240 0.614650 -0.615648
O6    O     O_R   0.499990 0.683210 0.385310 -0.636008
O7    O     O_R   0.653650 0.500040 0.633630 -0.626040
O8    O     O_R   0.653640 0.500010 0.404280 -0.605894
Zn1   Zn    Zn3+2 0.500010 0.500020 0.653130 0.946942
Zn2   Zn    Zn3+2 0.499990 0.499980 0.346870 0.963277
C29   C     C_2   0.808348 0.331010 0.352586 0.415948
H17   H     H_    0.821177 0.327377 0.246194 0.049918
O9    O     O_2   0.745796 0.257941 0.392305 -0.570274
C30   C     C_2   0.365517 0.875365 0.273818 0.414431
H18   H     H_    0.336196 0.781713 0.287552 0.082909
O10   O     O_2   0.336561 0.929160 0.166348 -0.587016

loop_
_geom_bond_atom_site_label_1
_geom_bond_atom_site_label_2
_ccdc_geom_bond_type
C4    C29   S    
C16   N1    A    
C10   C30   S    
C23   C24   S    
C1    O2    A    
C15   H3    S    
C16   C21   S    
N2    Zn1   S    
C25   C27   A    
C1    C8    S    
C22   O5    A    
C9    C10   A    
C27   H13   S    
C11   C22   S    
O5    Zn1   S    
C19   C20   S    
C12   C25   S    
C20   H6    S    
C7    C15   S    
C2    C3    A    
C29   H17   S    
C19   N2    A    
C7    C8    A    
C21   H8    S    
O3    Zn1   S    
C13   C14   S    
C25   C28   A    
C11   C13   A    
C26   C27   A    
C2    C6    A    
C5    C24   A    
C23   O8    A    
C16   C19   A    
C18   N2    A    
C23   O7    A    
C28   H14   S    
C17   N1    A    
C17   C18   A    
C22   O6    A    
O8    Zn2   S    
O7    Zn1   S    
C30   O10   D    
C5    C6    A    
C4    C24   A    
C18   H5    S    
C6    H12   S    
C26   H11   S    
C9    H15   S    
C12   O3    A    
C29   O9    D    
C10   C11   A    
C14   H1    S    
C3    C4    A    
C7    C13   A    
C21   H9    S    
C20   C21   S    
C15   H2    S    
C14   H16   S    
C17   H4    S    
O2    Zn2   S    
O1    Zn1   S    
C14   C15   S    
C1    O1    A    
C2    C28   A    
C30   H18   S    
C5    H10   S    
C20   H7    S    
C12   O4    A    
C3    C26   A    
O4    Zn2   S    
O6    Zn2   S    
N1    Zn2   S    
C8    C9    A    
