data_mof_unit_58003.cif
_audit_creation_date              2012-12-10T17:03:27-0500
_audit_creation_method            fapswitch 2.2
_symmetry_space_group_name_H-M    P1
_symmetry_Int_Tables_number       1
_space_group_crystal_system       triclinic
_cell_length_a                    15.072238
_cell_length_b                    10.711201
_cell_length_c                    9.765502
_cell_angle_alpha                 109.197697
_cell_angle_beta                  99.022116
_cell_angle_gamma                 90.522114
_cell_volume                      1467.35110454

loop_
_atom_site_label
_atom_site_type_symbol
_atom_type_description
_atom_site_fract_x
_atom_site_fract_y
_atom_site_fract_z
_atom_type_partial_charge
C1    C     C_R   0.492020 0.252537 0.443424 0.785600
C2    C     C_R   0.503117 0.747488 0.556485 0.774868
C3    C     C_R   0.020407 0.485819 0.242693 -0.218223
C4    C     C_R   0.979856 0.515176 0.757846 -0.214910
C5    C     C_2   0.483141 0.109275 0.420622 0.172403
C6    C     C_2   0.494687 0.890024 0.577865 0.186213
C7    C     C_2   0.428000 0.067007 0.495685 0.313679
C8    C     C_2   0.429133 0.924713 0.487641 0.302289
C9    C     C_2   0.507429 0.511445 0.080939 -0.062192
C10   C     C_2   0.492896 0.488215 0.919042 -0.060879
C11   C     C_R   0.328600 0.500306 0.500593 0.862874
C12   C     C_R   0.671432 0.499752 0.499448 0.782578
C13   C     C_R   0.827709 0.507039 0.627889 -0.253322
C14   C     C_R   0.172447 0.493381 0.372404 -0.241802
C15   C     C_R   0.768260 0.499292 0.498967 -0.077784
C16   C     C_R   0.231868 0.501143 0.501288 -0.066401
C17   C     C_R   0.801585 0.491605 0.370381 -0.257667
C18   C     C_R   0.198622 0.509369 0.630086 -0.254472
C19   C     C_R   0.894015 0.492169 0.370021 0.110332
C20   C     C_R   0.106221 0.508803 0.630505 0.105267
C21   C     C_R   0.953592 0.500128 0.499958 0.063128
C22   C     C_R   0.046632 0.500783 0.500557 0.063973
C23   C     C_R   0.920226 0.507448 0.629305 0.107920
C24   C     C_R   0.079988 0.493370 0.371166 0.104011
C25   C     C_R   0.927857 0.485166 0.242115 -0.214916
C26   C     C_R   0.072420 0.515883 0.758453 -0.218770
Cu1   Cu    Cu3+1 0.515770 0.521810 0.644910 0.956570
Cu2   Cu    Cu3+1 0.484230 0.478190 0.355090 0.958327
H1    H     H_    0.802138 0.512559 0.727366 0.155926
H2    H     H_    0.197993 0.487442 0.272790 0.157747
H3    H     H_    0.755765 0.485853 0.270773 0.153881
H4    H     H_    0.244462 0.515266 0.729734 0.158175
H5    H     H_    0.882790 0.479186 0.141784 0.138480
H6    H     H_    0.117526 0.521924 0.858793 0.142086
H7    H     H_    0.045385 0.480346 0.142784 0.138610
H8    H     H_    0.954909 0.520727 0.857793 0.138302
H9    H     H_    0.441992 0.413656 0.846585 0.185190
H10   H     H_    0.558871 0.585538 0.153206 0.161690
H11   H     H_    0.587391 0.625202 0.933693 0.189159
H12   H     H_    0.412194 0.375451 0.066408 0.191078
N1    N     N_2   0.460520 0.445420 0.137370 -0.282412
N2    N     N_2   0.539480 0.554580 0.862630 -0.285810
O1    O     O_R   0.508410 0.332340 0.577400 -0.543236
O2    O     O_R   0.491590 0.667660 0.422600 -0.538068
O3    O     O_R   0.481780 0.295500 0.332650 -0.578688
O4    O     O_R   0.518220 0.704500 0.667350 -0.576464
O5    O     O_R   0.383570 0.518390 0.622380 -0.574994
O6    O     O_R   0.616430 0.481610 0.377620 -0.589550
O7    O     O_R   0.356940 0.481550 0.377630 -0.569591
O8    O     O_R   0.643060 0.518450 0.622370 -0.586099
O9    O     O_3   0.363017 0.828000 0.395867 -0.604361
C27   C     C_3   0.319769 0.860773 0.274323 0.088364
H13   H     H_    0.369687 0.881010 0.210273 0.187414
H14   H     H_    0.278901 0.947887 0.310737 0.141060
C28   C     C_3   0.256841 0.743823 0.173104 -0.796911
H15   H     H_    0.204790 0.722197 0.232532 0.244723
H16   H     H_    0.223014 0.767275 0.075798 0.197536
H17   H     H_    0.295588 0.654747 0.134985 0.254214
O10   O     O_3   0.373637 0.157703 0.577712 -0.608023
C29   C     C_3   0.322210 0.102727 0.655507 0.074137
H18   H     H_    0.367094 0.074432 0.740944 0.173379
H19   H     H_    0.278623 0.015235 0.579785 0.161228
C30   C     C_3   0.260591 0.205256 0.731228 -0.812745
H20   H     H_    0.214526 0.234432 0.648050 0.257617
H21   H     H_    0.219764 0.162911 0.792602 0.204308
H22   H     H_    0.300779 0.294466 0.809739 0.228061
O11   O     O_3   0.550305 0.988859 0.688639 -0.601266
C31   C     C_3   0.641046 0.955936 0.696701 0.064720
H23   H     H_    0.660356 0.916636 0.585341 0.128149
H24   H     H_    0.653124 0.881863 0.753863 0.159638
C32   C     C_3   0.701258 0.080091 0.784825 -0.770936
H25   H     H_    0.685187 0.120810 0.897738 0.251543
H26   H     H_    0.772946 0.055840 0.792214 0.195035
H27   H     H_    0.690852 0.156138 0.730208 0.243800
O12   O     O_3   0.527533 0.016294 0.322241 -0.620237
C33   C     C_3   0.614550 0.065924 0.321668 0.076800
H28   H     H_    0.651898 0.114075 0.435736 0.128348
H29   H     H_    0.610438 0.137724 0.260923 0.167673
C34   C     C_3   0.667354 0.951408 0.243474 -0.794059
H30   H     H_    0.632826 0.902432 0.128310 0.250054
H31   H     H_    0.736057 0.988841 0.242165 0.201419
H32   H     H_    0.672847 0.877656 0.301585 0.235216

loop_
_geom_bond_atom_site_label_1
_geom_bond_atom_site_label_2
_ccdc_geom_bond_type
C28   H15   S    
C30   H21   S    
C10   N2    D    
C11   O5    A    
C33   C34   S    
C12   O6    A    
C4    H8    S    
C7    C8    S    
C2    O4    A    
C29   C30   S    
C1    C5    S    
C22   C24   A    
C13   H1    S    
C19   C21   A    
C33   H29   S    
Cu2   N1    S    
C13   C23   A    
C29   H19   S    
C11   C16   S    
C14   C24   A    
C26   H6    S    
Cu2   O6    S    
C2    O2    A    
C31   H23   S    
C1    O1    A    
C9    C10   S    
C27   C28   S    
C30   H22   S    
O10   C29   S    
C21   C22   A    
C3    C24   A    
C2    C6    S    
C14   H2    S    
O11   C31   S    
C7    O10   S    
C27   H14   S    
H11   N2    S    
Cu2   O3    S    
O9    C27   S    
C3    C25   A    
C33   H28   S    
C5    C7    D    
C4    C23   A    
C6    C8    D    
Cu2   O2    S    
C30   H20   S    
C29   H18   S    
C5    O12   S    
O12   C33   S    
C11   O7    A    
C32   H27   S    
Cu2   O7    S    
C4    C26   A    
C12   C15   S    
C3    H7    S    
C8    O9    S    
Cu1   O4    S    
C31   H24   S    
H12   N1    S    
C20   C22   A    
C28   H16   S    
C13   C15   A    
C17   H3    S    
C14   C16   A    
C18   H4    S    
C27   H13   S    
C34   H31   S    
Cu1   O5    S    
C15   C17   A    
C6    O11   S    
C34   H32   S    
C12   O8    A    
Cu1   O8    S    
C10   H9    S    
C9    N1    D    
C21   C23   A    
C32   H25   S    
Cu1   N2    S    
C1    O3    A    
C20   C26   A    
C31   C32   S    
C9    H10   S    
C17   C19   A    
C18   C20   A    
C19   C25   A    
C34   H30   S    
Cu1   O1    S    
C16   C18   A    
C28   H17   S    
C32   H26   S    
Cu1   Cu2   S    
C25   H5    S    
