data_mof_unit_60194.cif
_audit_creation_date              2012-12-10T17:40:47-0500
_audit_creation_method            fapswitch 2.2
_symmetry_space_group_name_H-M    P1
_symmetry_Int_Tables_number       1
_space_group_crystal_system       monoclinic
_cell_length_a                    36.938601
_cell_length_b                    30.380189
_cell_length_c                    21.790591
_cell_angle_alpha                 90.0
_cell_angle_beta                  55.457261
_cell_angle_gamma                 90.0
_cell_volume                      20142.3812567

loop_
_atom_site_label
_atom_site_type_symbol
_atom_type_description
_atom_site_fract_x
_atom_site_fract_y
_atom_site_fract_z
_atom_type_partial_charge
C1    C     C_R   0.085043 0.500016 0.413091 0.899208
C2    C     C_R   0.914957 0.500016 0.586909 0.899208
C3    C     C_R   0.585043 0.000016 0.413091 0.899208
C4    C     C_R   0.414957 0.000016 0.586909 0.899208
C5    C     C_R   0.030029 0.468782 0.690890 0.054574
C6    C     C_R   0.969971 0.468782 0.309110 0.054573
C7    C     C_R   0.530029 0.968782 0.690890 0.054574
C8    C     C_R   0.469971 0.968782 0.309110 0.054574
C9    C     C_R   0.002908 0.499428 0.683870 -0.169083
C10   C     C_R   0.997092 0.499428 0.316130 -0.169083
C11   C     C_R   0.502908 0.999428 0.683870 -0.169083
C12   C     C_R   0.497092 0.999428 0.316130 -0.169083
C13   C     C_R   0.973754 0.527508 0.744470 -0.048158
C14   C     C_R   0.026246 0.527508 0.255530 -0.048158
C15   C     C_R   0.473754 0.027508 0.744470 -0.048158
C16   C     C_R   0.526246 0.027508 0.255530 -0.048158
C17   C     C_R   0.973259 0.526464 0.808691 -0.180317
C18   C     C_R   0.026741 0.526464 0.191309 -0.180317
C19   C     C_R   0.473259 0.026464 0.808691 -0.180317
C20   C     C_R   0.526740 0.026464 0.191309 -0.180317
C21   C     C_R   0.998039 0.495691 0.816886 -0.111038
C22   C     C_R   0.001961 0.495691 0.183114 -0.111038
C23   C     C_R   0.498039 0.995691 0.816886 -0.111039
C24   C     C_R   0.501961 0.995691 0.183114 -0.111038
C25   C     C_R   0.202041 0.459781 0.292059 -0.113307
C26   C     C_R   0.797959 0.459781 0.707940 -0.113308
C27   C     C_R   0.702041 0.959781 0.292060 -0.113308
C28   C     C_R   0.297959 0.959781 0.707940 -0.113307
C29   C     C_R   0.156347 0.460040 0.336738 -0.099438
C30   C     C_R   0.843653 0.460040 0.663262 -0.099438
C31   C     C_R   0.656347 0.960040 0.336738 -0.099438
C32   C     C_R   0.343653 0.960040 0.663261 -0.099439
C33   C     C_R   0.133313 0.499999 0.362929 0.011049
C34   C     C_R   0.866687 0.499999 0.637071 0.011050
C35   C     C_R   0.633313 0.999999 0.362929 0.011049
C36   C     C_R   0.366687 0.999999 0.637071 0.011049
C37   C     C_R   0.156830 0.539813 0.341231 -0.156703
C38   C     C_R   0.843170 0.539813 0.658769 -0.156703
C39   C     C_R   0.656830 0.039813 0.341230 -0.156703
C40   C     C_R   0.343170 0.039813 0.658770 -0.156703
C41   C     C_R   0.202604 0.539557 0.294913 -0.065070
C42   C     C_R   0.797396 0.539557 0.705087 -0.065070
C43   C     C_R   0.702604 0.039557 0.294913 -0.065070
C44   C     C_R   0.297396 0.039557 0.705088 -0.065071
C45   C     C_R   0.001581 0.499885 0.617577 0.858695
C46   C     C_R   0.998418 0.499885 0.382423 0.858694
C47   C     C_R   0.501582 0.999885 0.617577 0.858695
C48   C     C_R   0.498418 0.999885 0.382423 0.858694
C49   C     C_R   0.225359 0.499503 0.270870 0.161071
C50   C     C_R   0.774641 0.499503 0.729130 0.161071
C51   C     C_R   0.725359 0.999503 0.270870 0.161071
C52   C     C_R   0.274641 0.999503 0.729131 0.161071
C53   C     C_R   0.298291 0.514423 0.250001 -0.006399
C54   C     C_R   0.701709 0.514423 0.749999 -0.006399
C55   C     C_R   0.798291 0.014423 0.250001 -0.006399
C56   C     C_R   0.201709 0.014424 0.749999 -0.006398
C57   C     C_R   0.344096 0.513965 0.203052 -0.216987
C58   C     C_R   0.655904 0.513965 0.796948 -0.216987
C59   C     C_R   0.844096 0.013966 0.203052 -0.216987
C60   C     C_R   0.155904 0.013966 0.796949 -0.216987
C61   C     C_R   0.366358 0.496862 0.130763 -0.140947
C62   C     C_R   0.633642 0.496862 0.869237 -0.140947
C63   C     C_R   0.866358 0.996862 0.130763 -0.140947
C64   C     C_R   0.133641 0.996862 0.869237 -0.140946
C65   C     C_R   0.342114 0.479363 0.104092 -0.085220
C66   C     C_R   0.657886 0.479363 0.895908 -0.085220
C67   C     C_R   0.842114 0.979363 0.104092 -0.085220
C68   C     C_R   0.157886 0.979362 0.895908 -0.085221
C69   C     C_R   0.295671 0.481629 0.149447 -0.066804
C70   C     C_R   0.704329 0.481629 0.850553 -0.066803
C71   C     C_R   0.795671 0.981629 0.149447 -0.066803
C72   C     C_R   0.204329 0.981628 0.850553 -0.066804
C73   C     C_R   0.273804 0.498939 0.222643 -0.081557
C74   C     C_R   0.726196 0.498939 0.777357 -0.081557
C75   C     C_R   0.773803 0.998939 0.222643 -0.081558
C76   C     C_R   0.226196 0.998939 0.777357 -0.081557
C77   C     C_R   0.000000 0.633262 1.000000 -0.180148
C78   C     C_R   0.500000 0.133262 0.000000 -0.180148
C79   C     C_R   0.010066 0.702767 0.936747 -0.173011
C80   C     C_R   0.989934 0.702767 0.063253 -0.173011
C81   C     C_R   0.510066 0.202767 0.936747 -0.173011
C82   C     C_R   0.489934 0.202767 0.063253 -0.173011
C83   C     C_R   0.500000 0.725799 0.000000 0.095231
C84   C     C_R   0.000000 0.225799 0.000000 0.095231
C85   C     C_R   0.010733 0.656717 0.935250 -0.041408
C86   C     C_R   0.989266 0.656717 0.064750 -0.041408
C87   C     C_R   0.510733 0.156717 0.935250 -0.041407
C88   C     C_R   0.489266 0.156717 0.064750 -0.041407
C89   C     C_R   1.000000 0.726086 0.000000 0.046555
C90   C     C_R   0.500000 0.226086 0.000000 0.046555
C91   C     C_R   0.000000 0.414893 0.000000 0.733052
C92   C     C_R   0.500000 0.914893 0.000000 0.733052
C93   C     C_R   0.999341 0.498659 0.882076 0.861769
C94   C     C_R   0.000658 0.498659 0.117924 0.861770
C95   C     C_R   0.499341 0.998659 0.882076 0.861769
C96   C     C_R   0.500659 0.998659 0.117924 0.861770
C97   C     C_R   0.470126 0.298423 0.065570 -0.140171
C98   C     C_R   0.529874 0.298423 0.934430 -0.140171
C99   C     C_R   0.970126 0.798423 0.065570 -0.140171
C100  C     C_R   0.029874 0.798423 0.934430 -0.140171
C101  C     C_R   0.000000 0.584924 1.000000 0.922512
C102  C     C_R   0.500000 0.084924 0.000000 0.922512
C103  C     C_R   0.500000 0.415185 0.000000 0.814220
C104  C     C_R   0.000000 0.915185 0.000000 0.814222
C105  C     C_R   0.414930 0.498660 0.084190 0.815319
C106  C     C_R   0.585070 0.498660 0.915810 0.815319
C107  C     C_R   0.914930 0.998660 0.084190 0.815319
C108  C     C_R   0.085070 0.998660 0.915810 0.815320
C109  C     C_R   0.470670 0.344259 0.065786 -0.149592
C110  C     C_R   0.529330 0.344259 0.934214 -0.149591
C111  C     C_R   0.970670 0.844259 0.065786 -0.149592
C112  C     C_R   0.029330 0.844259 0.934214 -0.149590
C113  C     C_R   0.500000 0.585055 0.000000 0.779279
C114  C     C_R   1.000000 0.085055 0.000000 0.779279
C115  C     C_R   0.037788 0.297379 0.981311 -0.163090
C116  C     C_R   0.962212 0.297379 0.018689 -0.163090
C117  C     C_R   0.537787 0.797379 0.981311 -0.163090
C118  C     C_R   0.462212 0.797379 0.018689 -0.163090
C119  C     C_R   0.500000 0.633423 0.000000 -0.029332
C120  C     C_R   0.000000 0.133423 0.000000 -0.029332
C121  C     C_R   0.037915 0.343260 0.980705 -0.180937
C122  C     C_R   0.962085 0.343260 0.019294 -0.180936
C123  C     C_R   0.537915 0.843260 0.980705 -0.180937
C124  C     C_R   0.462085 0.843260 0.019294 -0.180937
C125  C     C_R   0.000000 0.366547 0.000000 -0.028708
C126  C     C_R   0.500000 0.866547 0.000000 -0.028708
C127  C     C_R   0.500000 0.274894 0.000000 0.110656
C128  C     C_R   1.000000 0.774894 0.000000 0.110656
C129  C     C_R   0.500000 0.367250 0.000000 -0.001840
C130  C     C_R   0.000000 0.867250 0.000000 -0.001840
C131  C     C_R   0.000000 0.274184 0.000000 0.096122
C132  C     C_R   0.500000 0.774184 0.000000 0.096121
C133  C     C_R   0.485918 0.702604 0.961494 -0.159305
C134  C     C_R   0.514082 0.702604 0.038505 -0.159305
C135  C     C_R   0.985918 0.202604 0.961494 -0.159305
C136  C     C_R   0.014081 0.202604 0.038506 -0.159305
C137  C     C_R   0.486259 0.656719 0.960968 -0.167741
C138  C     C_R   0.513741 0.656719 0.039032 -0.167742
C139  C     C_R   0.986259 0.156719 0.960968 -0.167741
C140  C     C_R   0.013741 0.156719 0.039032 -0.167742
C141  C     C_R   0.063894 0.442434 0.631346 -0.076915
C142  C     C_R   0.936106 0.442434 0.368654 -0.076915
C143  C     C_R   0.563894 0.942434 0.631347 -0.076915
C144  C     C_R   0.436106 0.942434 0.368653 -0.076915
C145  C     C_R   0.081548 0.406700 0.647113 -0.199839
C146  C     C_R   0.918452 0.406700 0.352886 -0.199840
C147  C     C_R   0.581548 0.906700 0.647114 -0.199839
C148  C     C_R   0.418452 0.906700 0.352886 -0.199839
C149  C     C_R   0.069312 0.398793 0.719083 -0.121727
C150  C     C_R   0.930688 0.398793 0.280917 -0.121727
C151  C     C_R   0.569312 0.898793 0.719083 -0.121727
C152  C     C_R   0.430688 0.898792 0.280917 -0.121727
C153  C     C_R   0.041644 0.428050 0.775393 -0.151677
C154  C     C_R   0.958356 0.428050 0.224607 -0.151677
C155  C     C_R   0.541644 0.928050 0.775393 -0.151677
C156  C     C_R   0.458356 0.928050 0.224606 -0.151677
C157  C     C_R   0.023209 0.464153 0.761424 0.082136
C158  C     C_R   0.976791 0.464153 0.238576 0.082136
C159  C     C_R   0.523209 0.964153 0.761424 0.082136
C160  C     C_R   0.476791 0.964153 0.238576 0.082136
Cu1   Cu    Cu3+1 0.000000 0.544050 0.500000 1.046292
Cu2   Cu    Cu3+1 0.500000 0.044050 0.500000 1.046292
Cu3   Cu    Cu3+1 0.000000 0.455950 0.500000 0.991120
Cu4   Cu    Cu3+1 0.500000 0.955950 0.500000 0.991120
Cu5   Cu    Cu3+1 0.955950 0.499980 0.044050 1.007253
Cu6   Cu    Cu3+1 0.044050 0.499980 0.955950 1.007254
Cu7   Cu    Cu3+1 0.455950 0.999980 0.044050 1.007253
Cu8   Cu    Cu3+1 0.544050 0.999980 0.955950 1.007254
Cu9   Cu    Cu3+1 0.500000 0.500010 0.061800 1.012710
Cu10  Cu    Cu3+1 0.500000 0.500010 0.938200 1.012711
Cu11  Cu    Cu3+1 0.000000 0.000010 0.061800 1.012710
Cu12  Cu    Cu3+1 1.000000 0.000010 0.938200 1.012711
H1    H     H_    0.139927 0.571120 0.360092 0.155945
H2    H     H_    0.860073 0.571120 0.639908 0.155945
H3    H     H_    0.639927 0.071120 0.360091 0.155945
H4    H     H_    0.360073 0.071120 0.639910 0.155945
H5    H     H_    0.220361 0.570458 0.278328 0.131586
H6    H     H_    0.779639 0.570458 0.721672 0.131586
H7    H     H_    0.720361 0.070458 0.278328 0.131586
H8    H     H_    0.279639 0.070458 0.721673 0.131586
H9    H     H_    0.362794 0.526695 0.223522 0.199708
H10   H     H_    0.637206 0.526695 0.776478 0.199707
H11   H     H_    0.862794 0.026695 0.223522 0.199707
H12   H     H_    0.137206 0.026696 0.776479 0.199707
H13   H     H_    0.447530 0.361808 0.116838 0.147410
H14   H     H_    0.552470 0.361808 0.883162 0.147410
H15   H     H_    0.947530 0.861808 0.116838 0.147410
H16   H     H_    0.052470 0.861808 0.883162 0.147411
H17   H     H_    0.016387 0.720638 0.888601 0.176015
H18   H     H_    0.983613 0.720638 0.111399 0.176015
H19   H     H_    0.516387 0.220638 0.888601 0.176015
H20   H     H_    0.483613 0.220638 0.111399 0.176015
H21   H     H_    0.445928 0.281552 0.116603 0.143952
H22   H     H_    0.554072 0.281552 0.883397 0.143952
H23   H     H_    0.945928 0.781552 0.116603 0.143952
H24   H     H_    0.054072 0.781552 0.883397 0.143952
H25   H     H_    0.067325 0.279949 0.966329 0.139460
H26   H     H_    0.932675 0.279949 0.033671 0.139459
H27   H     H_    0.567325 0.779949 0.966329 0.139459
H28   H     H_    0.432675 0.779949 0.033672 0.139460
H29   H     H_    0.067512 0.360490 0.965873 0.158293
H30   H     H_    0.932488 0.360490 0.034127 0.158292
H31   H     H_    0.567512 0.860490 0.965873 0.158293
H32   H     H_    0.432488 0.860490 0.034127 0.158293
H33   H     H_    0.475178 0.720035 0.931126 0.137337
H34   H     H_    0.524822 0.720035 0.068874 0.137337
H35   H     H_    0.975178 0.220035 0.931126 0.137337
H36   H     H_    0.024822 0.220035 0.068874 0.137337
H37   H     H_    0.475361 0.639493 0.930675 0.158612
H38   H     H_    0.524639 0.639493 0.069325 0.158612
H39   H     H_    0.975361 0.139493 0.930675 0.158612
H40   H     H_    0.024639 0.139493 0.069325 0.158612
H41   H     H_    0.107039 0.386207 0.602931 0.151198
H42   H     H_    0.892961 0.386207 0.397069 0.151198
H43   H     H_    0.607039 0.886206 0.602931 0.151197
H44   H     H_    0.392961 0.886206 0.397069 0.151197
H45   H     H_    0.083383 0.371346 0.730428 0.148702
H46   H     H_    0.916617 0.371346 0.269572 0.148702
H47   H     H_    0.583383 0.871346 0.730428 0.148701
H48   H     H_    0.416618 0.871346 0.269572 0.148702
H49   H     H_    0.034358 0.421832 0.830232 0.128395
H50   H     H_    0.965642 0.421832 0.169768 0.128395
H51   H     H_    0.534358 0.921832 0.830232 0.128395
H52   H     H_    0.465642 0.921832 0.169768 0.128395
H53   H     H_    0.952434 0.549186 0.853812 0.199728
H54   H     H_    0.047566 0.549186 0.146188 0.199729
H55   H     H_    0.452434 0.049186 0.853812 0.199728
H56   H     H_    0.547566 0.049186 0.146188 0.199729
H57   H     H_    0.219320 0.428632 0.273548 0.139738
H58   H     H_    0.780680 0.428632 0.726452 0.139738
H59   H     H_    0.719320 0.928632 0.273548 0.139738
H60   H     H_    0.280680 0.928632 0.726451 0.139738
H61   H     H_    0.139140 0.428889 0.351224 0.177997
H62   H     H_    0.860860 0.428889 0.648776 0.177998
H63   H     H_    0.639140 0.928889 0.351224 0.177998
H64   H     H_    0.360860 0.928889 0.648775 0.177999
O1    O     O_R   0.064270 0.537190 0.435730 -0.581936
O2    O     O_R   0.935730 0.537190 0.564270 -0.581936
O3    O     O_R   0.564270 0.037190 0.435730 -0.581936
O4    O     O_R   0.435730 0.037190 0.564270 -0.581936
O5    O     O_R   0.435730 0.500010 0.116460 -0.588368
O6    O     O_R   0.564270 0.500010 0.883540 -0.588369
O7    O     O_R   0.935730 0.000010 0.116460 -0.588368
O8    O     O_R   0.064270 0.000010 0.883540 -0.588368
O9    O     O_R   0.435720 0.500010 0.012080 -0.568034
O10   O     O_R   0.564280 0.500010 0.987920 -0.568034
O11   O     O_R   0.935720 0.000010 0.012080 -0.568034
O12   O     O_R   0.064280 0.000010 0.987920 -0.568034
O13   O     O_R   0.500010 0.564280 0.052190 -0.586661
O14   O     O_R   0.499990 0.564280 0.947810 -0.586661
O15   O     O_R   0.000010 0.064280 0.052190 -0.586661
O16   O     O_R   0.999990 0.064280 0.947810 -0.586661
O17   O     O_R   0.064270 0.462800 0.435730 -0.577481
O18   O     O_R   0.935730 0.462800 0.564270 -0.577482
O19   O     O_R   0.564270 0.962800 0.435730 -0.577482
O20   O     O_R   0.435730 0.962800 0.564270 -0.577482
O21   O     O_R   0.000010 0.537190 0.590170 -0.557300
O22   O     O_R   0.999990 0.537190 0.409830 -0.557300
O23   O     O_R   0.500010 0.037190 0.590170 -0.557300
O24   O     O_R   0.499990 0.037190 0.409830 -0.557300
O25   O     O_R   0.000000 0.462800 0.590170 -0.606377
O26   O     O_R   1.000000 0.462800 0.409830 -0.606377
O27   O     O_R   0.500000 0.962800 0.590170 -0.606377
O28   O     O_R   0.500000 0.962800 0.409830 -0.606377
O29   O     O_R   0.962800 0.435720 0.037190 -0.599272
O30   O     O_R   0.037200 0.435720 0.962810 -0.599272
O31   O     O_R   0.462800 0.935720 0.037190 -0.599272
O32   O     O_R   0.537200 0.935720 0.962810 -0.599272
O33   O     O_R   0.962790 0.499990 0.947030 -0.589889
O34   O     O_R   0.037210 0.499990 0.052970 -0.589888
O35   O     O_R   0.462790 0.999990 0.947030 -0.589888
O36   O     O_R   0.537210 0.999990 0.052970 -0.589888
O37   O     O_R   0.037190 0.500000 0.872640 -0.564734
O38   O     O_R   0.962810 0.500000 0.127360 -0.564736
O39   O     O_R   0.537190 0.000000 0.872640 -0.564735
O40   O     O_R   0.462810 0.000000 0.127360 -0.564735
O41   O     O_R   0.962790 0.564250 0.037210 -0.563885
O42   O     O_R   0.037210 0.564250 0.962790 -0.563884
O43   O     O_R   0.462790 0.064250 0.037210 -0.563885
O44   O     O_R   0.537210 0.064250 0.962790 -0.563885
O45   O     O_R   0.500000 0.435740 0.052190 -0.568133
O46   O     O_R   0.500000 0.435740 0.947810 -0.568133
O47   O     O_R   1.000000 0.935740 0.052190 -0.568133
O48   O     O_R   1.000000 0.935740 0.947810 -0.568133
C161  C     C_2   0.021997 0.634834 0.865251 0.854359
O49   O     O_2   0.010049 0.597257 0.866159 -0.623751
O50   O     O_R   0.045730 0.657861 0.797778 -0.749545
H65   H     H_    0.051062 0.639750 0.754277 0.353070
C162  C     C_2   0.978003 0.634834 0.134749 0.854361
O51   O     O_2   0.989951 0.597258 0.133841 -0.623751
O52   O     O_R   0.954269 0.657861 0.202222 -0.749546
H66   H     H_    0.948937 0.639749 0.245723 0.353070
C163  C     C_2   0.521997 0.134834 0.865251 0.854360
O53   O     O_2   0.510049 0.097258 0.866159 -0.623751
O54   O     O_R   0.545731 0.157861 0.797778 -0.749545
H67   H     H_    0.551063 0.139749 0.754277 0.353070
C164  C     C_2   0.478003 0.134834 0.134749 0.854360
O55   O     O_2   0.489951 0.097258 0.133841 -0.623751
O56   O     O_R   0.454269 0.157861 0.202222 -0.749546
H68   H     H_    0.448937 0.139750 0.245723 0.353070
C165  C     C_2   0.277520 0.530312 0.327805 0.838083
O57   O     O_2   0.242187 0.515526 0.378820 -0.560621
O58   O     O_R   0.299312 0.561439 0.343080 -0.762420
H69   H     H_    0.282262 0.569398 0.397877 0.347223
C166  C     C_2   0.722480 0.530312 0.672195 0.838083
O59   O     O_2   0.757813 0.515527 0.621180 -0.560620
O60   O     O_R   0.700688 0.561439 0.656920 -0.762421
H70   H     H_    0.717738 0.569398 0.602124 0.347223
C167  C     C_2   0.777520 0.030312 0.327804 0.838084
O61   O     O_2   0.742187 0.015527 0.378819 -0.560621
O62   O     O_R   0.799312 0.061440 0.343079 -0.762421
H71   H     H_    0.782262 0.069399 0.397876 0.347223
C168  C     C_2   0.222480 0.030313 0.672197 0.838083
O63   O     O_2   0.257813 0.015528 0.621181 -0.560621
O64   O     O_R   0.200688 0.061442 0.656923 -0.762421
H72   H     H_    0.217738 0.069401 0.602126 0.347223
C169  C     C_2   0.364847 0.458218 0.029621 0.920813
O65   O     O_2   0.389545 0.427094 0.014757 -0.579558
O66   O     O_R   0.357697 0.473748 0.976933 -0.734517
H73   H     H_    0.374888 0.456595 0.928528 0.342858
C170  C     C_2   0.635152 0.458217 0.970379 0.920814
O67   O     O_2   0.610455 0.427093 0.985243 -0.579558
O68   O     O_R   0.642303 0.473748 0.023067 -0.734518
H74   H     H_    0.625111 0.456595 0.071472 0.342857
C171  C     C_2   0.864847 0.958217 0.029621 0.920814
O69   O     O_2   0.889545 0.927093 0.014757 -0.579559
O70   O     O_R   0.857697 0.973747 0.976933 -0.734518
H75   H     H_    0.874888 0.956594 0.928528 0.342857
C172  C     C_2   0.135152 0.958216 0.970377 0.920814
O71   O     O_2   0.110454 0.927092 0.985241 -0.579560
O72   O     O_R   0.142303 0.973745 0.023066 -0.734518
H76   H     H_    0.125111 0.956591 0.071470 0.342858
C173  C     C_2   0.269667 0.465649 0.120935 0.873429
O73   O     O_2   0.276403 0.428988 0.093262 -0.572015
O74   O     O_R   0.237064 0.492474 0.126836 -0.741370
H77   H     H_    0.221333 0.477883 0.106346 0.344589
C174  C     C_2   0.730333 0.465649 0.879065 0.873430
O75   O     O_2   0.723597 0.428988 0.906737 -0.572015
O76   O     O_R   0.762936 0.492473 0.873164 -0.741370
H78   H     H_    0.778667 0.477883 0.893653 0.344589
C175  C     C_2   0.769667 0.965649 0.120935 0.873430
O77   O     O_2   0.776403 0.928988 0.093263 -0.572015
O78   O     O_R   0.737064 0.992473 0.126836 -0.741370
H79   H     H_    0.721333 0.977882 0.106347 0.344588
C176  C     C_2   0.230333 0.965647 0.879064 0.873431
O79   O     O_2   0.223597 0.928986 0.906735 -0.572015
O80   O     O_R   0.262936 0.992471 0.873164 -0.741370
H80   H     H_    0.278667 0.977880 0.893653 0.344589
C177  C     C_2   0.941726 0.557156 0.744709 0.875097
O81   O     O_2   0.936587 0.594703 0.768611 -0.569125
O82   O     O_R   0.915980 0.541605 0.720979 -0.776690
H81   H     H_    0.894910 0.564715 0.725085 0.334285
C178  C     C_2   0.058274 0.557156 0.255291 0.875098
O83   O     O_2   0.063413 0.594703 0.231389 -0.569126
O84   O     O_R   0.084020 0.541605 0.279021 -0.776690
H82   H     H_    0.105090 0.564715 0.274915 0.334284
C179  C     C_2   0.441726 0.057156 0.744709 0.875097
O85   O     O_2   0.436587 0.094703 0.768610 -0.569125
O86   O     O_R   0.415980 0.041605 0.720979 -0.776691
H83   H     H_    0.394910 0.064715 0.725085 0.334285
C180  C     C_2   0.558274 0.057156 0.255291 0.875097
O87   O     O_2   0.563413 0.094703 0.231389 -0.569125
O88   O     O_R   0.584020 0.041605 0.279021 -0.776691
H84   H     H_    0.605090 0.064715 0.274915 0.334284
C181  C     C_2   0.088470 0.455895 0.552383 0.874005
O89   O     O_2   0.097778 0.494620 0.536030 -0.566891
O90   O     O_R   0.104324 0.424652 0.495575 -0.746062
H85   H     H_    0.091770 0.394143 0.514240 0.287901
C182  C     C_2   0.911529 0.455895 0.447617 0.874005
O91   O     O_2   0.902222 0.494620 0.463970 -0.566891
O92   O     O_R   0.895676 0.424652 0.504424 -0.746062
H86   H     H_    0.908230 0.394143 0.485760 0.287900
C183  C     C_2   0.588470 0.955895 0.552383 0.874006
O93   O     O_2   0.597778 0.994619 0.536030 -0.566891
O94   O     O_R   0.604324 0.924652 0.495576 -0.746061
H87   H     H_    0.591769 0.894143 0.514240 0.287899
C184  C     C_2   0.411530 0.955895 0.447617 0.874005
O95   O     O_2   0.402222 0.994619 0.463970 -0.566891
O96   O     O_R   0.395676 0.924652 0.504424 -0.746063
H88   H     H_    0.408231 0.894143 0.485759 0.287900

loop_
_geom_bond_atom_site_label_1
_geom_bond_atom_site_label_2
_ccdc_geom_bond_type
C60   H12   S    
C4    C36   S    
C133  C137  A    
C179  O85   D    
C55   C59   A    
C22   C94   S    
C142  C146  A    
C77   C101  S    
O52   H66   S    
C136  C140  A    
C174  O75   D    
C165  O57   D    
C15   C179  S    
C135  C139  A    
C87   C163  S    
C100  C128  A    
C154  C158  A    
C26   C50   A    
C7    C159  A    
Cu11  O15   S    
C97   H21   S    
C117  C132  A    
C9    C13   A    
C80   C86   A    
Cu8   O39   S    
C54   C74   A    
C11   C15   A    
C12   C16   A    
C70   C74   A    
C151  C155  A    
C61   C105  S    
C117  H27   S    
C141  C145  A    
C2    C34   S    
C167  O62   S    
Cu2   O24   S    
C107  O7    A    
Cu8   O32   S    
C41   C49   A    
C178  O84   S    
Cu2   Cu4   S    
C100  H24   S    
C25   C29   A    
C27   C31   A    
O68   H74   S    
C101  O42   A    
C28   C32   A    
C66   C170  S    
C102  O44   A    
C62   C66   A    
C123  C126  A    
C141  C181  S    
Cu1   O2    S    
C109  H13   S    
C173  O73   D    
C26   H58   S    
C154  H50   S    
Cu3   O18   S    
C19   C23   A    
C6    C10   A    
C115  H25   S    
C111  C130  A    
O58   H69   S    
C16   C20   A    
C43   H7    S    
Cu3   O25   S    
Cu6   O30   S    
C118  C124  A    
C95   O35   A    
C29   H61   S    
C146  H42   S    
Cu5   O33   S    
C81   C90   A    
C98   C127  A    
C143  C147  A    
C49   C73   S    
Cu4   O19   S    
Cu7   O43   S    
C79   C85   A    
Cu8   O44   S    
C32   H64   S    
C70   C174  S    
C48   O24   A    
C91   C125  S    
C39   C43   A    
O94   H87   S    
C57   C61   A    
C99   C128  A    
C62   C106  S    
C108  O12   A    
C59   C63   A    
C123  H31   S    
C60   C64   A    
C139  H39   S    
C24   C96   S    
C121  H29   S    
C161  O50   S    
C181  O89   D    
C66   C70   A    
C21   C93   S    
C42   H6    S    
C114  O15   A    
Cu4   O28   S    
C23   C95   S    
Cu9   O45   S    
O74   H77   S    
C92   O32   A    
C61   C65   A    
O70   H75   S    
C93   O33   A    
C172  O72   S    
C170  O67   D    
C79   H17   S    
O86   H83   S    
C68   C172  S    
C91   O29   A    
C13   C177  S    
C67   C171  S    
C78   C87   A    
C46   O22   A    
C84   C135  A    
C177  O81   D    
C115  C121  A    
C29   C33   A    
C155  H51   S    
O82   H81   S    
C102  O43   A    
C118  H28   S    
C7    C143  A    
C121  C125  A    
Cu10  O14   S    
C64   C68   A    
C41   H5    S    
C147  H43   S    
C50   C74   S    
C104  O47   A    
C168  O64   S    
Cu9   O13   S    
C113  O13   A    
C110  C129  A    
C169  O66   S    
C171  O70   S    
C19   H55   S    
C81   H19   S    
C149  C153  A    
C17   H53   S    
C166  O60   S    
C23   C159  A    
C120  C140  A    
Cu9   O10   S    
C28   H60   S    
C8    C12   A    
C55   C75   A    
C44   C52   A    
C77   C85   A    
C146  C150  A    
C164  O56   S    
C148  H44   S    
C6    C158  A    
C27   C51   A    
C64   C108  S    
C175  O78   S    
C30   C34   A    
C155  C159  A    
C152  C156  A    
C156  C160  A    
C39   H3    S    
C10   C14   A    
C40   H4    S    
Cu12  O11   S    
C1    O1    A    
C31   H63   S    
C138  H38   S    
C147  C151  A    
C5    C9    A    
C163  O53   D    
C97   C109  A    
C45   O25   A    
C3    C35   S    
O88   H84   S    
C99   C111  A    
C162  O51   D    
C59   H11   S    
C105  O9    A    
C42   C50   A    
C26   C30   A    
C109  C129  A    
C96   O40   A    
C6    C142  A    
C4    O20   A    
C124  C126  A    
C112  H16   S    
C110  H14   S    
Cu11  O7    S    
C18   C22   A    
C119  C138  A    
C148  C152  A    
Cu9   O5    S    
C52   C76   S    
Cu7   O40   S    
C20   H56   S    
C13   C17   A    
C156  H52   S    
C122  C125  A    
C53   C165  S    
Cu2   O3    S    
C82   C88   A    
C37   C41   A    
Cu7   O31   S    
C79   C89   A    
C118  C132  A    
C40   C44   A    
Cu12  O8    S    
C104  C130  S    
C112  C130  A    
C182  O92   S    
Cu1   O22   S    
C58   C62   A    
C9    C45   S    
C98   C110  A    
C78   C102  S    
C11   C47   S    
C54   C166  S    
Cu11  Cu12  S    
C44   H8    S    
C178  O83   D    
O96   H88   S    
C15   C19   A    
C180  O88   S    
C25   H57   S    
C116  C122  A    
C101  O41   A    
Cu10  O46   S    
C183  O94   S    
C134  H34   S    
Cu1   O1    S    
O92   H86   S    
C94   O34   A    
C2    O18   A    
C95   O39   A    
C98   H22   S    
C14   C178  S    
C164  O55   D    
C105  O5    A    
C80   C89   A    
Cu3   O17   S    
C83   C134  A    
Cu1   Cu3   S    
C113  C119  S    
O90   H85   S    
C47   O23   A    
C90   C127  S    
C69   C73   A    
Cu5   O38   S    
C176  O80   S    
C103  O46   A    
C144  C148  A    
C173  O74   S    
O64   H72   S    
C179  O86   S    
C86   C162  S    
C71   C175  S    
C72   C176  S    
Cu4   O20   S    
C80   H18   S    
C106  O6    A    
C174  O76   S    
C65   C169  S    
C165  O58   S    
O60   H70   S    
Cu9   Cu10  S    
O80   H80   S    
C136  H36   S    
C53   C57   A    
C22   C158  A    
C167  O61   D    
C33   C37   A    
C56   C60   A    
C137  H37   S    
C135  H35   S    
C35   C39   A    
O56   H68   S    
C153  H49   S    
C161  O49   D    
C116  H26   S    
C69   C173  S    
O76   H78   S    
C114  O16   A    
C4    O4    A    
C30   H62   S    
C103  C129  S    
C81   C87   A    
C145  H41   S    
Cu2   O23   S    
C100  C112  A    
C5    C157  A    
C31   C35   A    
C46   O26   A    
C8    C160  A    
C32   C36   A    
O54   H67   S    
C56   C168  S    
C140  H40   S    
C78   C88   A    
C84   C136  A    
C82   H20   S    
C143  C183  S    
Cu5   O41   S    
C92   C126  S    
C94   O38   A    
C144  C184  S    
C45   O21   A    
C111  H15   S    
C82   C90   A    
Cu11  O12   S    
C58   H10   S    
C122  H30   S    
C181  O90   S    
C55   C167  S    
C83   C132  S    
O72   H76   S    
C104  O48   A    
C43   C51   A    
C168  O63   D    
C65   C69   A    
Cu3   O26   S    
C67   C71   A    
C153  C157  A    
C171  O69   D    
C25   C49   A    
C38   H2    S    
C48   O28   A    
O66   H73   S    
C166  O59   D    
C145  C149  A    
C3    O3    A    
C89   C128  S    
C17   C21   A    
O78   H79   S    
Cu5   Cu6   S    
C56   C76   A    
C142  C182  S    
C172  O71   D    
C14   C18   A    
C12   C48   S    
C97   C127  A    
C57   H9    S    
C1    C33   S    
C115  C131  A    
C175  O77   D    
C7    C11   A    
C85   C161  S    
C16   C180  S    
C124  H32   S    
C99   H23   S    
C107  O11   A    
Cu7   O35   S    
C38   C42   A    
Cu8   O36   S    
C133  H33   S    
Cu4   O27   S    
C18   H54   S    
C92   O31   A    
O84   H82   S    
C170  O68   S    
C10   C46   S    
Cu10  O9    S    
C91   O30   A    
C68   C72   A    
Cu7   Cu8   S    
Cu5   O29   S    
Cu6   O34   S    
Cu11  O47   S    
C63   C67   A    
C184  O96   S    
C119  C137  A    
C20   C24   A    
C36   C40   A    
C2    O2    A    
C149  H45   S    
O62   H71   S    
C47   O27   A    
C93   O37   A    
Cu12  O16   S    
C113  O14   A    
Cu6   O37   S    
C1    O17   A    
Cu2   O4    S    
C5    C141  A    
C108  O8    A    
C150  H46   S    
C72   C76   A    
C8    C144  A    
C120  C139  A    
C114  C120  S    
C106  O10   A    
C184  O95   D    
C27   H59   S    
C77   C86   A    
O50   H65   S    
C63   C107  S    
C51   C75   S    
C182  O91   D    
C54   C58   A    
Cu1   O21   S    
C34   C38   A    
C21   C157  A    
Cu10  O6    S    
C53   C73   A    
C134  C138  A    
C24   C160  A    
C96   O36   A    
C180  O87   D    
C84   C131  S    
C117  C123  A    
C163  O54   S    
C183  O93   D    
C71   C75   A    
C28   C52   A    
C116  C131  A    
C152  H48   S    
C162  O52   S    
C103  O45   A    
C151  H47   S    
C169  O65   D    
C3    O19   A    
C83   C133  A    
C37   H1    S    
Cu12  O48   S    
C177  O82   S    
C150  C154  A    
C88   C164  S    
C176  O79   D    
Cu6   O42   S    
