data_mof_unit_40498.cif
_audit_creation_date              2012-12-11T15:37:05-0500
_audit_creation_method            fapswitch 2.2
_symmetry_space_group_name_H-M    P1
_symmetry_Int_Tables_number       1
_space_group_crystal_system       triclinic
_cell_length_a                    15.054446
_cell_length_b                    15.063461
_cell_length_c                    34.816121
_cell_angle_alpha                 91.248556
_cell_angle_beta                  91.689852
_cell_angle_gamma                 60.157492
_cell_volume                      6845.16712961

loop_
_atom_site_label
_atom_site_type_symbol
_atom_type_description
_atom_site_fract_x
_atom_site_fract_y
_atom_site_fract_z
_atom_type_partial_charge
C1    C     C_R   0.610904 0.302412 0.444069 0.561342
C2    C     C_R   0.605443 0.089074 0.762770 -0.135360
C3    C     C_R   0.089332 0.765983 0.883494 0.257783
C4    C     C_R   0.113377 0.752522 0.844410 -0.121633
C5    C     C_R   0.106541 0.676885 0.822643 -0.023985
C6    C     C_R   0.084947 0.607874 0.840624 -0.125498
C7    C     C_R   0.063104 0.618918 0.879534 -0.174451
C8    C     C_R   0.179703 0.582529 0.761901 -0.133504
C9    C     C_R   0.188714 0.580753 0.722326 -0.118985
C10   C     C_R   0.132555 0.670567 0.700900 0.084877
C11   C     C_R   0.065557 0.763840 0.719156 0.282987
C12   C     C_R   0.057172 0.764277 0.759514 -0.107948
C13   C     C_R   0.590897 0.167894 0.788601 0.070097
C14   C     C_R   0.644053 0.757527 0.161944 -0.080954
C15   C     C_R   0.115490 0.674429 0.780742 0.000004
C16   C     C_R   0.192116 0.725275 0.645234 -0.145775
C17   C     C_R   0.232903 0.705556 0.608582 -0.142869
C18   C     C_R   0.186580 0.573531 0.599319 -0.079151
C19   C     C_R   0.145765 0.593238 0.635910 0.384107
C20   C     C_R   0.152282 0.666315 0.659641 0.066563
C21   C     C_R   0.234628 0.626262 0.586068 -0.043757
C22   C     C_R   0.674113 0.076944 0.905492 -0.020543
C23   C     C_R   0.590560 0.072332 0.888483 -0.136772
C24   C     C_R   0.549709 0.190904 0.640044 -0.127130
C25   C     C_R   0.558248 0.105580 0.850163 0.258924
C26   C     C_3   0.067450 0.533109 0.212586 0.023687
C27   C     C_3   0.090671 0.464224 0.177259 -0.413333
C28   C     C_3   0.891611 0.176893 0.084537 -0.004605
C29   C     C_3   0.991108 0.149774 0.065009 -0.368131
C30   C     C_3   0.406839 0.292668 0.267454 -0.024660
C31   C     C_3   0.311070 0.365637 0.288957 -0.361880
C32   C     C_3   0.753302 0.794381 0.798819 -0.009288
C33   C     C_3   0.809654 0.826234 0.827980 -0.370919
C34   C     C_3   0.026697 0.938291 0.891842 0.004090
C35   C     C_R   0.810940 0.605319 0.157858 -0.091112
C36   C     C_3   0.021540 0.017443 0.920948 -0.345160
C37   C     C_3   0.832959 0.402302 0.223330 -0.003478
C38   C     C_3   0.854489 0.328478 0.189818 -0.379101
C39   C     C_3   0.974539 0.943110 0.714818 -0.029486
C40   C     C_3   0.938214 0.026842 0.684902 -0.334548
C41   C     C_3   0.447653 0.412834 0.799579 -0.016575
C42   C     C_3   0.423885 0.485686 0.833609 -0.355490
C43   C     C_3   0.453082 0.031372 0.845124 -0.012056
C44   C     C_3   0.382447 0.018874 0.816117 -0.331001
C45   C     C_3   0.808185 0.826147 0.230347 0.002527
C46   C     C_R   0.553869 0.215164 0.601873 -0.173234
C47   C     C_3   0.827657 0.854730 0.191038 -0.346623
C48   C     C_R   0.686110 0.256761 0.619721 0.381474
C49   C     C_R   0.680057 0.234551 0.657850 -0.099855
C50   C     C_R   0.609924 0.204487 0.668407 -0.033092
C51   C     C_R   0.619661 0.251529 0.591517 0.023360
C52   C     C_R   0.045777 0.738959 0.048501 0.546183
C53   C     C_R   0.727240 0.673899 0.179737 0.094637
C54   C     C_R   0.746517 0.746072 0.063788 0.548100
C55   C     C_R   0.751602 0.040086 0.050808 0.556228
C56   C     C_R   0.016729 0.722574 0.939544 0.564092
C57   C     C_R   0.717530 0.730032 0.954813 0.543272
C58   C     C_R   0.815429 0.625112 0.119183 -0.142038
C59   C     C_R   0.721647 0.023969 0.941884 0.539895
C60   C     C_R   0.740824 0.573904 0.238029 0.218262
C61   C     C_R   0.733290 0.570121 0.277989 -0.069953
C62   C     C_R   0.718731 0.652819 0.301574 -0.010420
C63   C     C_R   0.713257 0.739494 0.285273 -0.096968
C64   C     C_R   0.610047 0.145770 0.830034 0.074455
C65   C     C_R   0.719863 0.744822 0.245549 0.223775
C66   C     C_R   0.729562 0.663607 0.221725 0.037473
C67   C     C_R   0.606581 0.730762 0.357674 -0.174418
C68   C     C_R   0.593490 0.610132 0.449412 0.540567
C69   C     C_R   0.575210 0.720654 0.393824 -0.128041
C70   C     C_R   0.730814 0.557025 0.401432 -0.082552
C71   C     C_R   0.761964 0.566839 0.365262 0.390450
C72   C     C_R   0.697998 0.651987 0.342541 0.042279
C73   C     C_R   0.635143 0.631660 0.415318 -0.037110
C74   C     C_R   0.103568 0.727960 0.084725 0.014755
C75   C     C_R   0.688777 0.156056 0.848130 -0.144575
C76   C     C_R   0.161911 0.630869 0.101380 -0.122534
C77   C     C_R   0.189313 0.622014 0.140309 -0.071652
C78   C     C_R   0.157447 0.709895 0.163184 0.062749
C79   C     C_R   0.108801 0.806395 0.145870 -0.126260
C80   C     C_R   0.303048 0.592027 0.442515 0.562408
C81   C     C_R   0.082659 0.815349 0.106735 -0.130219
C82   C     C_R   0.218392 0.736855 0.227143 -0.185993
C83   C     C_R   0.222046 0.731116 0.267092 -0.182835
C84   C     C_R   0.165091 0.695414 0.286333 0.008682
C85   C     C_R   0.103989 0.665531 0.264455 0.342141
C86   C     C_R   0.720235 0.122387 0.885421 -0.164811
C87   C     C_R   0.107362 0.662384 0.223909 0.283500
C88   C     C_R   0.162244 0.701897 0.205404 -0.010182
C89   C     C_R   0.184695 0.594053 0.345517 -0.087464
C90   C     C_R   0.218614 0.568964 0.383490 -0.175444
C91   C     C_R   0.228133 0.724379 0.390324 0.374958
C92   C     C_R   0.605339 0.301183 0.553972 0.557682
C93   C     C_R   0.194289 0.749074 0.352212 -0.084676
C94   C     C_R   0.177386 0.681584 0.328750 0.010595
C95   C     C_R   0.245560 0.631099 0.405775 0.023071
C96   C     C_R   0.725253 0.097624 0.087399 0.024259
C97   C     C_R   0.570927 0.263022 0.774424 0.261247
C98   C     C_R   0.798845 0.111134 0.108972 0.252112
C99   C     C_R   0.783263 0.135930 0.148036 -0.112290
C100  C     C_R   0.693324 0.152669 0.165316 -0.015079
C101  C     C_R   0.615615 0.151038 0.142697 -0.140983
C102  C     C_R   0.631496 0.123627 0.104105 -0.175781
C103  C     C_R   0.590696 0.232662 0.223563 -0.088525
C104  C     C_R   0.587522 0.606819 0.559123 0.580863
C105  C     C_R   0.578004 0.236622 0.263421 0.284353
C106  C     C_R   0.662650 0.172810 0.287360 0.043420
C107  C     C_R   0.756067 0.102466 0.270878 -0.163233
C108  C     C_R   0.575758 0.274721 0.734909 -0.105408
C109  C     C_R   0.766580 0.097005 0.231244 -0.139216
C110  C     C_R   0.683985 0.162266 0.207323 -0.006812
C111  C     C_R   0.732654 0.200344 0.348880 -0.141564
C112  C     C_R   0.721025 0.229850 0.387297 -0.171468
C113  C     C_R   0.562561 0.224668 0.388357 0.371495
C114  C     C_R   0.575362 0.193644 0.349872 -0.036555
C115  C     C_R   0.657755 0.186288 0.329441 -0.003260
C116  C     C_R   0.297617 0.589269 0.551628 0.542371
C117  C     C_R   0.633406 0.247333 0.406947 0.028024
C118  C     C_R   0.694537 0.689322 0.919277 -0.039018
C119  C     C_R   0.596032 0.193799 0.709341 -0.015835
C120  C     C_R   0.774593 0.604048 0.900880 -0.153717
C121  C     C_R   0.764140 0.582620 0.862487 -0.138441
C122  C     C_R   0.672931 0.644545 0.842103 0.058494
C123  C     C_R   0.588715 0.722258 0.861460 0.348337
C124  C     C_R   0.599762 0.745181 0.899823 -0.100692
C125  C     C_R   0.601656 0.615232 0.780819 -0.104656
C126  C     C_R   0.597543 0.612836 0.740796 -0.125703
C127  C     C_R   0.663861 0.631740 0.719431 -0.019107
C128  C     C_R   0.735285 0.713235 0.101994 0.011920
C129  C     C_R   0.734297 0.653462 0.738294 -0.087239
C130  C     C_R   0.607257 0.102204 0.723308 -0.134791
C131  C     C_R   0.736719 0.659012 0.778499 0.264502
C132  C     C_R   0.671408 0.637586 0.799904 0.059183
C133  C     C_R   0.729511 0.556817 0.654899 -0.073037
C134  C     C_R   0.711908 0.551492 0.615458 0.363638
C135  C     C_R   0.547338 0.707631 0.620674 0.320630
C136  C     C_R   0.565083 0.711364 0.659969 -0.104507
C137  C     C_R   0.654331 0.634489 0.677399 -0.100223
C138  C     C_R   0.618438 0.624668 0.598101 0.022174
C139  C     C_R   0.061732 0.699682 0.901063 0.028747
C140  C     C_R   0.647819 0.776957 0.123370 -0.134509
Cr1   Cr    Cr6+3 0.426010 0.422500 0.497000 1.087997
Cr2   Cr    Cr6+3 0.651300 0.426310 0.501970 1.121941
Cr3   Cr    Cr6+3 0.422670 0.651170 0.501050 1.130023
Cr4   Cr    Cr6+3 0.905130 0.911420 0.992650 1.028096
Cr5   Cr    Cr6+3 0.911860 0.682710 0.002320 1.007046
Cr6   Cr    Cr6+3 0.682710 0.906840 0.004710 1.006076
F1    F     F_    0.039254 0.642166 0.282285 -0.674954
F2    F     F_    0.249013 0.789324 0.411142 -0.613208
F3    F     F_    0.852274 0.491058 0.351714 -0.633020
F4    F     F_    0.478563 0.237161 0.406586 -0.619215
F5    F     F_    0.784135 0.472023 0.594868 -0.550228
F6    F     F_    0.498992 0.781489 0.842318 -0.686789
F7    F     F_    0.457201 0.782020 0.605578 -0.613841
F8    F     F_    0.105101 0.537152 0.648985 -0.617623
F9    F     F_    0.751157 0.291177 0.611287 -0.570859
H1    H     H_    0.584234 0.844941 0.110901 0.132716
H2    H     H_    0.229775 0.546966 0.153160 0.111660
H3    H     H_    0.807487 0.881584 0.252059 0.154567
H4    H     H_    0.763319 0.930554 0.182296 0.168406
H5    H     H_    0.899800 0.857953 0.192059 0.120535
H6    H     H_    0.835000 0.796565 0.169306 0.181808
H7    H     H_    0.883301 0.574202 0.103310 0.120822
H8    H     H_    0.170547 0.540971 0.328838 0.183290
H9    H     H_    0.229491 0.497519 0.394581 0.174242
H10   H     H_    0.084159 0.875071 0.163148 0.112546
H11   H     H_    0.572955 0.115843 0.088059 0.130852
H12   H     H_    0.518880 0.179155 0.335682 0.144540
H13   H     H_    0.528311 0.285960 0.205199 0.104590
H14   H     H_    0.843644 0.137660 0.165143 0.107939
H15   H     H_    0.821391 0.052205 0.288819 0.120546
H16   H     H_    0.501400 0.779599 0.403869 0.181315
H17   H     H_    0.839142 0.041023 0.219297 0.110126
H18   H     H_    0.797203 0.194599 0.333749 0.135650
H19   H     H_    0.777571 0.245598 0.400755 0.163493
H20   H     H_    0.545491 0.163516 0.155438 0.113075
H21   H     H_    0.848458 0.558796 0.915064 0.139573
H22   H     H_    0.536623 0.810841 0.913319 0.143285
H23   H     H_    0.507175 0.772493 0.677177 0.156949
H24   H     H_    0.732853 0.505177 0.290507 0.152769
H25   H     H_    0.542315 0.596648 0.726388 0.123543
H26   H     H_    0.549950 0.600612 0.796913 0.145487
H27   H     H_    0.874561 0.539385 0.171229 0.116351
H28   H     H_    0.829410 0.521752 0.847971 0.137878
H29   H     H_    0.784529 0.669721 0.721886 0.145789
H30   H     H_    0.799366 0.497487 0.668218 0.175929
H31   H     H_    0.041238 0.567701 0.892169 0.140014
H32   H     H_    0.241609 0.509346 0.708382 0.144858
H33   H     H_    0.224162 0.512552 0.777924 0.106582
H34   H     H_    0.135717 0.802078 0.830717 0.112859
H35   H     H_    0.004410 0.833153 0.774748 0.074617
H36   H     H_    0.198130 0.781585 0.663321 0.147661
H37   H     H_    0.269237 0.747505 0.599024 0.194230
H38   H     H_    0.779352 0.488255 0.417637 0.160725
H39   H     H_    0.079668 0.548779 0.824141 0.146869
H40   H     H_    0.577978 0.810136 0.178371 0.134158
H41   H     H_    0.185464 0.513138 0.582221 0.170791
H42   H     H_    0.553740 0.039954 0.904813 0.111772
H43   H     H_    0.783867 0.128122 0.897954 0.131593
H44   H     H_    0.727949 0.244077 0.679483 0.131739
H45   H     H_    0.565361 0.346436 0.724263 0.117131
H46   H     H_    0.622629 0.039242 0.703882 0.131046
H47   H     H_    0.620523 0.015651 0.773296 0.118348
H48   H     H_    0.495453 0.167250 0.647772 0.146444
H49   H     H_    0.179982 0.562173 0.085000 0.118725
H50   H     H_    0.701738 0.803847 0.303249 0.138423
H51   H     H_    0.501980 0.210376 0.580810 0.152800
H52   H     H_    0.729494 0.185930 0.832627 0.141384
H53   H     H_    0.556135 0.796877 0.340474 0.129057
H54   H     H_    0.996567 0.543173 0.225708 0.178824
H55   H     H_    0.132276 0.492238 0.233548 0.140912
H56   H     H_    0.171173 0.434199 0.168777 0.125880
H57   H     H_    0.080068 0.398310 0.183839 0.091679
H58   H     H_    0.039290 0.507241 0.152777 0.168468
H59   H     H_    0.885930 0.222228 0.110975 0.117264
H60   H     H_    0.037902 0.891026 0.094658 0.183695
H61   H     H_    0.826797 0.224515 0.064378 0.134210
H62   H     H_    0.998330 0.105553 0.038180 0.159977
H63   H     H_    0.991822 0.220826 0.057723 0.089360
H64   H     H_    0.057344 0.102995 0.084527 0.150370
H65   H     H_    0.425909 0.212803 0.273817 0.126186
H66   H     H_    0.388911 0.307378 0.236244 0.117506
H67   H     H_    0.288038 0.445449 0.281201 0.154156
H68   H     H_    0.247855 0.350522 0.280924 0.105032
H69   H     H_    0.326034 0.355547 0.320444 0.184289
H70   H     H_    0.672256 0.829516 0.808078 0.138029
H71   H     H_    0.185511 0.819178 0.340606 0.133843
H72   H     H_    0.754857 0.825158 0.770229 0.132256
H73   H     H_    0.889479 0.797060 0.818928 0.167034
H74   H     H_    0.770739 0.911000 0.830014 0.090321
H75   H     H_    0.810448 0.795129 0.856713 0.165271
H76   H     H_    0.948532 0.947882 0.888245 0.138942
H77   H     H_    0.050823 0.953684 0.864058 0.110347
H78   H     H_    0.097971 0.011261 0.924527 0.149375
H79   H     H_    0.965613 0.095571 0.910820 0.078040
H80   H     H_    0.997209 0.004936 0.949171 0.177716
H81   H     H_    0.818916 0.368836 0.249025 0.150512
H82   H     H_    0.271195 0.753149 0.282860 0.131984
H83   H     H_    0.902278 0.410102 0.228594 0.124222
H84   H     H_    0.871806 0.358231 0.163855 0.141509
H85   H     H_    0.921168 0.252551 0.196990 0.092928
H86   H     H_    0.786545 0.319567 0.183626 0.169917
H87   H     H_    0.038807 0.942540 0.731775 0.119178
H88   H     H_    0.909023 0.961907 0.733702 0.132899
H89   H     H_    0.873133 0.030533 0.667712 0.177958
H90   H     H_    0.912644 0.101891 0.699358 0.105749
H91   H     H_    0.001675 0.010844 0.665402 0.181165
H92   H     H_    0.401466 0.374013 0.802459 0.143953
H93   H     H_    0.261532 0.766288 0.213056 0.133040
H94   H     H_    0.424087 0.458279 0.772664 0.125041
H95   H     H_    0.468148 0.526273 0.832013 0.164130
H96   H     H_    0.340879 0.543004 0.833442 0.116398
H97   H     H_    0.444389 0.442244 0.860877 0.167724
H98   H     H_    0.412450 0.057148 0.872815 0.135135
H99   H     H_    0.524010 0.955662 0.848584 0.152288
H100  H     H_    0.422879 0.987171 0.788709 0.165550
H101  H     H_    0.358213 0.966152 0.827489 0.174582
H102  H     H_    0.313025 0.094145 0.810539 0.151731
H103  H     H_    0.873861 0.749169 0.237769 0.205553
O1    O     O_R   0.324990 0.503440 0.453910 -0.503984
O2    O     O_R   0.675430 0.831160 0.051290 -0.517373
O3    O     O_R   0.698870 0.998880 0.039560 -0.511840
O4    O     O_R   0.522030 0.339050 0.458320 -0.429499
O5    O     O_R   0.811290 0.006780 0.950620 -0.535844
O6    O     O_R   0.980960 0.812920 0.953200 -0.460743
O7    O     O_R   0.001480 0.656720 0.955830 -0.533131
O8    O     O_R   0.809240 0.683250 0.968050 -0.501525
O9    O     O_R   0.652500 0.818540 0.967340 -0.519844
O10   O     O_R   0.677620 0.987170 0.961730 -0.501861
O11   O     O_3   0.833240 0.833660 0.999890 -0.244462
O12   O     O_R   0.639980 0.519500 0.542640 -0.432697
O13   O     O_R   0.676180 0.324490 0.458320 -0.532975
O14   O     O_R   0.643570 0.521510 0.464260 -0.512168
O15   O     O_R   0.504630 0.675350 0.460920 -0.482285
O16   O     O_R   0.339850 0.642450 0.459830 -0.429816
O17   O     O_R   0.321120 0.501280 0.538470 -0.516039
O18   O     O_R   0.518440 0.337050 0.536710 -0.518606
O19   O     O_R   0.672300 0.322330 0.542880 -0.412017
O20   O     O_3   0.050218 0.630556 0.201494 -0.572147
O21   O     O_3   0.892246 0.085819 0.093699 -0.560789
O22   O     O_3   0.487282 0.310487 0.279374 -0.556532
O23   O     O_R   0.500750 0.673190 0.545480 -0.447294
O24   O     O_3   0.802248 0.686386 0.796992 -0.560784
O25   O     O_3   0.098215 0.839475 0.905255 -0.542115
O26   O     O_3   0.745498 0.496956 0.214091 -0.558081
O27   O     O_3   0.005894 0.848504 0.695912 -0.552644
O28   O     O_3   0.553771 0.342033 0.799562 -0.569657
O29   O     O_3   0.474728 0.105976 0.831500 -0.571851
O30   O     O_3   0.711258 0.832192 0.229673 -0.577567
O31   O     O_R   0.336260 0.640450 0.538210 -0.489383
O32   O     O_3   0.499990 0.499990 0.500010 -0.295855
O33   O     O_R   0.834210 0.019400 0.034570 -0.470591
O34   O     O_R   0.002210 0.824620 0.031030 -0.494356
O35   O     O_R   0.024400 0.669340 0.039790 -0.515964
O36   O     O_R   0.830490 0.694950 0.045870 -0.499414

loop_
_geom_bond_atom_site_label_1
_geom_bond_atom_site_label_2
_ccdc_geom_bond_type
Cr2   O32   S    
C135  C138  A    
C112  H19   S    
C87   C88   A    
C83   H82   S    
C24   H48   S    
C133  C137  A    
C93   C94   A    
C133  C134  A    
C96   C102  A    
C35   C53   A    
C18   C21   A    
C54   O2    A    
Cr1   O4    S    
C7    H31   S    
Cr6   O2    S    
C19   C20   A    
C2    H47   S    
C8    H33   S    
C6    H39   S    
C33   H75   S    
C14   H40   S    
C33   H73   S    
C97   O28   S    
C63   C65   A    
C40   H90   S    
C37   H83   S    
C106  C115  S    
C55   O33   A    
C114  H12   S    
C81   H60   S    
C77   C78   A    
C39   O27   S    
C36   H80   S    
C100  C110  S    
C26   C27   S    
C126  C127  A    
C45   O30   S    
C74   C76   A    
C59   O10   A    
C26   H55   S    
C65   O30   S    
C59   O5    A    
C28   C29   S    
C56   O6    A    
C35   H27   S    
C68   O14   A    
C52   C74   S    
C98   O21   S    
C70   H38   S    
C5    C6    A    
C104  O23   A    
C33   H74   S    
C89   H8    S    
C106  C107  A    
C36   H79   S    
C136  H23   S    
C116  O31   A    
C92   O19   A    
C119  C130  A    
C18   C19   A    
C29   H62   S    
Cr6   O3    S    
Cr5   O11   S    
C67   C72   A    
C69   H16   S    
Cr1   O1    S    
C89   C94   A    
C2    C13   A    
Cr2   O13   S    
C100  C101  A    
Cr3   O32   S    
C2    C130  A    
C44   H102  S    
C113  C114  A    
C97   C108  A    
C75   H52   S    
C93   H71   S    
C120  H21   S    
C48   C51   A    
C68   O15   A    
C83   C84   A    
C10   C20   S    
C16   C17   A    
C96   C98   A    
Cr3   O16   S    
C60   O26   S    
C69   C73   A    
C70   C71   A    
C52   O35   A    
C92   O18   A    
C9    C10   A    
C43   O29   S    
C55   C96   S    
C109  H17   S    
C133  H30   S    
C121  H28   S    
C39   H87   S    
C44   H101  S    
C43   H98   S    
C135  C136  A    
C41   C42   S    
C38   H84   S    
C60   C66   A    
C103  H13   S    
C17   H37   S    
C55   O3    A    
C34   O25   S    
C41   H92   S    
C24   C50   A    
C107  C109  A    
C108  C119  A    
Cr6   O9    S    
C52   O34   A    
C21   C116  S    
C32   O24   S    
C4    H34   S    
Cr2   O19   S    
C122  C132  S    
C91   F2    S    
C13   C97   A    
Cr3   O31   S    
C114  C115  A    
C30   H66   S    
C118  C120  A    
C47   H5    S    
C45   C47   S    
Cr4   O33   S    
C28   H59   S    
Cr3   O23   S    
Cr2   O14   S    
C45   H103  S    
C85   C87   A    
C18   H41   S    
C50   C119  S    
C54   O36   A    
C101  C102  A    
C123  C124  A    
C84   C85   A    
C11   O27   S    
Cr1   O32   S    
C109  C110  A    
C89   C90   A    
C22   C59   S    
C79   C81   A    
C56   C139  S    
C78   C79   A    
C8    C9    A    
C39   C40   S    
C47   H4    S    
C68   C73   S    
C70   C73   A    
C54   C128  S    
C46   C51   A    
C82   C83   A    
Cr4   O34   S    
C1    O4    A    
Cr5   O8    S    
C90   H9    S    
C60   C61   A    
C67   C69   A    
C87   O20   S    
C37   H81   S    
C108  H45   S    
C116  O17   A    
Cr6   O10   S    
C43   C44   S    
C127  C129  A    
C37   C38   S    
C53   C66   S    
C16   H36   S    
C27   H58   S    
C51   C92   S    
C91   C93   A    
C31   H67   S    
C111  C115  A    
C19   F8    S    
C75   C86   A    
C99   C100  A    
C12   C15   A    
C30   C31   S    
C16   C20   A    
C14   C53   A    
C62   C63   A    
C27   H56   S    
C121  C122  A    
C62   C72   S    
C103  C105  A    
C125  H26   S    
C118  C124  A    
C41   O28   S    
C79   H10   S    
C80   C95   S    
C28   H61   S    
C56   O7    A    
C37   O26   S    
C57   O9    A    
C124  H22   S    
C40   H89   S    
C130  H46   S    
C86   H43   S    
C31   H68   S    
C43   H99   S    
C84   C94   S    
C48   C49   A    
C126  H25   S    
C48   F9    S    
C14   C140  A    
C57   O8    A    
C49   C50   A    
C8    C15   A    
C35   C58   A    
C125  C126  A    
C113  C117  A    
C101  H20   S    
C38   H85   S    
C3    C139  A    
Cr1   O17   S    
C74   C81   A    
C3    C4    A    
C58   H7    S    
C26   O20   S    
C120  C121  A    
C28   O21   S    
C30   H65   S    
C80   O16   A    
C49   H44   S    
C78   C88   S    
C46   H51   S    
C38   H86   S    
C123  F6    S    
C29   H63   S    
C111  C112  A    
C111  H18   S    
C113  F4    S    
C129  H29   S    
Cr6   O11   S    
C34   H77   S    
C45   H3    S    
C85   F1    S    
C136  C137  A    
C9    H32   S    
C103  C110  A    
C90   C95   A    
C134  C138  A    
C40   H91   S    
C11   C12   A    
C76   H49   S    
C44   H100  S    
C61   H24   S    
C6    C7    A    
C99   H14   S    
C12   H35   S    
C105  C106  A    
C23   H42   S    
C30   O22   S    
C22   C23   A    
C135  F7    S    
C82   H93   S    
C112  C117  A    
Cr5   O36   S    
C24   C46   A    
C32   C33   S    
C42   H96   S    
Cr4   O11   S    
C36   H78   S    
C71   C72   A    
C65   C66   A    
Cr4   O6    S    
Cr5   O35   S    
C58   C128  A    
C7    C139  A    
C76   C77   A    
C125  C132  A    
C25   O29   S    
C71   F3    S    
C13   C64   S    
C39   H88   S    
C82   C88   A    
C134  F5    S    
C3    O25   S    
C27   H57   S    
C1    O13   A    
C64   C75   A    
C104  C138  S    
C140  H1    S    
C26   H54   S    
C34   C36   S    
C22   C86   A    
C128  C140  A    
C61   C62   A    
C104  O12   A    
C5    C15   S    
C4    C5    A    
C10   C11   A    
C42   H97   S    
C31   H69   S    
C47   H6    S    
C29   H64   S    
C23   C25   A    
C32   H70   S    
C42   H95   S    
C91   C95   A    
C102  H11   S    
C98   C99   A    
C63   H50   S    
C32   H72   S    
C41   H94   S    
Cr2   O12   S    
Cr3   O15   S    
C105  O22   S    
C80   O1    A    
Cr5   O7    S    
C127  C137  S    
Cr1   O18   S    
C129  C131  A    
C122  C123  A    
C1    C117  S    
Cr4   O5    S    
C25   C64   A    
C131  O24   S    
C67   H53   S    
C131  C132  A    
C77   H2    S    
C57   C118  S    
C34   H76   S    
C107  H15   S    
C17   C21   A    
