data_mof_unit_54363.cif
_audit_creation_date              2012-12-10T20:15:09-0500
_audit_creation_method            fapswitch 2.2
_symmetry_space_group_name_H-M    P1
_symmetry_Int_Tables_number       1
_space_group_crystal_system       triclinic
_cell_length_a                    15.711171
_cell_length_b                    19.132008
_cell_length_c                    18.45585
_cell_angle_alpha                 90.352021
_cell_angle_beta                  89.702392
_cell_angle_gamma                 90.166262
_cell_volume                      5547.37234214

loop_
_atom_site_label
_atom_site_type_symbol
_atom_type_description
_atom_site_fract_x
_atom_site_fract_y
_atom_site_fract_z
_atom_type_partial_charge
C1    C     C_R   0.499441 0.365831 0.499814 0.989999
C2    C     C_R   0.561795 0.250229 0.513290 -0.407470
C3    C     C_R   0.481554 0.709146 0.502101 -0.290662
C4    C     C_R   0.490534 0.291143 0.499422 -0.263533
C5    C     C_R   0.414022 0.967145 0.561849 -0.349633
C6    C     C_R   0.500182 0.032302 0.447379 -0.358042
C7    C     C_R   0.422198 0.039495 0.561782 0.545152
C8    C     C_R   0.494652 0.959871 0.448825 0.525865
C9    C     C_R   0.465327 0.071775 0.503986 0.049085
C10   C     C_R   0.451051 0.927532 0.506199 0.029047
C11   C     C_R   0.545625 0.549501 0.725853 -0.006086
C12   C     C_R   0.497326 0.634481 0.500266 0.953123
C13   C     C_R   0.449728 0.546136 0.274738 0.009830
C14   C     C_R   0.546553 0.550839 0.801887 -0.238209
C15   C     C_R   0.448615 0.547319 0.198734 -0.233196
C16   C     C_R   0.337799 0.499809 0.500175 0.922829
C17   C     C_R   0.662323 0.500079 0.499811 0.894240
C18   C     C_R   0.500339 0.500673 0.841310 0.231400
C19   C     C_R   0.499512 0.500520 0.158722 0.225414
C20   C     C_R   0.453895 0.450164 0.802298 -0.250713
C21   C     C_R   0.550640 0.453422 0.197110 -0.250207
C22   C     C_R   0.454484 0.450807 0.726224 -0.008345
C23   C     C_R   0.408574 0.811580 0.457450 0.394857
C24   C     C_R   0.549969 0.454067 0.273193 -0.010908
C25   C     C_R   0.422450 0.500898 0.962123 0.328912
C26   C     C_R   0.577128 0.506602 0.037997 0.328706
C27   C     C_R   0.422700 0.496744 0.038518 0.381246
C28   C     C_R   0.577306 0.502596 0.961537 0.380818
C29   C     C_R   0.499811 0.501368 0.077367 -0.277120
C30   C     C_R   0.499999 0.501495 0.922698 -0.278873
C31   C     C_3   0.972358 0.437151 0.504438 0.596654
C32   C     C_3   0.028711 0.566480 0.494982 0.593057
C33   C     C_3   0.029258 0.463855 0.442302 -0.312988
C34   C     C_R   0.402502 0.188200 0.487290 0.364660
C35   C     C_3   0.971646 0.539871 0.557059 -0.306341
C36   C     C_1   0.249071 0.500406 0.500595 -0.198495
C37   C     C_1   0.751284 0.500872 0.499290 -0.179182
C38   C     C_3   0.027212 0.473135 0.562684 -0.323311
C39   C     C_3   0.973607 0.530577 0.436677 -0.330751
C40   C     C_3   0.083212 0.501019 0.500488 0.075910
C41   C     C_3   0.917498 0.502531 0.498972 0.069101
C42   C     C_1   0.173879 0.500862 0.500746 -0.011523
C43   C     C_1   0.826615 0.501688 0.498923 0.000565
C44   C     C_R   0.424557 0.739870 0.453000 0.435204
C45   C     C_R   0.450476 0.851786 0.510814 -0.172295
C46   C     C_R   0.410219 0.260966 0.487601 0.401471
C47   C     C_3   0.324313 0.568126 0.903128 0.108815
C48   C     C_3   0.272167 0.606613 0.961219 -0.308458
C49   C     C_3   0.240501 0.676866 0.933639 -0.994582
C50   C     C_3   0.667893 0.580475 0.098567 0.112381
C51   C     C_3   0.717004 0.622812 0.041826 -0.312958
C52   C     C_3   0.741044 0.694971 0.071006 -0.992159
C53   C     C_3   0.325950 0.420000 0.082813 -0.249971
C54   C     C_3   0.681625 0.433421 0.916174 -0.246615
C55   C     C_3   0.001619 0.318409 0.511287 0.073603
C56   C     C_R   0.474232 0.147179 0.501915 -0.147829
C57   C     C_3   0.000870 0.276367 0.440517 -0.342131
C58   C     C_3   0.071670 0.221928 0.438903 -0.958942
C59   C     C_3   0.005140 0.684647 0.474836 0.060917
C60   C     C_3   0.021777 0.711509 0.398156 -0.340854
C61   C     C_3   0.955747 0.765623 0.376336 -0.970020
C62   C     C_3   0.308736 0.674372 0.423519 -0.250806
C63   C     C_3   0.293520 0.312313 0.537272 -0.304352
C64   C     C_3   0.281319 0.865974 0.436449 0.073219
C65   C     C_3   0.214878 0.873735 0.376929 -0.303723
C66   C     C_3   0.130520 0.900489 0.407486 -0.997333
C67   C     C_R   0.501771 0.820103 0.563285 0.506186
C68   C     C_3   0.310431 0.146413 0.402382 0.108458
C69   C     C_3   0.244679 0.088190 0.392643 -0.324749
C70   C     C_3   0.222178 0.077429 0.313054 -0.982210
C71   C     C_3   0.517381 0.843963 0.683761 -0.329529
C72   C     C_3   0.687945 0.143415 0.476983 -0.310600
C73   C     C_3   0.445326 0.095466 0.670007 0.085572
C74   C     C_3   0.436809 0.045384 0.733999 -0.362878
C75   C     C_3   0.498441 0.064644 0.794577 -0.955146
C76   C     C_3   0.616946 0.912289 0.405178 0.070924
C77   C     C_3   0.652598 0.860946 0.349167 -0.301040
C78   C     C_R   0.554683 0.177519 0.512861 0.499094
C79   C     C_3   0.747847 0.849688 0.359413 -0.989221
C80   C     C_R   0.518038 0.748783 0.557664 -0.391575
H1    H     H_    0.055538 0.432798 0.396460 0.157335
H2    H     H_    0.589396 0.417717 0.302482 0.131912
H3    H     H_    0.949159 0.554357 0.386224 0.156330
H4    H     H_    0.051102 0.448712 0.613028 0.154428
H5    H     H_    0.561706 0.724615 0.595163 0.189065
H6    H     H_    0.622383 0.274962 0.524855 0.182659
H7    H     H_    0.379966 0.941705 0.605579 0.166153
H8    H     H_    0.532112 0.057731 0.402477 0.161890
H9    H     H_    0.284935 0.562612 0.853583 0.163457
H10   H     H_    0.380881 0.600150 0.887385 0.115017
H11   H     H_    0.216627 0.573955 0.977237 0.247613
H12   H     H_    0.946240 0.571919 0.602568 0.157605
H13   H     H_    0.312149 0.615926 0.009814 0.231562
H14   H     H_    0.295165 0.710690 0.918189 0.263978
H15   H     H_    0.203489 0.703604 0.977028 0.273935
H16   H     H_    0.198621 0.669122 0.885931 0.268383
H17   H     H_    0.608160 0.608352 0.114153 0.119223
H18   H     H_    0.706866 0.577487 0.148506 0.163675
H19   H     H_    0.775881 0.594339 0.026028 0.247180
H20   H     H_    0.677088 0.629386 0.992845 0.230686
H21   H     H_    0.682936 0.724684 0.086253 0.267271
H22   H     H_    0.776042 0.724460 0.028581 0.272123
H23   H     H_    0.581253 0.588276 0.695826 0.127509
H24   H     H_    0.782663 0.690060 0.119175 0.268244
H25   H     H_    0.375168 0.392141 0.114715 0.148010
H26   H     H_    0.317401 0.394249 0.029079 0.176304
H27   H     H_    0.264806 0.415543 0.112763 0.181378
H28   H     H_    0.635483 0.402063 0.883815 0.148279
H29   H     H_    0.692789 0.408311 0.969526 0.176216
H30   H     H_    0.743002 0.433580 0.886208 0.182211
H31   H     H_    0.987633 0.282419 0.556861 0.164053
H32   H     H_    0.066843 0.339730 0.521040 0.118818
H33   H     H_    0.938368 0.249592 0.434675 0.225253
H34   H     H_    0.410485 0.582275 0.305203 0.169279
H35   H     H_    0.009455 0.312098 0.393852 0.218754
H36   H     H_    0.134941 0.247752 0.442720 0.285776
H37   H     H_    0.068933 0.192042 0.387198 0.264999
H38   H     H_    0.063942 0.184889 0.484596 0.265227
H39   H     H_    0.012854 0.728862 0.513577 0.160983
H40   H     H_    0.937745 0.666551 0.480230 0.128898
H41   H     H_    0.086256 0.735426 0.395539 0.226300
H42   H     H_    0.019780 0.667192 0.359034 0.220319
H43   H     H_    0.891407 0.741458 0.375519 0.267947
H44   H     H_    0.970811 0.785433 0.321309 0.270454
H45   H     H_    0.582366 0.591218 0.829700 0.159985
H46   H     H_    0.955848 0.810364 0.414969 0.270365
H47   H     H_    0.313800 0.649481 0.477711 0.130664
H48   H     H_    0.286166 0.633730 0.384991 0.185695
H49   H     H_    0.260046 0.716202 0.425158 0.165940
H50   H     H_    0.268897 0.261948 0.558856 0.200755
H51   H     H_    0.237653 0.345499 0.525260 0.175175
H52   H     H_    0.332040 0.339878 0.579121 0.155674
H53   H     H_    0.291161 0.917906 0.462202 0.148849
H54   H     H_    0.255913 0.829179 0.478069 0.107418
H55   H     H_    0.238769 0.910953 0.335472 0.238091
H56   H     H_    0.408990 0.585018 0.171403 0.167333
H57   H     H_    0.204219 0.822255 0.350210 0.222695
H58   H     H_    0.105195 0.863787 0.448768 0.269767
H59   H     H_    0.083475 0.904834 0.363067 0.272912
H60   H     H_    0.139214 0.952867 0.432695 0.269621
H61   H     H_    0.369610 0.130483 0.372828 0.116988
H62   H     H_    0.285842 0.195534 0.378352 0.176583
H63   H     H_    0.270800 0.038742 0.414490 0.225078
H64   H     H_    0.185976 0.101258 0.423590 0.235903
H65   H     H_    0.195406 0.126198 0.290223 0.264827
H66   H     H_    0.173806 0.035275 0.308098 0.272790
H67   H     H_    0.417885 0.410255 0.830448 0.164172
H68   H     H_    0.279626 0.062048 0.281520 0.271762
H69   H     H_    0.540496 0.791577 0.700139 0.163453
H70   H     H_    0.446786 0.846766 0.688890 0.144936
H71   H     H_    0.544648 0.882623 0.722260 0.195271
H72   H     H_    0.722843 0.193462 0.484749 0.172585
H73   H     H_    0.662513 0.139592 0.420836 0.142736
H74   H     H_    0.734524 0.100471 0.483458 0.188876
H75   H     H_    0.431800 0.149413 0.689401 0.161056
H76   H     H_    0.512467 0.095882 0.649720 0.161568
H77   H     H_    0.370594 0.047116 0.755424 0.231738
H78   H     H_    0.590348 0.416129 0.168464 0.165130
H79   H     H_    0.450398 0.991224 0.715552 0.223221
H80   H     H_    0.565175 0.061872 0.774593 0.273379
H81   H     H_    0.490679 0.027394 0.840052 0.262672
H82   H     H_    0.485278 0.118298 0.814986 0.262989
H83   H     H_    0.628983 0.890902 0.460299 0.162212
H84   H     H_    0.650489 0.963367 0.399395 0.139557
H85   H     H_    0.619060 0.809937 0.354343 0.235720
H86   H     H_    0.641304 0.881452 0.293826 0.229583
H87   H     H_    0.782839 0.899931 0.353942 0.268562
H88   H     H_    0.771654 0.812749 0.317391 0.270513
H89   H     H_    0.418542 0.411885 0.696492 0.124587
H90   H     H_    0.760400 0.827287 0.413701 0.270571
N1    N     N_R   0.500010 0.499980 0.689440 -0.088218
N2    N     N_R   0.499990 0.500020 0.310560 -0.094927
O1    O     O_R   0.500000 0.398180 0.560840 -0.631872
O2    O     O_3   0.654280 0.511163 0.073691 -0.620583
O3    O     O_3   0.346124 0.491432 0.075325 -0.591317
O4    O     O_3   0.654147 0.503064 0.924718 -0.591719
O5    O     O_3   0.936718 0.369574 0.509899 -0.645919
O6    O     O_3   0.066394 0.633455 0.491992 -0.656583
O7    O     O_3   0.387508 0.700582 0.398363 -0.581324
O8    O     O_3   0.340524 0.302449 0.472735 -0.604848
O9    O     O_3   0.358341 0.842153 0.404941 -0.578176
O10   O     O_3   0.323984 0.156883 0.477249 -0.610948
O11   O     O_3   0.545170 0.860989 0.613215 -0.591361
O12   O     O_R   0.500000 0.601820 0.439160 -0.580722
O13   O     O_3   0.623417 0.135472 0.529793 -0.597066
O14   O     O_3   0.384393 0.078574 0.616360 -0.632351
O15   O     O_3   0.528973 0.920550 0.392876 -0.618638
O16   O     O_R   0.499960 0.398180 0.439210 -0.607227
O17   O     O_R   0.500040 0.601820 0.560790 -0.637974
O18   O     O_R   0.376800 0.500000 0.560800 -0.626944
O19   O     O_R   0.623200 0.500000 0.439200 -0.624620
O20   O     O_R   0.376760 0.499990 0.439180 -0.605679
O21   O     O_R   0.623240 0.500010 0.560820 -0.614136
O22   O     O_3   0.345106 0.499908 0.926480 -0.620635
Zn1   Zn    Zn3+2 0.500030 0.500000 0.581210 0.941713
Zn2   Zn    Zn3+2 0.499970 0.500000 0.418790 0.974674

loop_
_geom_bond_atom_site_label_1
_geom_bond_atom_site_label_2
_ccdc_geom_bond_type
C75   H80   S    
C25   C30   A    
C34   C56   A    
C59   H40   S    
C23   C45   A    
C55   H32   S    
C27   C29   A    
C55   O5    S    
C73   C74   S    
C14   C18   A    
C47   O22   S    
C36   C42   T    
C6    C9    A    
C73   O14   S    
C6    H8    S    
C39   C41   S    
C4    C46   A    
C17   O19   A    
C69   H64   S    
C15   C19   A    
C12   O17   A    
C68   O10   S    
C33   C39   S    
C14   H45   S    
C74   H79   S    
C31   O5    S    
C61   H44   S    
O20   Zn2   S    
C79   H90   S    
C38   C40   S    
C34   O10   S    
C23   O9    S    
C62   H47   S    
C11   C14   A    
C32   C39   S    
C71   H70   S    
C75   H81   S    
C26   O2    S    
C77   H85   S    
C58   H38   S    
C56   C78   A    
C54   H30   S    
C21   H78   S    
C63   H50   S    
C54   O4    S    
C24   H2    S    
O19   Zn2   S    
C3    C12   S    
C16   O20   A    
C71   H69   S    
C17   O21   A    
C53   H26   S    
C13   N2    A    
C71   H71   S    
C66   H59   S    
C68   C69   S    
C72   H72   S    
C48   H11   S    
C45   C67   A    
C31   C33   S    
C68   H62   S    
C61   H46   S    
C70   H66   S    
C63   H51   S    
C49   H14   S    
C22   N1    A    
C65   H57   S    
C35   H12   S    
C40   C42   S    
C59   C60   S    
C52   H22   S    
C58   H36   S    
C41   C43   S    
C62   H49   S    
C32   O6    S    
C60   H41   S    
C24   N2    A    
C3    C80   A    
C44   O7    S    
C67   O11   S    
C77   C79   S    
C8    O15   S    
C51   H19   S    
C3    C44   A    
C64   H54   S    
C52   H21   S    
C50   H18   S    
C33   C40   S    
C72   H74   S    
C74   C75   S    
C51   C52   S    
C32   C35   S    
C46   O8    S    
C35   C38   S    
C76   C77   S    
C57   H35   S    
C48   H13   S    
C7    O14   S    
C27   O3    S    
C62   O7    S    
C78   O13   S    
C28   O4    S    
C57   H33   S    
C15   H56   S    
O21   Zn1   S    
C77   H86   S    
O12   Zn2   S    
C58   H37   S    
C63   O8    S    
C54   H29   S    
C60   C61   S    
C37   C43   T    
C2    C4    A    
O1    Zn1   S    
C80   H5    S    
C2    C78   A    
C71   O11   S    
C53   H27   S    
C47   C48   S    
C66   H58   S    
C13   C15   A    
C1    O1    A    
C73   H75   S    
C10   C45   S    
C50   C51   S    
C20   H67   S    
C68   H61   S    
C9    C56   S    
C17   C37   S    
C63   H52   S    
C49   H15   S    
C60   H42   S    
C65   H55   S    
C76   O15   S    
C16   O18   A    
O18   Zn1   S    
C34   C46   A    
C64   O9    S    
N1    Zn1   S    
C48   C49   S    
C20   C22   A    
C47   H9    S    
C75   H82   S    
C18   C30   S    
C79   H88   S    
C47   H10   S    
C76   H84   S    
C70   H68   S    
C19   C29   S    
C11   N1    A    
C53   O3    S    
C5    C7    A    
C1    O16   A    
C51   H20   S    
C7    C9    A    
C64   H53   S    
C52   H24   S    
C50   H17   S    
C59   H39   S    
C72   H73   S    
C31   C41   S    
C74   H77   S    
C55   H31   S    
C50   O2    S    
C70   H65   S    
C59   O6    S    
C67   C80   A    
C13   H34   S    
C6    C8    A    
C69   H63   S    
C26   C28   A    
C31   C38   S    
C54   H28   S    
C61   H43   S    
C1    C4    S    
C64   C65   S    
C55   C57   S    
C38   H4    S    
C5    C10   A    
C16   C36   S    
C62   H48   S    
O17   Zn1   S    
C57   C58   S    
C12   O12   A    
C73   H76   S    
C28   C30   A    
C2    H6    S    
C18   C20   A    
C32   C40   S    
C49   H16   S    
C69   C70   S    
C35   C41   S    
C72   O13   S    
C22   H89   S    
N2    Zn2   S    
C23   C44   A    
C39   H3    S    
C5    H7    S    
C53   H25   S    
C66   H60   S    
O16   Zn2   S    
C26   C29   A    
C8    C10   A    
C65   C66   S    
C21   C24   A    
C76   H83   S    
C11   H23   S    
C79   H87   S    
C33   H1    S    
C25   O22   S    
C19   C21   A    
C25   C27   A    
