data_mof_unit_62910.cif
_audit_creation_date              2012-12-10T19:00:58-0500
_audit_creation_method            fapswitch 2.2
_symmetry_space_group_name_H-M    P1
_symmetry_Int_Tables_number       1
_space_group_crystal_system       triclinic
_cell_length_a                    10.69241
_cell_length_b                    14.262626
_cell_length_c                    13.327775
_cell_angle_alpha                 89.999392
_cell_angle_beta                  89.844804
_cell_angle_gamma                 90.004221
_cell_volume                      2032.50281365

loop_
_atom_site_label
_atom_site_type_symbol
_atom_type_description
_atom_site_fract_x
_atom_site_fract_y
_atom_site_fract_z
_atom_type_partial_charge
C1    C     C_R   0.500021 0.326451 0.500000 0.870395
C2    C     C_R   0.742458 0.480637 0.499752 0.938289
C3    C     C_R   0.499999 0.673527 0.499999 0.940821
C4    C     C_3   0.069530 0.416205 0.590538 0.158340
C5    C     C_3   0.073010 0.431547 0.400803 0.197581
C6    C     C_3   0.926959 0.433790 0.600403 0.198264
C7    C     C_3   0.930307 0.414551 0.411058 0.157916
C8    C     C_3   0.070782 0.579010 0.509033 -0.340878
C9    C     C_3   0.929693 0.578946 0.488690 -0.341919
C10   C     C_3   0.121540 0.477274 0.500827 -0.174408
C11   C     C_3   0.878588 0.477515 0.499310 -0.175024
C12   C     C_1   0.500000 0.957729 0.499999 0.031158
C13   C     C_1   0.500011 0.225847 0.500001 -0.181761
C14   C     C_1   0.500006 0.141306 0.500000 0.011367
C15   C     C_1   0.500002 0.042271 0.499999 0.028889
C16   C     C_1   0.499999 0.858692 0.499998 0.013353
C17   C     C_1   0.499999 0.774147 0.499998 -0.205526
C18   C     C_1   0.499999 0.499956 0.169332 0.188174
C19   C     C_1   0.500000 0.499957 0.830668 0.188458
C20   C     C_1   0.499999 0.499940 0.049533 0.006599
C21   C     C_1   0.499999 0.499940 0.950467 0.006659
C22   C     C_R   0.257693 0.480195 0.500278 0.936613
Cl1   Cl    Cl    0.148550 0.424725 0.709948 -0.488884
Cl2   Cl    Cl    0.111449 0.501158 0.291081 -0.489410
Cl3   Cl    Cl    0.888921 0.505891 0.708377 -0.489774
Cl4   Cl    Cl    0.851117 0.421086 0.291591 -0.489271
H1    H     H_    0.082919 0.341221 0.569826 0.051058
H2    H     H_    0.119513 0.362452 0.389638 0.080957
H3    H     H_    0.880135 0.365069 0.613282 0.081857
H4    H     H_    0.916521 0.340028 0.433451 0.051038
H5    H     H_    0.089115 0.606982 0.585546 0.237465
H6    H     H_    0.118079 0.626884 0.455009 0.207972
H7    H     H_    0.882550 0.628004 0.541563 0.207467
H8    H     H_    0.911477 0.605369 0.411531 0.237891
N1    N     N_1   0.500000 0.499980 0.261870 -0.036163
N2    N     N_1   0.500000 0.499980 0.738130 -0.036122
O1    O     O_R   0.500000 0.373720 0.576470 -0.606453
O2    O     O_R   0.500000 0.373720 0.423530 -0.605103
O3    O     O_R   0.314810 0.499990 0.576450 -0.559929
O4    O     O_R   0.314810 0.499990 0.423550 -0.576690
O5    O     O_R   0.685190 0.499990 0.576450 -0.577415
O6    O     O_R   0.685190 0.499990 0.423550 -0.560501
O7    O     O_R   0.500000 0.626290 0.576440 -0.592102
O8    O     O_R   0.500000 0.626290 0.423560 -0.593079
Zn1   Zn    Zn3+2 0.500000 0.500010 0.602090 1.045868
Zn2   Zn    Zn3+2 0.500000 0.500010 0.397910 1.045965

loop_
_geom_bond_atom_site_label_1
_geom_bond_atom_site_label_2
_ccdc_geom_bond_type
C9    H7    S    
C5    H2    S    
O7    Zn1   S    
C18   N1    T    
C12   C15   T    
C1    O1    A    
O3    Zn1   S    
C22   O4    A    
C6    H3    S    
N2    Zn1   S    
C7    H4    S    
C13   C14   T    
C10   C22   S    
C7    C11   S    
C9    C11   S    
C3    O7    A    
C5    Cl2   S    
C7    Cl4   S    
C1    O2    A    
C2    O6    A    
C2    C11   S    
C4    C6    S    
C19   C21   S    
O8    Zn2   S    
C3    C17   S    
C18   C20   S    
C19   N2    T    
C9    H8    S    
C3    O8    A    
O2    Zn2   S    
C6    Cl3   S    
C1    C13   S    
O4    Zn2   S    
C2    O5    A    
O1    Zn1   S    
C8    H6    S    
C5    C10   S    
C4    H1    S    
C20   C21   T    
C8    C10   S    
O6    Zn2   S    
C6    C11   S    
C5    C7    S    
C4    Cl1   S    
O5    Zn1   S    
C14   C15   S    
C8    C9    S    
N1    Zn2   S    
C22   O3    A    
C8    H5    S    
C12   C16   S    
C4    C10   S    
C16   C17   T    
