data_mof_unit_25633.cif
_audit_creation_date              2013-03-05T16:31:07-0500
_audit_creation_method            fapswitch 2.2
_symmetry_space_group_name_H-M    P1
_symmetry_Int_Tables_number       1
_space_group_crystal_system       triclinic
_cell_length_a                    10.856529
_cell_length_b                    10.872729
_cell_length_c                    9.532944
_cell_angle_alpha                 90.956955
_cell_angle_beta                  88.46522
_cell_angle_gamma                 91.124476
_cell_volume                      1124.50202013

loop_
_atom_site_label
_atom_site_type_symbol
_atom_site_description
_atom_site_fract_x
_atom_site_fract_y
_atom_site_fract_z
_atom_type_partial_charge
O1    O     O_R   0.500000 0.319640 0.618810 -0.575591
O2    O     O_R   0.500010 0.319680 0.381230 -0.579024
C1    C     C_R   0.495385 0.262499 0.499124 0.794228
O3    O     O_R   0.319640 0.499980 0.618820 -0.607467
O4    O     O_R   0.319650 0.500020 0.381230 -0.551568
C2    C     C_R   0.261696 0.506590 0.502980 0.849008
Cu1   Cu    Cu3+1 0.499990 0.499980 0.640670 0.976539
Cu2   Cu    Cu3+1 0.500010 0.500020 0.359330 1.005140
O5    O     O_R   0.499990 0.680320 0.618770 -0.583564
O6    O     O_R   0.500000 0.680360 0.381190 -0.578056
O7    O     O_R   0.680350 0.499980 0.618770 -0.591498
O8    O     O_R   0.680360 0.500020 0.381180 -0.583307
C3    C     C_R   0.499003 0.737982 0.500704 0.876029
C4    C     C_R   0.736985 0.491034 0.498030 0.827298
C5    C     C_R   0.102968 0.455373 0.763834 -0.159901
H1    H     H_    0.182833 0.506323 0.797196 0.177835
C6    C     C_R   0.039085 0.388516 0.867016 -0.105934
H2    H     H_    0.078510 0.380390 0.969571 0.163876
C7    C     C_R   0.924338 0.335241 0.838811 0.168713
C8    C     C_R   0.870572 0.358565 0.710665 -0.134672
H3    H     H_    0.780202 0.319079 0.691536 0.150193
C9    C     C_R   0.931734 0.433785 0.609783 0.041666
C10   C     C_R   0.056141 0.467168 0.627737 0.058468
C11   C     C_R   0.126078 0.514392 0.510484 -0.219260
C12   C     C_R   0.063915 0.554158 0.391219 0.326769
H4    H     H_    0.889147 0.576800 0.299103 0.184594
C13   C     C_R   0.936899 0.538520 0.386039 -0.229966
C14   C     C_R   0.870483 0.481125 0.494709 -0.166087
C15   C     C_R   0.477540 0.066827 0.624357 0.054022
C16   C     C_R   0.480859 0.129744 0.498274 -0.121734
C17   C     C_R   0.469064 0.061884 0.372416 -0.151642
H5    H     H_    0.463400 0.107637 0.272856 0.212867
C18   C     C_R   0.471761 0.933313 0.373775 -0.132128
H6    H     H_    0.465994 0.883344 0.274878 0.178669
C19   C     C_R   0.488893 0.871422 0.500570 -0.036874
C20   C     C_R   0.487031 0.940814 0.625376 -0.022341
C21   C     C_3   0.567789 0.947391 0.751643 0.074875
C22   C     C_3   0.552729 0.086155 0.752120 0.137776
H7    H     H_    0.525173 0.902776 0.845441 0.119295
H8    H     H_    0.638483 0.141639 0.732442 0.110961
C23   C     C_R   0.601419 0.539359 0.071988 0.200942
N1    N     N_R   0.500790 0.500930 0.147930 -0.195707
C24   C     C_R   0.407252 0.444425 0.076185 0.044639
H9    H     H_    0.331327 0.400722 0.133090 0.150004
C25   C     C_R   0.407927 0.443567 0.927242 -0.009985
H10   H     H_    0.334854 0.396107 0.873106 0.161844
N2    N     N_R   0.500790 0.500890 0.852020 -0.216911
C26   C     C_R   0.603500 0.536359 0.924402 0.226888
C27   C     C_3   0.669304 0.658696 0.921061 -0.110884
C28   C     C_3   0.661617 0.662754 0.080655 -0.457492
H11   H     H_    0.614049 0.728539 0.871400 0.204378
H12   H     H_    0.751741 0.660121 0.132901 0.210920
H13   H     H_    0.598372 0.734341 0.122860 0.202108
N3    N     N_R   0.126602 0.620010 0.279894 0.133583
O9    O     O_R   0.092000 0.604918 0.150967 -0.397821
O10   O     O_R   0.203943 0.709122 0.309377 -0.349179
N4    N     N_R   0.697079 0.915726 0.724266 0.107676
O11   O     O_R   0.733962 0.864664 0.606411 -0.375306
O12   O     O_R   0.777897 0.943375 0.818573 -0.371507
N5    N     N_R   0.480690 0.129741 0.874501 0.123691
O13   O     O_R   0.535344 0.149684 0.992720 -0.393649
O14   O     O_R   0.362672 0.147295 0.867913 -0.365985
C29   C     C_3   0.802739 0.652977 0.865201 -0.629939
H14   H     H_    0.848404 0.570048 0.903129 0.218006
H15   H     H_    0.806118 0.653400 0.749128 0.265157
H16   H     H_    0.855731 0.734633 0.903090 0.278369
C30   C     C_3   0.854231 0.262598 0.948138 -0.760932
H17   H     H_    0.907529 0.254486 0.045299 0.233291
H18   H     H_    0.766132 0.308545 0.975457 0.233121
H19   H     H_    0.833784 0.168817 0.906588 0.282472

loop_
_geom_bond_atom_site_label_1
_geom_bond_atom_site_label_2
_geom_bond_distance
_ccdc_geom_bond_type
C15   C22   1.493954 S    
C1    C16   1.448824 S    
C28   H12   1.110802 S    
C24   H9    1.081113 S    
C17   C18   1.399081 A    
C11   C12   1.415643 A    
C7    C30   1.500237 S    
C21   C22   1.520675 S    
C27   C29   1.532032 S    
O4    Cu2   1.963614 S    
Cu1   N2    2.014898 S    
C23   N1    1.357213 A    
C17   H5    1.082654 S    
C19   C20   1.398040 A    
C16   C17   1.405433 A    
Cu2   O8    1.974564 S    
C30   H19   1.108243 S    
C2    C11   1.476200 S    
C29   H15   1.106226 S    
C27   H11   1.098058 S    
C5    C10   1.414790 A    
C6    H2    1.083327 S    
N4    O11   1.301780 A    
C29   H16   1.109076 S    
Cu1   Cu2   2.682000 S    
C21   H7    1.110149 S    
C9    C14   1.407796 A    
C25   H10   1.076533 S    
C12   N3    1.438627 S    
C30   H17   1.110830 S    
Cu1   O7    1.963614 S    
C24   C25   1.419565 A    
C15   C20   1.376203 A    
H4    C13   1.082508 S    
C15   C16   1.392153 A    
O3    Cu1   1.974562 S    
C22   N5    1.464423 S    
O3    C2    1.289184 A    
C26   C27   1.497847 S    
C22   H8    1.112766 S    
C23   C26   1.406351 A    
Cu2   N1    2.015243 S    
C3    C19   1.457179 S    
O2    C1    1.292765 A    
C25   N2    1.367705 A    
O4    C2    1.306873 A    
C18   C19   1.411586 A    
O7    C4    1.293457 A    
N3    O10   1.301679 A    
N4    O12   1.300505 A    
C28   H13   1.111245 S    
C12   C13   1.388167 A    
N1    C24   1.369353 A    
C8    C9    1.416121 A    
C10   C11   1.431053 A    
C6    C7    1.394327 A    
C5    H1    1.072304 S    
N2    C26   1.372470 A    
Cu1   O5    1.975335 S    
C23   C28   1.482803 S    
C18   H6    1.082895 S    
C8    H3    1.081933 S    
N5    O14   1.302436 A    
C27   C28   1.521411 S    
C30   H18   1.110527 S    
C13   C14   1.395142 A    
C5    C6    1.394445 A    
O5    C3    1.297859 A    
N3    O9    1.301614 A    
C20   C21   1.507945 S    
O1    Cu1   1.968368 S    
C4    C14   1.454895 S    
C9    C10   1.405814 A    
C21   N4    1.467374 S    
Cu2   O6    1.968369 S    
O2    Cu2   1.975336 S    
C7    C8    1.397035 A    
O8    C4    1.292660 A    
N5    O13   1.300677 A    
O1    C1    1.291689 A    
O6    C3    1.290906 A    
C29   H14   1.107947 S    
