data_mof_unit_20645.cif
_audit_creation_date              2012-12-11T15:29:47-0500
_audit_creation_method            fapswitch 2.2
_symmetry_space_group_name_H-M    P1
_symmetry_Int_Tables_number       1
_space_group_crystal_system       triclinic
_cell_length_a                    13.47014
_cell_length_b                    13.514826
_cell_length_c                    27.553709
_cell_angle_alpha                 90.424828
_cell_angle_beta                  89.639615
_cell_angle_gamma                 59.852982
_cell_volume                      4337.17467397

loop_
_atom_site_label
_atom_site_type_symbol
_atom_type_description
_atom_site_fract_x
_atom_site_fract_y
_atom_site_fract_z
_atom_type_partial_charge
C1    C     C_R   0.620096 0.101225 0.569937 0.562857
C2    C     C_1   0.645825 0.708507 0.658378 -0.035339
C3    C     C_3   0.118995 0.104073 0.740189 0.015688
C4    C     C_R   0.599545 0.779407 0.568487 0.560130
C5    C     C_3   0.216112 0.050254 0.778027 -0.139424
C6    C     C_1   0.103245 0.197198 0.901529 0.022306
C7    C     C_1   0.231919 0.136327 0.617401 0.044922
C8    C     C_3   0.058480 0.216067 0.770209 0.012844
C9    C     C_3   0.155645 0.163223 0.807512 0.035271
C10   C     C_3   0.125691 0.261836 0.741974 0.012043
C11   C     C_3   0.185484 0.150313 0.711982 0.068782
C12   C     C_1   0.629353 0.733843 0.616258 0.004935
C13   C     C_3   0.222823 0.210015 0.779682 -0.143107
C14   C     C_3   0.283453 0.097090 0.749328 -0.143650
C15   C     C_1   0.133490 0.176516 0.859768 0.000750
C16   C     C_R   0.277752 0.121632 0.569357 0.547321
C17   C     C_1   0.206355 0.143622 0.659649 0.060171
C18   C     C_3   0.554634 0.263249 0.744347 -0.105053
C19   C     C_3   0.566599 0.173220 0.782014 -0.109309
C20   C     C_1   0.691591 0.206605 0.901443 0.015873
C21   C     C_1   0.634107 0.133028 0.618042 0.003803
C22   C     C_3   0.649767 0.275377 0.770353 -0.085121
C23   C     C_3   0.590742 0.643881 0.772461 0.050857
C24   C     C_3   0.661500 0.185159 0.807168 0.058845
C25   C     C_3   0.742424 0.178701 0.737840 -0.095572
C26   C     C_3   0.647709 0.166789 0.712662 0.047423
C27   C     C_3   0.754408 0.088784 0.775374 -0.094041
C28   C     C_R   0.599929 0.070587 0.425735 0.545110
C29   C     C_3   0.659424 0.076578 0.749465 -0.106123
C30   C     C_1   0.674116 0.195720 0.859435 -0.020112
C31   C     C_1   0.641323 0.151877 0.660288 -0.037981
C32   C     C_R   0.639203 0.728086 0.381411 0.041444
C33   C     C_R   0.699227 0.769481 0.354139 -0.150796
C34   C     C_3   0.672241 0.661142 0.805403 0.067833
C35   C     C_R   0.707299 0.757602 0.304304 -0.129518
C36   C     C_R   0.657653 0.702034 0.280653 0.018162
C37   C     C_R   0.606011 0.651764 0.307573 -0.149924
C38   C     C_R   0.597517 0.662645 0.358151 0.000026
C39   C     C_R   0.766886 0.661157 0.203451 -0.121588
C40   C     C_R   0.602502 0.776732 0.430285 0.577843
C41   C     C_R   0.777978 0.634091 0.154371 -0.127795
C42   C     C_R   0.578734 0.681039 0.152737 -0.111253
C43   C     C_R   0.567565 0.708653 0.201804 -0.099484
C44   C     C_R   0.663309 0.692927 0.227808 0.033614
C45   C     C_3   0.557700 0.757009 0.746720 -0.125886
C46   C     C_R   0.685969 0.637101 0.129506 0.017399
C47   C     C_R   0.226325 0.137856 0.383637 0.021916
C48   C     C_R   0.257271 0.042291 0.353514 -0.128536
C49   C     C_R   0.228269 0.057094 0.304933 -0.133463
C50   C     C_R   0.164887 0.167477 0.286299 0.007970
C51   C     C_R   0.130327 0.263315 0.316530 -0.121975
C52   C     C_R   0.279454 0.120065 0.431028 0.527733
C53   C     C_R   0.161456 0.248562 0.365106 -0.126034
C54   C     C_R   0.175948 0.243229 0.206788 -0.129036
C55   C     C_R   0.152056 0.259173 0.157529 -0.133326
C56   C     C_3   0.657604 0.688982 0.710635 0.037032
C57   C     C_R   0.058638 0.145860 0.163077 -0.089081
C58   C     C_R   0.077654 0.133133 0.212878 0.021371
C59   C     C_R   0.137909 0.181926 0.234720 -0.005651
C60   C     C_R   0.092419 0.211341 0.135530 -0.006237
C61   C     C_R   0.607034 0.093492 0.374288 0.019345
C62   C     C_R   0.713598 0.051271 0.350656 -0.130676
C63   C     C_R   0.718140 0.075398 0.302012 -0.124339
C64   C     C_3   0.689161 0.575956 0.735688 -0.107788
C65   C     C_R   0.616517 0.140709 0.276273 0.006294
C66   C     C_R   0.510050 0.178666 0.299062 -0.130436
C67   C     C_3   0.640451 0.774178 0.780140 -0.133461
C68   C     C_R   0.505376 0.156016 0.347984 -0.128910
C69   C     C_R   0.684396 0.079299 0.192627 -0.103671
C70   C     C_R   0.710019 0.100258 0.146316 -0.108624
C71   C     C_R   0.605850 0.304098 0.163684 -0.092092
C72   C     C_R   0.582060 0.284266 0.211116 0.027543
C73   C     C_R   0.623710 0.169809 0.225708 -0.004492
C74   C     C_R   0.673507 0.212407 0.132044 -0.007849
C75   C     C_R   0.051387 0.234099 0.948455 0.556166
C76   C     C_3   0.771626 0.593458 0.769079 -0.095587
C77   C     C_R   0.711729 0.562526 0.946616 0.553919
C78   C     C_3   0.739928 0.706827 0.743119 -0.105511
C79   C     C_R   0.722640 0.224119 0.949086 0.553740
C80   C     C_R   0.046114 0.244384 0.086760 0.537321
C81   C     C_R   0.708139 0.573442 0.083956 0.538200
C82   C     C_R   0.718789 0.232906 0.087192 0.535099
C83   C     C_1   0.695764 0.610474 0.899285 0.032119
C84   C     C_2   0.076021 0.381253 0.723457 0.208356
C85   C     C_2   0.931471 0.282992 0.779731 0.185055
C86   C     C_2   0.546646 0.603290 0.384626 0.239157
C87   C     C_2   0.027001 0.076241 0.241732 0.205741
C88   C     C_2   0.522678 0.382629 0.245608 0.203281
C89   C     C_1   0.684135 0.638868 0.857498 0.012722
C90   C     C_2   0.505323 0.609307 0.787134 0.203514
C91   C     C_2   0.060918 0.043561 0.719687 0.204609
Cr1   Cr    Cr6+3 0.417550 0.169090 0.500530 1.049513
Cr2   Cr    Cr6+3 0.669180 0.913420 0.499920 1.039639
Cr3   Cr    Cr6+3 0.413260 0.917540 0.499520 1.063491
Cr4   Cr    Cr6+3 0.909770 0.175810 0.018240 1.040123
Cr5   Cr    Cr6+3 0.913300 0.427650 0.016090 1.031934
Cr6   Cr    Cr6+3 0.657770 0.431010 0.016900 1.052336
H1    H     H_    0.859165 0.526741 0.779541 0.121359
H2    H     H_    0.485975 0.736652 0.219963 0.130022
H3    H     H_    0.309879 0.955967 0.366687 0.139251
H4    H     H_    0.222871 0.280115 0.223414 0.118157
H5    H     H_    0.177621 0.310868 0.136952 0.134199
H6    H     H_    0.801979 0.732441 0.730277 0.124230
H7    H     H_    0.256957 0.982539 0.281590 0.120509
H8    H     H_    0.081360 0.349011 0.302259 0.119465
H9    H     H_    0.138231 0.323103 0.387739 0.136632
H10   H     H_    0.793339 0.001469 0.369837 0.141473
H11   H     H_    0.716551 0.991560 0.203546 0.123742
H12   H     H_    0.265804 0.253629 0.796228 0.108075
H13   H     H_    0.762043 0.028489 0.122245 0.136121
H14   H     H_    0.800971 0.044808 0.284576 0.159110
H15   H     H_    0.579266 0.390613 0.152579 0.175231
H16   H     H_    0.431039 0.227428 0.279222 0.113433
H17   H     H_    0.422409 0.187268 0.365275 0.137557
H18   H     H_    0.469251 0.823719 0.736984 0.107343
H19   H     H_    0.253689 0.962923 0.793147 0.120208
H20   H     H_    0.376599 0.048223 0.740343 0.109143
H21   H     H_    0.048576 0.451870 0.748969 0.094924
H22   H     H_    0.873392 0.317377 0.749443 0.096457
H23   H     H_    0.494653 0.170614 0.800646 0.104343
H24   H     H_    0.836494 0.016922 0.788696 0.110702
H25   H     H_    0.813575 0.181428 0.718653 0.126619
H26   H     H_    0.861361 0.601335 0.137150 0.136552
H27   H     H_    0.748117 0.796272 0.284100 0.116351
H28   H     H_    0.505951 0.685949 0.134010 0.144068
H29   H     H_    0.573253 0.603153 0.289055 0.140383
H30   H     H_    0.495154 0.575111 0.365219 0.106350
H31   H     H_    0.024485 0.081033 0.281043 0.121595
H32   H     H_    0.009445 0.111521 0.146436 0.186701
H33   H     H_    0.516910 0.369053 0.283969 0.121755
H34   H     H_    0.472644 0.335132 0.730962 0.120751
H35   H     H_    0.620371 0.855406 0.798736 0.105289
H36   H     H_    0.452724 0.600534 0.759727 0.098489
H37   H     H_    0.018847 0.012867 0.743954 0.100209
H38   H     H_    0.663494 0.994496 0.740210 0.106141
H39   H     H_    0.646408 0.357089 0.779568 0.149559
H40   H     H_    0.732873 0.819290 0.370763 0.137775
H41   H     H_    0.708275 0.495173 0.716963 0.103682
H42   H     H_    0.841604 0.649251 0.222959 0.112871
O1    O     O_R   0.301780 0.195490 0.553940 -0.492710
O2    O     O_R   0.636050 0.541380 0.962520 -0.483358
O3    O     O_R   0.666480 0.323610 0.968170 -0.483525
O4    O     O_R   0.522450 0.158840 0.550250 -0.486512
O5    O     O_R   0.817280 0.156800 0.072180 -0.514026
O6    O     O_R   0.005110 0.187160 0.067410 -0.509397
O7    O     O_R   0.026450 0.340060 0.069950 -0.515078
O8    O     O_R   0.808300 0.527240 0.065170 -0.506198
O9    O     O_R   0.634070 0.548770 0.069460 -0.520017
O10   O     O_R   0.664650 0.330470 0.067300 -0.505559
O11   O     O_3   0.826940 0.344820 0.017080 -0.248079
O12   O     O_R   0.658840 0.818280 0.449970 -0.531250
O13   O     O_R   0.694460 0.003360 0.553820 -0.491749
O14   O     O_R   0.657750 0.819520 0.549120 -0.491362
O15   O     O_R   0.501990 0.803120 0.552700 -0.488275
O16   O     O_R   0.318230 0.023430 0.549370 -0.490613
O17   O     O_R   0.302950 0.194150 0.446980 -0.528002
O18   O     O_R   0.523540 0.157600 0.451100 -0.483343
O19   O     O_R   0.695630 0.002030 0.446860 -0.514703
O20   O     O_2   0.067191 0.399688 0.679976 -0.491330
O21   O     O_2   0.892882 0.299289 0.821040 -0.512858
O22   O     O_2   0.565606 0.580452 0.427566 -0.473266
O23   O     O_R   0.503160 0.801780 0.445740 -0.471436
O24   O     O_2   0.985858 0.024192 0.221837 -0.531412
O25   O     O_2   0.479952 0.481062 0.231567 -0.538648
O26   O     O_2   0.494552 0.590573 0.829518 -0.493458
O27   O     O_2   0.060525 0.028471 0.676002 -0.494748
O28   O     O_R   0.319320 0.022190 0.450230 -0.505851
O29   O     O_3   0.499990 0.000010 0.499990 -0.287064
O30   O     O_R   0.819250 0.149410 0.965240 -0.506238
O31   O     O_R   0.006940 0.180310 0.968270 -0.487621
O32   O     O_R   0.028420 0.332670 0.963010 -0.504554
O33   O     O_R   0.810130 0.520390 0.966030 -0.498226

loop_
_geom_bond_atom_site_label_1
_geom_bond_atom_site_label_2
_ccdc_geom_bond_type
C87   O24   D    
C63   C65   A    
C1    C21   S    
C23   C45   S    
C66   H16   S    
C27   C29   S    
C54   H4    S    
C66   C68   A    
C67   H35   S    
Cr4   O6    S    
C24   C27   S    
C88   H33   S    
C2    C12   T    
C58   C87   S    
C49   H7    S    
C27   H24   S    
C56   C78   S    
C6    C75   S    
C39   C41   A    
C64   H41   S    
C5    C9    S    
C21   C31   T    
C55   H5    S    
C62   C63   A    
C38   C86   S    
C50   C59   S    
C57   H32   S    
C35   H27   S    
C76   C78   S    
C4    O15   A    
C18   C19   S    
C69   C70   A    
C52   O28   A    
C11   C14   S    
C79   O3    A    
C77   C83   S    
C76   H1    S    
C65   C73   S    
C1    O13   A    
C3    C91   S    
C8    C85   S    
C42   C46   A    
C91   O27   D    
C85   H22   S    
Cr1   O4    S    
C9    C13   S    
C13   H12   S    
C70   H13   S    
C42   H28   S    
C6    C15   T    
C53   H9    S    
C84   O20   D    
C60   C80   S    
C35   C36   A    
C45   C56   S    
C33   H40   S    
C8    C9    S    
C7    C17   T    
Cr5   O32   S    
C18   C26   S    
C70   C74   A    
Cr6   O11   S    
C56   C64   S    
C69   C73   A    
C85   O21   D    
C32   C38   A    
C4    C12   S    
C25   H25   S    
Cr3   O23   S    
C36   C44   S    
Cr3   O15   S    
C47   C53   A    
C28   C61   S    
C14   H20   S    
C80   O7    A    
C4    O14   A    
C78   H6    S    
C26   C31   S    
C55   C60   A    
C18   H34   S    
C16   O1    A    
C67   C78   S    
C16   O16   A    
C48   H3    S    
C87   H31   S    
C72   C88   S    
C69   H11   S    
C24   C30   S    
C54   C59   A    
C83   C89   T    
C39   H42   S    
C23   C64   S    
Cr2   O29   S    
C72   C73   A    
C82   O5    A    
C3    C8    S    
Cr3   O29   S    
Cr4   O11   S    
C90   H36   S    
Cr3   O16   S    
C57   C60   A    
C20   C30   T    
C62   H10   S    
C81   O8    A    
C25   C26   S    
C88   O25   D    
C22   C25   S    
C40   O12   A    
C22   H39   S    
Cr1   O18   S    
C51   C53   A    
Cr3   O28   S    
C47   C52   S    
C43   C44   A    
C40   O23   A    
C37   C38   A    
C1    O4    A    
C46   C81   S    
Cr1   O29   S    
C47   C48   A    
C41   C46   A    
C81   O9    A    
Cr5   O11   S    
C71   H15   S    
C75   O31   A    
C28   O19   A    
C50   C51   A    
C64   C76   S    
C23   C90   S    
Cr1   O17   S    
C86   O22   D    
Cr4   O30   S    
Cr6   O2    S    
C5    C14   S    
C39   C44   A    
C8    C10   S    
C80   O6    A    
C29   H38   S    
C19   H23   S    
C49   C50   A    
C90   O26   D    
C75   O32   A    
Cr6   O9    S    
C22   C24   S    
Cr2   O12   S    
C52   O17   A    
C42   C43   A    
Cr2   O19   S    
C19   C29   S    
C37   H29   S    
C74   C82   S    
Cr6   O3    S    
Cr5   O8    S    
C54   C55   A    
C36   C37   A    
C23   C34   S    
C20   C79   S    
C86   H30   S    
C18   C22   S    
C7    C16   S    
C43   H2    S    
C45   H18   S    
C3    C5    S    
C10   C13   S    
C11   C17   S    
C34   C67   S    
C71   C74   A    
C45   C67   S    
C25   C27   S    
Cr5   O7    S    
C32   C33   A    
C41   H26   S    
Cr2   O14   S    
C19   C24   S    
C58   C59   A    
C34   C89   S    
C71   C72   A    
C5    H19   S    
C2    C56   S    
C61   C68   A    
C79   O30   A    
C57   C58   A    
C91   H37   S    
C77   O33   A    
C48   C49   A    
C10   C84   S    
C28   O18   A    
C33   C35   A    
C32   C40   S    
C63   H14   S    
C61   C62   A    
Cr4   O31   S    
C77   O2    A    
C51   H8    S    
C82   O10   A    
C3    C11   S    
C10   C11   S    
Cr4   O5    S    
C26   C29   S    
C84   H21   S    
C65   C66   A    
Cr5   O33   S    
C68   H17   S    
Cr6   O10   S    
Cr2   O13   S    
C13   C14   S    
C9    C15   S    
C34   C76   S    
Cr1   O1    S    
