data_mof_unit_46477.cif
_audit_creation_date              2012-10-26T19:31:21-0400
_audit_creation_method            fapswitch 2.2
_symmetry_space_group_name_H-M    P1
_symmetry_Int_Tables_number       1
_space_group_crystal_system       triclinic
_cell_length_a                    14.638991
_cell_length_b                    15.924012
_cell_length_c                    16.278085
_cell_angle_alpha                 90.077576
_cell_angle_beta                  86.421361
_cell_angle_gamma                 89.98108
_cell_volume                      3787.20527217

loop_
_atom_site_label
_atom_site_type_symbol
_atom_type_description
_atom_site_fract_x
_atom_site_fract_y
_atom_site_fract_z
_atom_type_partial_charge
C1    C     C_R   0.500010 0.660373 0.499909 0.543805
C2    C     C_3   0.585128 0.027858 0.480678 -0.036380
C3    C     C_3   0.500029 0.916113 0.499235 0.052278
C4    C     C_3   0.500119 0.083751 0.499159 0.052268
C5    C     C_1   0.500006 0.824757 0.499413 0.122623
C6    C     C_1   0.500104 0.175147 0.499338 0.123519
C7    C     C_3   0.032789 0.423504 0.475761 -0.160846
C8    C     C_3   0.967195 0.576812 0.524452 -0.157945
C9    C     C_3   0.965317 0.442445 0.550729 0.216061
C10   C     C_3   0.034681 0.557872 0.449492 0.220041
C11   C     C_3   0.975428 0.483604 0.424009 -0.008150
C12   C     C_R   0.500005 0.339604 0.499904 0.544736
C13   C     C_3   0.024572 0.516721 0.576207 -0.015819
C14   C     C_3   0.907859 0.500918 0.499209 0.012238
C15   C     C_3   0.092133 0.499390 0.501001 0.010911
C16   C     C_R   0.488270 0.499495 0.654019 0.551249
C17   C     C_R   0.511526 0.502074 0.346531 0.603147
C18   C     C_1   0.805612 0.500356 0.499792 0.274706
C19   C     C_1   0.194383 0.499787 0.500311 0.268234
C20   C     C_R   0.480860 0.510585 0.746115 -0.004558
C21   C     C_R   0.515973 0.519912 0.256344 0.057637
C22   C     C_R   0.559141 0.528580 0.789514 0.234694
C23   C     C_3   0.444334 0.027892 0.443070 -0.036174
C24   C     C_R   0.447859 0.488207 0.207524 0.222567
C25   C     C_R   0.549247 0.565891 0.869175 -0.011305
C26   C     C_R   0.433925 0.525177 0.129699 -0.004448
C27   C     C_R   0.461089 0.583878 0.905726 -0.188675
C28   C     C_R   0.492200 0.590390 0.098728 -0.170785
C29   C     C_R   0.382945 0.555304 0.866114 -0.001055
C30   C     C_R   0.570127 0.611599 0.142502 -0.030772
C31   C     C_R   0.393851 0.513275 0.789515 0.225797
C32   C     C_R   0.579460 0.578900 0.222819 0.224689
C33   C     C_2   0.448259 0.657983 0.962932 0.260369
C34   C     C_3   0.555816 0.971961 0.555306 -0.037630
C35   C     C_2   0.454519 0.658591 0.046106 0.257945
C36   C     C_2   0.047677 0.533892 0.662920 0.282924
C37   C     C_2   0.952368 0.466579 0.337262 0.278901
C38   C     C_2   0.289068 0.575223 0.902785 0.324066
C39   C     C_2   0.638247 0.672817 0.105959 0.256307
C40   C     C_2   0.353865 0.500884 0.084326 0.230008
C41   C     C_2   0.630689 0.594576 0.910484 0.245314
C42   C     C_2   0.562406 0.943035 0.340146 0.237029
C43   C     C_2   0.437668 0.056565 0.658258 0.235793
C44   C     C_2   0.381229 0.056190 0.379524 0.235275
C45   C     C_3   0.529337 0.971718 0.424597 -0.034000
C46   C     C_2   0.618907 0.943670 0.618877 0.238304
C47   C     C_2   0.681424 0.056109 0.459724 0.237207
C48   C     C_2   0.318734 0.943716 0.538644 0.238051
C49   C     C_3   0.470812 0.028101 0.573776 -0.035832
C50   C     C_1   0.500003 0.749582 0.499637 0.082063
C51   C     C_1   0.500060 0.250347 0.499600 0.084212
C52   C     C_3   0.415029 0.971988 0.517695 -0.037145
Cu1   Cu    Cu3+1 0.409780 0.500000 0.499990 1.117102
Cu2   Cu    Cu3+1 0.590220 0.500000 0.500010 1.150097
H1    H     H_    0.057965 0.360168 0.456863 0.146435
H2    H     H_    0.421470 0.726284 0.867991 0.339486
H3    H     H_    0.280198 0.605115 0.962625 0.139388
H4    H     H_    0.619228 0.717180 0.059507 0.160957
H5    H     H_    0.363298 0.483210 0.020300 0.092139
H6    H     H_    0.637548 0.578714 0.974230 0.110531
H7    H     H_    0.580977 0.989204 0.293132 0.142267
H8    H     H_    0.419264 0.010278 0.705206 0.143678
H9    H     H_    0.346122 0.009816 0.344211 0.141277
H10   H     H_    0.654080 0.990052 0.654126 0.140829
H11   H     H_    0.734916 0.009709 0.448062 0.136837
H12   H     H_    0.942011 0.640147 0.543346 0.150379
H13   H     H_    0.265228 0.990106 0.550285 0.135923
H14   H     H_    0.981201 0.353086 0.627303 0.342941
H15   H     H_    0.018809 0.647265 0.372949 0.348152
H16   H     H_    0.688713 0.501875 0.794055 0.359087
H17   H     H_    0.366748 0.392642 0.194139 0.363135
H18   H     H_    0.993137 0.543864 0.710120 0.151027
H19   H     H_    0.006926 0.456182 0.290170 0.153005
H20   H     H_    0.651027 0.670646 0.263511 0.370445
H21   H     H_    0.337789 0.426911 0.726082 0.335537
H22   H     H_    0.431414 0.725592 0.145739 0.335966
N1    N     N_1   0.725810 0.500000 0.500030 -0.146341
N2    N     N_1   0.274190 0.500000 0.499970 -0.152419
O1    O     O_R   0.423830 0.620920 0.499990 -0.482131
O2    O     O_3   0.393664 0.423483 0.239567 -0.642910
O3    O     O_2   0.127268 0.536760 0.680922 -0.405790
O4    O     O_2   0.872804 0.464377 0.319093 -0.439729
O5    O     O_3   0.644633 0.609440 0.272929 -0.615422
O6    O     O_3   0.317873 0.478148 0.756904 -0.568957
O7    O     O_3   0.428583 0.732941 0.085449 -0.595231
O8    O     O_3   0.420771 0.732801 0.928646 -0.590400
O9    O     O_2   0.220319 0.559708 0.866799 -0.359443
O10   O     O_2   0.717943 0.671529 0.124051 -0.421109
O11   O     O_2   0.277180 0.499911 0.118437 -0.439127
O12   O     O_R   0.576170 0.379080 0.500010 -0.483313
O13   O     O_2   0.690137 0.636120 0.873641 -0.426479
O14   O     O_2   0.568597 0.868375 0.323829 -0.491655
O15   O     O_2   0.431206 0.131180 0.674669 -0.482215
O16   O     O_2   0.369017 0.130776 0.367179 -0.470390
O17   O     O_2   0.631026 0.869088 0.631321 -0.464942
O18   O     O_2   0.700156 0.130685 0.455671 -0.462692
O19   O     O_2   0.300019 0.869136 0.542717 -0.460515
O20   O     O_3   0.928005 0.381651 0.604864 -0.650549
O21   O     O_3   0.072000 0.618669 0.395362 -0.642183
O22   O     O_R   0.576200 0.620920 0.500000 -0.485569
O23   O     O_R   0.423800 0.379080 0.500000 -0.494421
O24   O     O_R   0.414980 0.500010 0.613590 -0.485041
O25   O     O_R   0.585020 0.499990 0.386410 -0.441246
O26   O     O_R   0.567350 0.500010 0.613600 -0.430550
O27   O     O_R   0.432650 0.499990 0.386400 -0.458284
O28   O     O_3   0.644276 0.511349 0.751635 -0.631019

loop_
_geom_bond_atom_site_label_1
_geom_bond_atom_site_label_2
_ccdc_geom_bond_type
C8    H12   S    
C9    O20   S    
C23   C45   S    
C27   C29   A    
C14   C18   S    
C7    H1    S    
H20   O5    S    
C9    C14   S    
Cu1   Cu2   S    
C27   C33   S    
C15   C19   S    
C48   O19   D    
C8    C13   S    
C12   O12   A    
Cu1   O1    S    
C24   C26   A    
Cu2   O12   S    
C10   C15   S    
C11   C14   S    
H21   O6    S    
C11   C37   S    
C9    C13   S    
C33   C35   D    
C16   O26   A    
C46   O17   D    
C28   C35   S    
Cu1   O23   S    
C22   C25   A    
C29   C38   S    
C47   O18   D    
C34   C46   S    
C40   O11   D    
C1    C50   S    
C36   O3    D    
Cu2   N1    S    
C2    C34   S    
C7    C15   S    
C2    C45   S    
C40   H5    S    
Cu2   O22   S    
C39   O10   D    
C1    O22   A    
H17   O2    S    
C24   O2    S    
C7    C11   S    
C44   H9    S    
C21   C32   A    
Cu2   O25   S    
C13   C36   S    
C4    C6    S    
H16   O28   S    
C25   C41   S    
C4    C23   S    
C43   C49   S    
C3    C34   S    
C22   O28   S    
C39   H4    S    
C3    C45   S    
C17   C21   S    
C31   O6    S    
C46   H10   S    
C42   C45   S    
C19   N2    T    
C2    C4    S    
C33   O8    S    
C17   O27   A    
C38   H3    S    
H2    O8    S    
Cu1   O24   S    
C16   C20   S    
C49   C52   S    
C42   H7    S    
H15   O21   S    
C16   O24   A    
C41   O13   D    
C20   C22   A    
C13   C15   S    
C6    C51   T    
C5    C50   T    
C12   C51   S    
Cu2   O26   S    
C7    C9    S    
C32   O5    S    
C37   H19   S    
C34   C49   S    
C8    C14   S    
C41   H6    S    
C3    C5    S    
C3    C52   S    
C2    C47   S    
C25   C27   A    
C4    C49   S    
C26   C28   A    
C38   O9    D    
C28   C30   A    
Cu1   N2    S    
C17   O25   A    
C12   O23   A    
C29   C31   A    
C30   C32   A    
C35   O7    S    
C26   C40   S    
C23   C52   S    
C18   N1    T    
C1    O1    A    
C43   O15   D    
C30   C39   S    
C42   O14   D    
C48   H13   S    
C10   O21   S    
C37   O4    D    
H14   O20   S    
C44   O16   D    
C10   C11   S    
C23   C44   S    
Cu1   O27   S    
C48   C52   S    
C8    C10   S    
C21   C24   A    
H22   O7    S    
C47   H11   S    
C36   H18   S    
C43   H8    S    
C20   C31   A    
