data_mof_unit_52435.cif
_audit_creation_date              2012-12-11T16:51:33-0500
_audit_creation_method            fapswitch 2.2
_symmetry_space_group_name_H-M    P1
_symmetry_Int_Tables_number       1
_space_group_crystal_system       triclinic
_cell_length_a                    24.512838
_cell_length_b                    17.226868
_cell_length_c                    15.63683
_cell_angle_alpha                 89.879652
_cell_angle_beta                  129.245048
_cell_angle_gamma                 90.653167
_cell_volume                      5113.31842372

loop_
_atom_site_label
_atom_site_type_symbol
_atom_type_description
_atom_site_fract_x
_atom_site_fract_y
_atom_site_fract_z
_atom_type_partial_charge
C1    C     C_R   0.833368 0.889550 0.199839 -0.126910
C2    C     C_R   0.166622 0.888882 0.796431 -0.096587
C3    C     C_R   0.334975 0.381808 0.209247 -0.089955
C4    C     C_R   0.650930 0.361398 0.766306 -0.136983
C5    C     C_R   0.881987 0.099701 0.587843 0.551243
C6    C     C_R   0.092275 0.142096 0.409377 0.468990
C7    C     C_R   0.389045 0.616430 0.589909 0.538272
C8    C     C_R   0.618364 0.598315 0.411458 0.573241
C9    C     C_R   0.814589 0.118611 0.494083 -0.009621
C10   C     C_R   0.142057 0.186610 0.501453 0.031423
C11   C     C_R   0.328891 0.649405 0.498304 0.007906
C12   C     C_R   0.686372 0.616575 0.504377 -0.028857
C13   C     C_R   0.852348 0.124401 0.136248 -0.211712
C14   C     C_R   0.135925 0.159965 0.833148 -0.210356
C15   C     C_R   0.374221 0.673361 0.187827 -0.220346
C16   C     C_R   0.624163 0.679002 0.803727 -0.215576
C17   C     C_R   0.849389 0.723021 0.612828 0.109391
C18   C     C_R   0.205992 0.814901 0.395473 0.099648
C19   C     C_R   0.282268 0.335117 0.604025 0.089152
C20   C     C_R   0.655714 0.227897 0.387837 0.105470
C21   C     C_R   0.837712 0.738351 0.514250 -0.093624
C22   C     C_R   0.234893 0.855106 0.492976 -0.067264
C23   C     C_R   0.259849 0.366752 0.504620 -0.073199
C24   C     C_R   0.671447 0.247077 0.488493 -0.086965
C25   C     C_R   0.794046 0.686615 0.424630 0.140834
C26   C     C_R   0.301138 0.833683 0.590971 0.152587
C27   C     C_R   0.188690 0.357275 0.409019 0.170664
C28   C     C_R   0.716029 0.197229 0.579621 0.133715
C29   C     C_R   0.147074 0.302065 0.410648 -0.232472
C30   C     C_R   0.754347 0.141004 0.573446 -0.198313
C31   C     C_R   0.748894 0.635707 0.425519 -0.192929
C32   C     C_R   0.328267 0.762183 0.593599 -0.240776
C33   C     C_R   0.175665 0.258270 0.506022 0.019088
C34   C     C_R   0.752983 0.139982 0.482548 0.007999
C35   C     C_R   0.748396 0.637501 0.515096 0.005791
C36   C     C_R   0.293188 0.715778 0.497811 0.032231
C37   C     C_R   0.241648 0.278606 0.604641 0.027794
C38   C     C_R   0.696431 0.175309 0.385091 0.036023
C39   C     C_R   0.805756 0.672523 0.613419 0.023444
C40   C     C_R   0.232834 0.744035 0.397757 0.023839
C41   C     C_3   0.808760 0.721014 0.696512 -0.085663
C42   C     C_3   0.224564 0.764127 0.296493 -0.127713
C43   C     C_3   0.253984 0.315798 0.702358 -0.124375
C44   C     C_3   0.693350 0.221630 0.300152 -0.108882
C45   C     C_R   0.113566 0.899050 0.407542 -0.153279
C46   C     C_R   0.915198 0.855710 0.593559 -0.164092
C47   C     C_R   0.589205 0.359248 0.405981 -0.157108
C48   C     C_R   0.385179 0.398722 0.591118 -0.168803
C49   C     C_3   0.856245 0.777073 0.694781 0.220548
C50   C     C_3   0.200748 0.843797 0.300321 0.243238
C51   C     C_3   0.294170 0.379962 0.696517 0.259502
C52   C     C_3   0.648162 0.279266 0.303105 0.232800
C53   C     C_2   0.197474 0.842800 0.975151 -0.219398
C54   C     C_2   0.808405 0.841052 0.024744 -0.234444
C55   C     C_2   0.641626 0.255296 0.868410 -0.231688
C56   C     C_2   0.305419 0.320817 0.040971 -0.170437
C57   C     C_2   0.267217 0.849889 0.031718 -0.144202
C58   C     C_2   0.739145 0.854475 0.958441 -0.140027
C59   C     C_2   0.694338 0.216698 0.886381 -0.119339
C60   C     C_2   0.237856 0.342982 0.975292 -0.193519
C61   C     C_2   0.800973 0.146179 0.020745 0.522611
C62   C     C_2   0.174291 0.219573 0.919120 0.597129
C63   C     C_2   0.340855 0.736799 0.107125 0.567993
C64   C     C_2   0.655621 0.748161 0.876572 0.524172
C65   C     C_2   0.756429 0.201988 0.999404 0.151690
C66   C     C_2   0.181319 0.290822 0.890394 0.091678
C67   C     C_2   0.315682 0.798837 0.124749 0.124879
C68   C     C_2   0.690981 0.802208 0.864796 0.144100
C69   C     C_R   0.187906 0.897753 0.591118 -0.107167
C70   C     C_R   0.837312 0.855293 0.409637 -0.106712
C71   C     C_R   0.669214 0.362681 0.589584 -0.115925
C72   C     C_R   0.311335 0.397539 0.408014 -0.103081
C73   C     C_R   0.078312 0.892246 0.803292 -0.183277
C74   C     C_R   0.925080 0.888890 0.200882 -0.162459
C75   C     C_R   0.556967 0.362084 0.760758 -0.141585
C76   C     C_R   0.423427 0.384482 0.201877 -0.184352
C77   C     C_R   0.854587 0.868668 0.139287 0.176966
C78   C     C_R   0.148199 0.870510 0.861121 0.180957
C79   C     C_R   0.354777 0.357679 0.148846 0.165918
C80   C     C_R   0.615511 0.321257 0.796199 0.156360
C81   C     C_R   0.182186 0.884678 0.498497 0.101047
C82   C     C_R   0.863193 0.811916 0.503938 0.099640
C83   C     C_R   0.644671 0.319497 0.496091 0.100784
C84   C     C_R   0.315950 0.385288 0.499725 0.114181
C85   C     C_R   0.811828 0.103298 0.405858 -0.259161
C86   C     C_R   0.163479 0.143324 0.591989 -0.280990
C87   C     C_R   0.317781 0.618600 0.407575 -0.264144
C88   C     C_R   0.689228 0.601004 0.592899 -0.212048
C89   C     C_R   0.921124 0.102177 0.194578 0.472791
C90   C     C_R   0.070653 0.126912 0.784813 0.391678
C91   C     C_R   0.435399 0.634682 0.227981 0.382855
C92   C     C_R   0.564107 0.637450 0.768167 0.380968
C93   C     C_R   0.161977 0.123170 0.788401 0.410589
C94   C     C_R   0.833037 0.105252 0.199028 0.421168
C95   C     C_R   0.654449 0.636592 0.768766 0.451004
C96   C     C_R   0.344190 0.632878 0.225317 0.439738
H1    H     H_    0.780041 0.890431 0.171089 0.112846
H2    H     H_    0.218302 0.887730 0.818876 0.104689
H3    H     H_    0.283001 0.378326 0.185928 0.111736
H4    H     H_    0.702919 0.349656 0.794099 0.098369
H5    H     H_    0.093546 0.291656 0.336396 0.187854
H6    H     H_    0.790488 0.105632 0.644791 0.207924
H7    H     H_    0.711676 0.600066 0.353909 0.203841
H8    H     H_    0.378581 0.745029 0.669441 0.198918
H9    H     H_    0.757367 0.747057 0.662766 0.103355
H10   H     H_    0.275701 0.765149 0.313277 0.124578
H11   H     H_    0.204563 0.336123 0.683119 0.080292
H12   H     H_    0.745093 0.247090 0.332078 0.092687
H13   H     H_    0.832595 0.835095 0.660014 0.050449
H14   H     H_    0.238985 0.891711 0.323793 0.052736
H15   H     H_    0.267354 0.437171 0.669826 0.064370
H16   H     H_    0.673042 0.337774 0.335809 0.046406
H17   H     H_    0.288732 0.882617 0.999631 0.155288
H18   H     H_    0.716835 0.891540 0.985118 0.170889
H19   H     H_    0.700050 0.214500 0.823298 0.158294
H20   H     H_    0.222790 0.397470 0.989624 0.138889
H21   H     H_    0.176894 0.809947 0.008767 0.139554
H22   H     H_    0.830361 0.803335 0.997950 0.143943
H23   H     H_    0.629836 0.251779 0.924567 0.135552
H24   H     H_    0.321184 0.268198 0.024063 0.170721
H25   H     H_    0.092153 0.902426 0.322413 0.160554
H26   H     H_    0.948613 0.839392 0.678814 0.173909
H27   H     H_    0.557009 0.342816 0.320639 0.170246
H28   H     H_    0.405664 0.404125 0.675506 0.160992
H29   H     H_    0.234891 0.898456 0.676511 0.127740
H30   H     H_    0.795474 0.839387 0.324777 0.131851
H31   H     H_    0.716314 0.353657 0.672610 0.122000
H32   H     H_    0.264429 0.399897 0.322782 0.128517
H33   H     H_    0.051232 0.895603 0.837168 0.117797
H34   H     H_    0.955233 0.889567 0.172087 0.116867
H35   H     H_    0.520235 0.349062 0.775325 0.115405
H36   H     H_    0.450315 0.384664 0.167576 0.121230
H37   H     H_    0.764659 0.096700 0.322009 0.181169
H38   H     H_    0.203674 0.159967 0.675910 0.202556
H39   H     H_    0.270209 0.621130 0.324003 0.195382
H40   H     H_    0.736935 0.590460 0.674815 0.170478
N1    N     N_R   0.888400 0.921830 0.294620 -0.050867
N2    N     N_R   0.111600 0.921830 0.705380 -0.049358
N3    N     N_R   0.388400 0.421830 0.294620 -0.051136
N4    N     N_R   0.611600 0.421830 0.705380 -0.044623
N5    N     N_R   0.079940 0.922160 0.443410 -0.045986
N6    N     N_R   0.920060 0.922160 0.556590 -0.055487
N7    N     N_R   0.579940 0.422160 0.443410 -0.053367
N8    N     N_R   0.420060 0.422160 0.556590 -0.046221
N9    N     N_R   0.125650 0.922400 0.556620 -0.042681
N10   N     N_R   0.874350 0.922400 0.443380 -0.047007
N11   N     N_R   0.625650 0.422400 0.556620 -0.042713
N12   N     N_R   0.374350 0.422400 0.443380 -0.041151
N13   N     N_R   0.054230 0.922730 0.705400 -0.047584
N14   N     N_R   0.945770 0.922730 0.294600 -0.048528
N15   N     N_R   0.554230 0.422730 0.705400 -0.046977
N16   N     N_R   0.445770 0.422730 0.294600 -0.045884
N17   N     N_R   0.873790 0.077030 0.443380 -0.067681
N18   N     N_R   0.126210 0.077030 0.556620 -0.064483
N19   N     N_R   0.373790 0.577030 0.443380 -0.066146
N20   N     N_R   0.626210 0.577030 0.556620 -0.070257
N21   N     N_R   0.945200 0.076700 0.294600 -0.132342
N22   N     N_R   0.054800 0.076700 0.705400 -0.119211
N23   N     N_R   0.445200 0.576700 0.294600 -0.123547
N24   N     N_R   0.554800 0.576700 0.705400 -0.127025
N25   N     N_R   0.111030 0.077600 0.705380 -0.113549
N26   N     N_R   0.888970 0.077600 0.294620 -0.118165
N27   N     N_R   0.611030 0.577600 0.705380 -0.120199
N28   N     N_R   0.388970 0.577600 0.294620 -0.118319
N29   N     N_R   0.919490 0.077280 0.556590 -0.104165
N30   N     N_R   0.080510 0.077280 0.443410 -0.103879
N31   N     N_R   0.419490 0.577280 0.556590 -0.108054
N32   N     N_R   0.580510 0.577280 0.443410 -0.107853
Ni1   Ni    Ni4+2 0.882160 0.999430 0.370180 0.195189
Ni2   Ni    Ni4+2 0.117840 0.999430 0.629820 0.195470
Ni3   Ni    Ni4+2 0.382160 0.499430 0.370180 0.190352
Ni4   Ni    Ni4+2 0.617840 0.499430 0.629820 0.189570
Ni5   Ni    Ni4+2 0.012460 0.999430 0.370180 0.199022
Ni6   Ni    Ni4+2 0.987540 0.999430 0.629820 0.197453
Ni7   Ni    Ni4+2 0.512460 0.499430 0.370180 0.195990
Ni8   Ni    Ni4+2 0.487540 0.499430 0.629820 0.194797
N33   N     N_2   0.842309 0.683972 0.803239 -0.067982
H41   H     H_    0.856161 0.721912 0.865245 0.195955
C97   C     C_3   0.891044 0.620725 0.839151 -0.772087
H42   H     H_    0.908688 0.598889 0.919876 0.219133
H43   H     H_    0.938029 0.640480 0.849170 0.279609
H44   H     H_    0.864829 0.571793 0.779145 0.221490
N34   N     N_2   0.171180 0.717997 0.198301 -0.069034
H45   H     H_    0.158733 0.739386 0.126322 0.204076
C98   C     C_3   0.111735 0.684300 0.185315 -0.766069
H46   H     H_    0.080975 0.646187 0.111018 0.220602
H47   H     H_    0.076505 0.730124 0.174618 0.276691
H48   H     H_    0.130034 0.648179 0.257649 0.233936
N35   N     N_2   0.296308 0.270038 0.803551 -0.076808
H49   H     H_    0.314138 0.301959 0.872586 0.183404
C99   C     C_3   0.347738 0.215415 0.822614 -0.710599
H50   H     H_    0.370461 0.182978 0.899798 0.232794
H51   H     H_    0.391271 0.245955 0.831878 0.266315
H52   H     H_    0.322833 0.172419 0.754304 0.219572
N36   N     N_2   0.657674 0.182801 0.193478 -0.078615
H53   H     H_    0.643024 0.219577 0.130152 0.180634
C100  C     C_3   0.608783 0.118921 0.160879 -0.729170
H54   H     H_    0.588994 0.095959 0.079330 0.224213
H55   H     H_    0.563194 0.138440 0.154034 0.272380
H56   H     H_    0.635663 0.070904 0.221290 0.221162
O1    O     O_3   0.925500 0.780396 0.794644 -0.751439
H57   H     H_    0.925894 0.820945 0.839992 0.318314
O2    O     O_3   0.131216 0.860972 0.208943 -0.752314
H58   H     H_    0.133373 0.880789 0.151509 0.319020
O3    O     O_3   0.365764 0.385096 0.788828 -0.758529
H59   H     H_    0.368441 0.418105 0.843321 0.321943
O4    O     O_3   0.578246 0.281089 0.204876 -0.752268
H60   H     H_    0.577397 0.320413 0.157623 0.316651
N37   N     N_2   0.772765 0.251185 0.087077 -0.111166
H61   H     H_    0.732476 0.259612 0.090045 0.183668
C101  C     C_3   0.809901 0.322120 0.101466 -0.965192
H62   H     H_    0.824769 0.353888 0.175360 0.258651
H63   H     H_    0.775761 0.359801 0.027956 0.258518
H64   H     H_    0.858819 0.308792 0.114144 0.262272
N38   N     N_2   0.135478 0.316491 0.778542 -0.132150
H65   H     H_    0.156659 0.361784 0.764445 0.172963
C102  C     C_3   0.064779 0.334103 0.736344 -0.927669
H66   H     H_    0.032406 0.350608 0.648086 0.252434
H67   H     H_    0.066032 0.383351 0.783407 0.256259
H68   H     H_    0.039338 0.283025 0.742060 0.275689
N39   N     N_2   0.329510 0.812015 0.226975 -0.119589
H69   H     H_    0.294161 0.849450 0.219492 0.167365
C103  C     C_3   0.401394 0.834483 0.318263 -0.942163
H70   H     H_    0.407028 0.841334 0.394144 0.252617
H71   H     H_    0.414961 0.890675 0.300350 0.262255
H72   H     H_    0.439001 0.789643 0.334497 0.257853
N40   N     N_2   0.691667 0.801339 0.774066 -0.095453
H73   H     H_    0.735187 0.828477 0.790551 0.178665
C104  C     C_3   0.626829 0.825890 0.669944 -0.915257
H74   H     H_    0.631252 0.819654 0.603866 0.252376
H75   H     H_    0.616784 0.887736 0.675305 0.255208
H76   H     H_    0.581555 0.789591 0.646971 0.247205
O5    O     O_3   0.790501 0.103781 0.936316 -0.769887
H77   H     H_    0.822751 0.059050 0.969240 0.352113
O6    O     O_3   0.212407 0.200299 0.029094 -0.741329
H78   H     H_    0.202507 0.144920 0.032723 0.327819
O7    O     O_3   0.329604 0.730586 0.008744 -0.749497
H79   H     H_    0.345493 0.678809 0.005571 0.339970
O8    O     O_3   0.653943 0.756009 0.962957 -0.768373
H80   H     H_    0.637312 0.706454 0.971900 0.353905
O9    O     O_3   0.948105 0.080441 0.143682 -0.727352
H81   H     H_    0.980296 0.036807 0.186865 0.302721
O10   O     O_3   0.038344 0.129516 0.830881 -0.710340
H82   H     H_    0.029037 0.074730 0.837397 0.321346
O11   O     O_3   0.470943 0.644201 0.187783 -0.709480
H83   H     H_    0.473743 0.591562 0.165808 0.320790
O12   O     O_3   0.530568 0.646467 0.811521 -0.722156
H84   H     H_    0.526352 0.593497 0.831628 0.320276
O13   O     O_3   0.232728 0.115555 0.842133 -0.765220
H85   H     H_    0.237688 0.070747 0.807854 0.310552
O14   O     O_3   0.764619 0.088091 0.154008 -0.768555
H86   H     H_    0.766308 0.044781 0.197301 0.309590
O15   O     O_3   0.724352 0.641207 0.816164 -0.766115
H87   H     H_    0.738418 0.587941 0.814415 0.307194
O16   O     O_3   0.273458 0.633106 0.173187 -0.775620
H88   H     H_    0.261393 0.580745 0.183746 0.306186
O17   O     O_3   0.896979 0.076492 0.684522 -0.765640
H89   H     H_    0.925483 0.028944 0.707802 0.297896
O18   O     O_3   0.075212 0.151267 0.307967 -0.744167
H90   H     H_    0.080098 0.099367 0.286612 0.324989
O19   O     O_3   0.396247 0.598710 0.682251 -0.738285
H91   H     H_    0.420040 0.547929 0.708863 0.305205
O20   O     O_3   0.602707 0.573233 0.314848 -0.770143
H92   H     H_    0.569294 0.528889 0.287843 0.295825
N41   N     N_2   0.795273 0.687197 0.334926 -0.117805
H93   H     H_    0.827317 0.645199 0.341376 0.174262
C105  C     C_3   0.728221 0.692925 0.225218 -0.879077
H94   H     H_    0.738067 0.707899 0.167053 0.273141
H95   H     H_    0.695944 0.739378 0.222165 0.271222
H96   H     H_    0.699095 0.636660 0.198884 0.248474
N42   N     N_2   0.339066 0.881353 0.687781 -0.113037
H97   H     H_    0.383197 0.856418 0.757877 0.194164
C106  C     C_3   0.351027 0.961004 0.673047 -0.911207
H98   H     H_    0.379181 0.993138 0.752407 0.251403
H99   H     H_    0.300339 0.990584 0.610784 0.256044
H100  H     H_    0.383719 0.962794 0.646527 0.256819
N43   N     N_2   0.159810 0.398883 0.310126 -0.111912
H101  H     H_    0.113056 0.376425 0.240216 0.187360
C107  C     C_3   0.158149 0.482231 0.319129 -0.958708
H102  H     H_    0.139406 0.509235 0.240340 0.254719
H103  H     H_    0.211508 0.506055 0.386215 0.267644
H104  H     H_    0.121655 0.497536 0.335658 0.258773
N44   N     N_2   0.727131 0.207038 0.679822 -0.126777
H105  H     H_    0.707924 0.160436 0.695473 0.194907
C108  C     C_3   0.798886 0.227510 0.774874 -0.838898
H106  H     H_    0.799998 0.249255 0.842646 0.242279
H107  H     H_    0.820172 0.274194 0.753722 0.244179
H108  H     H_    0.833393 0.176058 0.805241 0.285782

loop_
_geom_bond_atom_site_label_1
_geom_bond_atom_site_label_2
_ccdc_geom_bond_type
C20   C38   A    
C25   C31   A    
N32   Ni7   S    
C71   N11   A    
O2    H58   S    
C6    N30   A    
C26   C32   A    
C85   H37   S    
C55   C59   D    
C28   N44   S    
C52   O4    S    
C1    C77   A    
O1    H57   S    
N6    N10   A    
C19   C23   A    
C103  H70   S    
C76   C79   A    
N7    Ni7   S    
N8    N12   A    
C3    C79   A    
C94   O14   S    
C106  H100  S    
C45   C81   A    
C91   O11   S    
C38   C44   S    
C103  H72   S    
O20   H92   S    
C27   N43   S    
C55   H23   S    
C50   O2    S    
C102  H68   S    
N7    N11   A    
N21   Ni5   S    
C48   N8    A    
O13   H85   S    
C108  H106  S    
C56   C79   S    
C41   H9    S    
C19   C51   S    
C72   H32   S    
N19   Ni3   S    
C88   N20   A    
C41   N33   S    
C11   C36   S    
C56   C60   D    
C24   C83   S    
C4    C80   A    
C104  H76   S    
N38   C102  S    
C54   C58   D    
O19   H91   S    
C105  H96   S    
C53   H21   S    
C98   H47   S    
C27   C29   A    
N20   N32   A    
N42   H97   S    
C14   C62   S    
C29   C33   A    
N3    N16   A    
C50   H14   S    
N12   Ni3   S    
C61   O5    S    
N18   Ni2   S    
N17   N29   A    
C67   N39   S    
O9    H81   S    
C17   C39   A    
C107  H104  S    
C66   N38   S    
C100  H55   S    
N40   H73   S    
C18   C40   A    
C14   C90   A    
C64   O8    S    
C21   C25   A    
C19   C37   A    
N22   N25   A    
C9    C85   A    
C46   C82   A    
N16   Ni7   S    
C65   N37   S    
N22   Ni6   S    
C17   C49   S    
C20   C24   A    
C75   N15   A    
N30   Ni5   S    
C74   C77   A    
C51   H15   S    
O6    H78   S    
C32   H8    S    
N3    Ni3   S    
C70   N10   A    
C47   C83   A    
C18   C22   A    
C8    N32   A    
N41   H93   S    
C95   O15   S    
C14   C93   A    
C91   N23   A    
C8    C12   A    
O18   H90   S    
C54   C77   S    
C13   C89   A    
C22   C81   S    
C70   H30   S    
C40   C42   S    
C32   C36   A    
C69   H29   S    
N4    Ni4   S    
C49   O1    S    
N23   Ni7   S    
C90   O10   S    
N5    Ni5   S    
N24   Ni8   S    
C71   H31   S    
C100  H54   S    
C57   C67   S    
C41   C49   S    
C92   O12   S    
C86   H38   S    
N44   C108  S    
N37   H61   S    
C71   C83   A    
C44   H12   S    
N2    N13   A    
C96   O16   S    
C62   O6    S    
C63   C67   D    
C68   N40   S    
C23   C84   S    
C30   C34   A    
N39   C103  S    
C74   N14   A    
O4    H60   S    
C2    N2    A    
N24   N27   A    
C87   H39   S    
C36   C40   A    
C93   O13   S    
C46   N6    A    
C94   N26   A    
C11   C87   A    
C15   C96   A    
C62   C66   D    
C44   N36   S    
C98   H48   S    
C57   H17   S    
N36   H53   S    
C45   H25   S    
N29   Ni6   S    
O3    H59   S    
C15   C91   A    
N20   Ni4   S    
C33   C37   A    
C21   C82   S    
C96   N28   A    
C6    O18   S    
C8    O20   S    
C31   H7    S    
C90   N22   A    
C100  H56   S    
C35   C39   A    
N34   H45   S    
C99   H51   S    
C5    C9    A    
N39   H69   S    
C2    C78   A    
N37   C101  S    
C95   N27   A    
C4    N4    A    
C48   C84   A    
C47   H27   S    
C101  H62   S    
C61   C65   D    
C93   N25   A    
N23   N28   A    
C73   C78   A    
C12   C88   A    
N8    Ni8   S    
C5    O17   S    
C106  H98   S    
O14   H86   S    
C29   H5    S    
C76   N16   A    
C85   N17   A    
N13   Ni6   S    
C12   C35   S    
N27   Ni4   S    
N41   C105  S    
N4    N15   A    
C88   H40   S    
C72   C84   A    
C30   H6    S    
C45   N5    A    
N25   Ni2   S    
C58   C68   S    
C101  H63   S    
C42   C50   S    
C16   C92   A    
C23   C27   A    
N43   C107  S    
C22   C26   A    
C9    C34   S    
C104  H75   S    
C89   O9    S    
N1    N14   A    
C60   H20   S    
C3    N3    A    
C1    H1    S    
O16   H88   S    
C54   H22   S    
C64   C68   D    
O17   H89   S    
O8    H80   S    
C1    N1    A    
N11   Ni4   S    
C18   C50   S    
C49   H13   S    
O5    H77   S    
C99   H50   S    
N42   C106  S    
C7    N31   A    
N9    Ni2   S    
C10   C86   A    
C16   C95   A    
C53   C57   D    
N15   Ni8   S    
C73   N13   A    
C34   C38   A    
N1    Ni1   S    
N33   H41   S    
C46   H26   S    
C24   C28   A    
C47   N7    A    
O11   H83   S    
C63   O7    S    
C25   N41   S    
C105  H94   S    
C103  H71   S    
C43   N35   S    
C89   N21   A    
C74   H34   S    
C56   H24   S    
C69   N9    A    
N5    N9    A    
C42   N34   S    
C108  H108  S    
C39   C41   S    
C102  H67   S    
C4    H4    S    
C13   C94   A    
C92   N24   A    
C52   H16   S    
C97   H44   S    
N34   C98   S    
C53   C78   S    
C102  H66   S    
C107  H102  S    
C20   C52   S    
N40   C104  S    
C72   N12   A    
C59   C65   S    
C55   C80   S    
C76   H36   S    
C44   C52   S    
C98   H46   S    
O15   H87   S    
N26   Ni1   S    
N19   N31   A    
C2    H2    S    
C43   C51   S    
C73   H33   S    
C51   O3    S    
C28   C30   A    
C106  H99   S    
N6    Ni6   S    
N33   C97   S    
C7    O19   S    
C10   C33   S    
C31   C35   A    
C5    N29   A    
C107  H103  S    
N38   H65   S    
C86   N18   A    
N35   H49   S    
C70   C82   A    
O7    H79   S    
C99   H52   S    
C69   C81   A    
C6    C10   A    
C108  H107  S    
C60   C66   S    
C97   H42   S    
C42   H10   S    
C3    H3    S    
C75   C80   A    
C13   C61   S    
C26   N42   S    
C75   H35   S    
C59   H19   S    
C48   H28   S    
N14   Ni5   S    
N10   Ni1   S    
N17   Ni1   S    
N44   H105  S    
C58   H18   S    
C15   C63   S    
C104  H74   S    
N18   N30   A    
N28   Ni3   S    
C97   H43   S    
N31   Ni8   S    
C16   C64   S    
N35   C99   S    
C101  H64   S    
N43   H101  S    
C43   H11   S    
C105  H95   S    
N21   N26   A    
C37   C43   S    
C87   N19   A    
O10   H82   S    
O12   H84   S    
C7    C11   A    
N2    Ni2   S    
N36   C100  S    
C17   C21   A    
