data_mof_unit_21423.cif
_audit_creation_date              2012-12-10T17:47:45-0500
_audit_creation_method            fapswitch 2.2
_symmetry_space_group_name_H-M    P1
_symmetry_Int_Tables_number       1
_space_group_crystal_system       triclinic
_cell_length_a                    10.630153
_cell_length_b                    10.646341
_cell_length_c                    9.921835
_cell_angle_alpha                 89.86257
_cell_angle_beta                  90.137028
_cell_angle_gamma                 91.455641
_cell_volume                      1122.50758845

loop_
_atom_site_label
_atom_site_type_symbol
_atom_type_description
_atom_site_fract_x
_atom_site_fract_y
_atom_site_fract_z
_atom_type_partial_charge
C1    C     C_R   0.504900 0.260721 0.500431 0.868952
C2    C     C_R   0.605280 0.067807 0.580805 0.108138
C3    C     C_R   0.514259 0.128490 0.501336 -0.090905
C4    C     C_R   0.257847 0.497605 0.500077 0.830565
C5    C     C_R   0.429287 0.062483 0.419560 -0.224743
C6    C     C_R   0.429387 0.934298 0.419018 -0.210358
C7    C     C_R   0.515240 0.871898 0.499302 -0.107493
C8    C     C_R   0.334659 0.336339 0.139941 -0.166460
C9    C     C_R   0.252710 0.256104 0.069886 -0.206249
C10   C     C_R   0.252883 0.255844 0.930378 -0.196006
C11   C     C_R   0.334958 0.335867 0.860162 -0.159870
C12   C     C_3   0.878617 0.494904 0.500658 0.128087
C13   C     C_R   0.418621 0.419210 0.927744 0.169478
C14   C     C_R   0.418561 0.419347 0.072265 0.174257
C15   C     C_R   0.578139 0.576972 0.071463 -0.121399
C16   C     C_R   0.504898 0.739400 0.499843 0.871228
C17   C     C_R   0.578093 0.576960 0.928399 -0.119185
C18   C     C_R   0.742074 0.497811 0.500259 0.844168
C19   C     C_3   0.071005 0.467070 0.644622 -0.400030
C20   C     C_3   0.928339 0.471364 0.645832 -0.402885
C21   C     C_3   0.075206 0.625144 0.453191 -0.398658
C22   C     C_3   0.070497 0.391929 0.403530 -0.471507
C23   C     C_3   0.930814 0.624514 0.452010 -0.473675
C24   C     C_3   0.121376 0.495466 0.500395 0.164538
C25   C     C_3   0.859297 0.178709 0.329435 -0.801672
C26   C     C_3   0.925313 0.391127 0.402769 0.077703
C27   C     C_R   0.696396 0.134184 0.659172 -0.168698
C28   C     C_R   0.787126 0.070398 0.732168 -0.161850
C29   C     C_R   0.790101 0.940073 0.727224 -0.143022
C30   C     C_R   0.701567 0.873073 0.650358 -0.202247
C31   C     C_R   0.606940 0.936146 0.577969 0.095616
H1    H     H_    0.108984 0.537296 0.718238 0.193365
H2    H     H_    0.360159 0.883359 0.358362 0.154207
H3    H     H_    0.642023 0.639911 0.125113 0.143475
H4    H     H_    0.100830 0.372462 0.678175 0.159532
H5    H     H_    0.329378 0.330551 0.246763 0.196530
H6    H     H_    0.188864 0.193613 0.124399 0.138583
H7    H     H_    0.189176 0.193106 0.876017 0.138720
H8    H     H_    0.330031 0.329589 0.753318 0.200477
H9    H     H_    0.641938 0.639902 0.874690 0.141264
H10   H     H_    0.888551 0.382200 0.688328 0.162939
H11   H     H_    0.899496 0.548454 0.714056 0.181212
H12   H     H_    0.893813 0.415911 0.298877 0.155910
H13   H     H_    0.111595 0.700182 0.522048 0.166414
H14   H     H_    0.897333 0.700555 0.518709 0.171259
H15   H     H_    0.104500 0.410141 0.299115 0.173482
H16   H     H_    0.106974 0.299027 0.434515 0.154039
H17   H     H_    0.912309 0.228824 0.524285 0.236079
H18   H     H_    0.815715 0.089786 0.367861 0.250889
H19   H     H_    0.952535 0.158223 0.285392 0.229327
H20   H     H_    0.796681 0.216757 0.250252 0.254936
H21   H     H_    0.111002 0.647278 0.350235 0.176770
H22   H     H_    0.896891 0.645005 0.348187 0.173299
H23   H     H_    0.360246 0.110377 0.358870 0.142591
H24   H     H_    0.701403 0.235451 0.662441 0.163191
H25   H     H_    0.856758 0.122515 0.790752 0.125373
H26   H     H_    0.861939 0.890723 0.782049 0.127268
H27   H     H_    0.709869 0.772221 0.646688 0.140531
N1    N     N_R   0.498810 0.498800 0.142780 -0.122122
N2    N     N_R   0.498760 0.498720 0.857170 -0.122170
N3    N     N_2   0.873578 0.267537 0.438867 -0.313178
O1    O     O_R   0.500000 0.316780 0.614690 -0.647588
O2    O     O_R   0.499990 0.316750 0.385360 -0.624698
O3    O     O_R   0.314800 0.499990 0.614670 -0.642190
O4    O     O_R   0.314790 0.499970 0.385330 -0.642979
O5    O     O_R   0.500010 0.683250 0.614640 -0.613432
O6    O     O_R   0.500000 0.683220 0.385310 -0.612958
O7    O     O_R   0.685210 0.500030 0.614670 -0.642315
O8    O     O_R   0.685200 0.500010 0.385330 -0.623745
Zn1   Zn    Zn3+2 0.500010 0.500020 0.653130 0.919675
Zn2   Zn    Zn3+2 0.499990 0.499980 0.346870 0.930221

loop_
_geom_bond_atom_site_label_1
_geom_bond_atom_site_label_2
_ccdc_geom_bond_type
C25   N3    S    
C20   H11   S    
C25   H20   S    
C6    C7    A    
C23   H14   S    
O3    Zn1   S    
C21   H13   S    
C9    C10   A    
C4    O3    A    
C15   H3    S    
C19   C20   S    
C6    H2    S    
N2    Zn1   S    
C30   C31   A    
C10   H7    S    
C1    O1    A    
C12   C20   S    
C18   O8    A    
C9    H6    S    
C22   H16   S    
C28   H25   S    
C13   N2    A    
C19   H4    S    
C13   C14   A    
C11   H8    S    
C14   N1    A    
C11   C13   A    
C12   C23   S    
H17   N3    S    
C2    C27   A    
C15   N1    A    
C20   H10   S    
C19   H1    S    
C1    O2    A    
C2    C31   A    
O7    Zn1   S    
C7    C16   S    
C22   H15   S    
C26   N3    S    
C29   H26   S    
C26   H12   S    
C23   H22   S    
O6    Zn2   S    
C21   C23   S    
C22   C26   S    
C5    C6    A    
C4    C24   S    
C22   C24   S    
C16   O5    A    
C10   C11   A    
C27   H24   S    
C17   N2    A    
C18   O7    A    
C30   H27   S    
C5    H23   S    
C7    C31   A    
O5    Zn1   S    
O1    Zn1   S    
C15   C17   A    
C8    H5    S    
C21   C24   S    
C12   C26   S    
C27   C28   A    
O8    Zn2   S    
C4    O4    A    
C28   C29   A    
C2    C3    A    
C8    C14   A    
C3    C5    A    
O4    Zn2   S    
C16   O6    A    
C19   C24   S    
O2    Zn2   S    
C17   H9    S    
C21   H21   S    
C25   H19   S    
C29   C30   A    
N1    Zn2   S    
C8    C9    A    
C1    C3    S    
C25   H18   S    
C12   C18   S    
