data_mof_unit_41312.cif
_audit_creation_date              2012-12-10T20:45:33-0500
_audit_creation_method            fapswitch 2.2
_symmetry_space_group_name_H-M    P1
_symmetry_Int_Tables_number       1
_space_group_crystal_system       triclinic
_cell_length_a                    10.614603
_cell_length_b                    10.654043
_cell_length_c                    9.823962
_cell_angle_alpha                 89.471934
_cell_angle_beta                  87.687424
_cell_angle_gamma                 90.919604
_cell_volume                      1109.87460679

loop_
_atom_site_label
_atom_site_type_symbol
_atom_type_description
_atom_site_fract_x
_atom_site_fract_y
_atom_site_fract_z
_atom_type_partial_charge
C1    C     C_R   0.505274 0.259718 0.500149 0.893000
C2    C     C_R   0.776443 0.297854 0.910251 -0.152715
C3    C     C_R   0.772768 0.175465 0.860581 -0.114513
C4    C     C_R   0.261828 0.519082 0.503192 0.901791
C5    C     C_R   0.823587 0.149968 0.730551 -0.122632
C6    C     C_R   0.878190 0.246803 0.650001 -0.184017
C7    C     C_R   0.883092 0.370062 0.699265 0.144885
C8    C     C_R   0.531325 0.062646 0.622173 0.156407
C9    C     C_R   0.529740 0.128851 0.499628 -0.106987
C10   C     C_R   0.555945 0.066826 0.376355 -0.251840
C11   C     C_R   0.557021 0.936841 0.375860 -0.244222
C12   C     C_R   0.293952 0.856028 0.137081 -0.122613
C13   C     C_R   0.531352 0.871364 0.498526 -0.096862
C14   C     C_R   0.532457 0.934663 0.621699 0.119936
C15   C     C_3   0.444063 0.923542 0.743682 -0.494339
C16   C     C_R   0.506214 0.740181 0.499231 0.867704
C17   C     C_3   0.442185 0.065376 0.743461 -0.504850
C18   C     C_R   0.463414 0.394809 0.074450 0.200631
C19   C     C_R   0.547722 0.599265 0.068925 -0.140787
C20   C     C_R   0.549147 0.598637 0.924717 -0.170897
C21   C     C_R   0.460300 0.395971 0.931676 0.237349
C22   C     C_3   0.330776 0.338362 0.937806 -0.535601
C23   C     C_R   0.941747 0.592999 0.392431 0.114120
C24   C     C_3   0.338681 0.330114 0.091187 -0.503379
C25   C     C_R   0.741409 0.502084 0.497102 0.887239
C26   C     C_R   0.258582 0.891719 0.269524 -0.122045
C27   C     C_R   0.187307 0.809495 0.354754 -0.188126
C28   C     C_R   0.149197 0.691379 0.307294 0.148338
C29   C     C_R   0.185359 0.656178 0.174161 -0.086331
C30   C     C_R   0.257470 0.738265 0.089518 -0.142265
C31   C     C_3   0.873683 0.667367 0.284581 -0.359574
C32   C     C_3   0.859865 0.593888 0.152641 -0.849197
C33   C     C_3   0.090260 0.562436 0.770349 -0.394275
C34   C     C_R   0.876544 0.516142 0.493330 -0.170357
C35   C     C_3   0.023435 0.685814 0.800964 -0.916570
C36   C     C_R   0.938058 0.471840 0.608780 -0.052282
C37   C     C_R   0.058700 0.515586 0.629339 0.138131
C38   C     C_R   0.130732 0.552347 0.512821 -0.184186
C39   C     C_R   0.073360 0.605480 0.400099 -0.059053
C40   C     C_R   0.830807 0.394996 0.829998 -0.094218
H1    H     H_    0.349778 0.919497 0.071497 0.122412
H2    H     H_    0.487010 0.106631 0.833440 0.203015
H3    H     H_    0.583420 0.680528 0.121052 0.149807
H4    H     H_    0.286727 0.982976 0.306367 0.138868
H5    H     H_    0.587734 0.678582 0.867792 0.147715
H6    H     H_    0.258386 0.404529 0.905022 0.201396
H7    H     H_    0.325283 0.245179 0.890381 0.203906
H8    H     H_    0.267039 0.385832 0.147652 0.220373
H9    H     H_    0.347701 0.232306 0.129669 0.192829
H10   H     H_    0.161179 0.837978 0.457506 0.119236
H11   H     H_    0.159192 0.565143 0.136328 0.105560
H12   H     H_    0.729954 0.100510 0.922529 0.114760
H13   H     H_    0.285318 0.710436 0.987116 0.135639
H14   H     H_    0.829517 0.489440 0.868909 0.135182
H15   H     H_    0.736193 0.317676 0.010577 0.119073
H16   H     H_    0.952346 0.565146 0.109268 0.243591
H17   H     H_    0.800973 0.507986 0.169066 0.277036
H18   H     H_    0.815620 0.654288 0.075988 0.229007
H19   H     H_    0.780129 0.698652 0.324159 0.202395
H20   H     H_    0.924834 0.756794 0.259445 0.195585
H21   H     H_    0.060507 0.760657 0.729968 0.258886
H22   H     H_    0.920149 0.676281 0.789844 0.261397
H23   H     H_    0.820050 0.055231 0.691840 0.128696
H24   H     H_    0.040863 0.714911 0.906827 0.257414
H25   H     H_    0.062848 0.491376 0.849639 0.191360
H26   H     H_    0.191498 0.582827 0.781501 0.231700
H27   H     H_    0.916346 0.225922 0.548956 0.122140
H28   H     H_    0.565359 0.117178 0.280062 0.166464
H29   H     H_    0.566874 0.888765 0.279414 0.164713
H30   H     H_    0.351651 0.879568 0.720597 0.206140
H31   H     H_    0.490043 0.883640 0.833636 0.190361
H32   H     H_    0.348810 0.103215 0.718354 0.198527
N1    N     N_R   0.499160 0.499140 0.142800 -0.099449
N2    N     N_R   0.499160 0.499180 0.857150 -0.103441
O1    O     O_R   0.500020 0.316790 0.614690 -0.601359
O2    O     O_R   0.500000 0.316760 0.385350 -0.625670
O3    O     O_R   0.316770 0.500030 0.614670 -0.632731
O4    O     O_R   0.316750 0.499990 0.385330 -0.607082
O5    O     O_R   0.500000 0.683240 0.614650 -0.631524
O6    O     O_R   0.499980 0.683210 0.385310 -0.621068
O7    O     O_R   0.683250 0.500010 0.614670 -0.609202
O8    O     O_R   0.683230 0.499970 0.385330 -0.620765
Zn1   Zn    Zn3+2 0.500010 0.500020 0.653130 0.936347
Zn2   Zn    Zn3+2 0.499990 0.499980 0.346870 0.935960

loop_
_geom_bond_atom_site_label_1
_geom_bond_atom_site_label_2
_ccdc_geom_bond_type
C18   C21   A    
C7    C36   S    
C19   C20   A    
C32   H18   S    
N2    Zn1   S    
O6    Zn2   S    
O2    Zn2   S    
C26   H4    S    
C26   C27   A    
C37   C38   A    
C18   C24   S    
C28   C29   A    
C2    H15   S    
C38   C39   A    
O3    Zn1   S    
C5    H23   S    
C31   H19   S    
C17   H2    S    
C8    C9    A    
C7    C40   A    
C35   H24   S    
C29   C30   A    
C9    C10   A    
N1    Zn2   S    
C20   H5    S    
C27   H10   S    
C25   C34   S    
C22   H7    S    
C13   C14   A    
C25   O7    A    
C32   H17   S    
O7    Zn1   S    
C19   H3    S    
C33   H26   S    
C30   H13   S    
C33   H25   S    
C24   H8    S    
C19   N1    A    
C1    C9    S    
C28   C39   S    
C21   N2    A    
C33   C37   S    
C12   C26   A    
C16   O6    A    
C1    O1    A    
C31   H20   S    
C4    O4    A    
C12   H1    S    
O4    Zn2   S    
C31   C32   S    
C23   C34   A    
C20   N2    A    
C35   H21   S    
C6    H27   S    
C22   H6    S    
C4    C38   S    
C18   N1    A    
C40   H14   S    
C25   O8    A    
C22   C24   S    
C29   H11   S    
C24   H9    S    
C15   C17   S    
C15   H30   S    
C36   C37   A    
C8    C14   A    
C12   C30   A    
C1    O2    A    
C3    C5    A    
C3    H12   S    
C11   H29   S    
C6    C7    A    
C10   H28   S    
C15   H31   S    
O8    Zn2   S    
C8    C17   S    
C16   O5    A    
C2    C3    A    
C4    O3    A    
O5    Zn1   S    
C11   C13   A    
O1    Zn1   S    
C5    C6    A    
C23   C39   A    
C33   C35   S    
C35   H22   S    
C34   C36   A    
C10   C11   A    
C2    C40   A    
C17   H32   S    
C13   C16   S    
C27   C28   A    
C14   C15   S    
C21   C22   S    
C32   H16   S    
C23   C31   S    
