data_mof_unit_46776.cif
_audit_creation_date              2012-12-10T17:40:57-0500
_audit_creation_method            fapswitch 2.2
_symmetry_space_group_name_H-M    P1
_symmetry_Int_Tables_number       1
_space_group_crystal_system       triclinic
_cell_length_a                    15.273907
_cell_length_b                    15.073412
_cell_length_c                    9.880785
_cell_angle_alpha                 90.000334
_cell_angle_beta                  92.217244
_cell_angle_gamma                 89.999945
_cell_volume                      2273.14893257

loop_
_atom_site_label
_atom_site_type_symbol
_atom_type_description
_atom_site_fract_x
_atom_site_fract_y
_atom_site_fract_z
_atom_type_partial_charge
C1    C     C_R   0.387020 0.873703 0.498799 0.919954
C2    C     C_R   0.387022 0.126298 0.498800 0.919948
C3    C     C_R   0.887021 0.373703 0.498799 0.919955
C4    C     C_R   0.887023 0.626299 0.498800 0.919948
C5    C     C_R   0.273822 0.212038 0.382873 -0.220496
C6    C     C_R   0.273805 0.787978 0.382878 -0.220493
C7    C     C_R   0.773828 0.712044 0.382870 -0.220496
C8    C     C_R   0.773811 0.287972 0.382876 -0.220494
C9    C     C_R   0.704071 0.768580 0.388394 -0.196621
C10   C     C_R   0.704055 0.231435 0.388402 -0.196615
C11   C     C_R   0.204065 0.268574 0.388397 -0.196620
C12   C     C_R   0.204049 0.731441 0.388404 -0.196614
C13   C     C_R   0.685783 0.810640 0.510190 -0.063821
C14   C     C_R   0.685778 0.189364 0.510193 -0.063824
C15   C     C_R   0.185781 0.310638 0.510191 -0.063822
C16   C     C_R   0.185776 0.689366 0.510193 -0.063825
C17   C     C_R   0.340064 0.000001 0.132015 -0.185772
C18   C     C_R   0.840064 0.500001 0.132015 -0.185772
C19   C     C_R   0.260889 0.000002 0.057989 -0.208579
C20   C     C_R   0.760889 0.500002 0.057989 -0.208579
C21   C     C_R   0.260303 0.000002 0.918127 -0.157705
C22   C     C_R   0.760303 0.500002 0.918127 -0.157708
C23   C     C_R   0.338871 0.000002 0.851653 -0.137391
C24   C     C_R   0.838871 0.500001 0.851653 -0.137389
C25   C     C_R   0.420781 0.000001 0.923344 0.179901
C26   C     C_R   0.920781 0.500001 0.923344 0.179903
C27   C     C_R   0.421027 0.000001 0.068117 0.167492
C28   C     C_R   0.921027 0.500001 0.068117 0.167488
C29   C     C_R   0.575516 0.999999 0.076088 -0.114304
C30   C     C_R   0.075516 0.499999 0.076088 -0.114301
C31   C     C_R   0.619071 0.121726 0.502828 0.917240
C32   C     C_R   0.619072 0.878275 0.502828 0.917255
C33   C     C_R   0.119070 0.621726 0.502828 0.917236
C34   C     C_R   0.119071 0.378275 0.502828 0.917251
C35   C     C_R   0.575473 0.999999 0.932810 -0.146099
C36   C     C_R   0.075473 0.499999 0.932810 -0.146093
C37   C     C_R   0.386525 0.265541 0.716310 0.276710
C38   C     C_R   0.386534 0.734447 0.716285 0.276698
C39   C     C_R   0.886522 0.765536 0.716320 0.276714
C40   C     C_R   0.886531 0.234452 0.716293 0.276701
C41   C     C_R   0.365354 0.295081 0.844631 -0.138376
C42   C     C_R   0.365373 0.704898 0.844605 -0.138368
C43   C     C_R   0.865346 0.795071 0.844642 -0.138378
C44   C     C_R   0.865366 0.204906 0.844613 -0.138370
C45   C     C_R   0.779591 0.817789 0.869772 -0.229288
C46   C     C_R   0.779614 0.182186 0.869756 -0.229281
C47   C     C_R   0.279600 0.317800 0.869766 -0.229287
C48   C     C_R   0.279621 0.682178 0.869752 -0.229279
C49   C     C_R   0.717258 0.820348 0.763206 -0.134480
C50   C     C_R   0.717273 0.179637 0.763201 -0.134486
C51   C     C_R   0.217264 0.320354 0.763204 -0.134483
C52   C     C_R   0.217277 0.679632 0.763200 -0.134486
C53   C     C_R   0.739109 0.795451 0.629689 0.083263
C54   C     C_R   0.739113 0.204544 0.629685 0.083260
C55   C     C_R   0.239111 0.295453 0.629687 0.083263
C56   C     C_R   0.239114 0.704543 0.629684 0.083260
C57   C     C_R   0.320042 0.254073 0.613649 0.031294
C58   C     C_R   0.320044 0.745925 0.613639 0.031296
C59   C     C_R   0.820041 0.754071 0.613653 0.031292
C60   C     C_R   0.820043 0.245926 0.613642 0.031296
C61   C     C_R   0.330366 0.202408 0.495958 -0.084525
C62   C     C_R   0.330359 0.797597 0.495955 -0.084523
C63   C     C_R   0.830368 0.702410 0.495959 -0.084526
C64   C     C_R   0.830362 0.297595 0.495956 -0.084525
H1    H     H_    0.281951 0.174164 0.290963 0.171075
H2    H     H_    0.281927 0.825860 0.290975 0.171069
H3    H     H_    0.781960 0.674174 0.290957 0.171077
H4    H     H_    0.781935 0.325851 0.290971 0.171071
H5    H     H_    0.198537 0.000003 0.860483 0.177304
H6    H     H_    0.698537 0.500003 0.860483 0.177304
H7    H     H_    0.331647 0.000001 0.744535 0.207947
H8    H     H_    0.831647 0.500001 0.744535 0.207949
H9    H     H_    0.637103 0.999998 0.882452 0.141743
H10   H     H_    0.137103 0.499998 0.882452 0.141738
H11   H     H_    0.415772 0.302694 0.923857 0.166769
H12   H     H_    0.415797 0.697278 0.923820 0.166769
H13   H     H_    0.915762 0.802681 0.923873 0.166768
H14   H     H_    0.915788 0.197289 0.923832 0.166769
H15   H     H_    0.762247 0.838039 0.970426 0.154223
H16   H     H_    0.762278 0.161928 0.970409 0.154226
H17   H     H_    0.262259 0.338053 0.970419 0.154224
H18   H     H_    0.262287 0.661917 0.970405 0.154227
H19   H     H_    0.652294 0.838086 0.791201 0.208743
H20   H     H_    0.652311 0.161897 0.791205 0.208743
H21   H     H_    0.152301 0.338094 0.791202 0.208743
H22   H     H_    0.152316 0.661891 0.791207 0.208743
H23   H     H_    0.662887 0.777399 0.297566 0.171400
H24   H     H_    0.662864 0.222623 0.297581 0.171401
H25   H     H_    0.162879 0.277390 0.297572 0.171400
H26   H     H_    0.162856 0.722632 0.297586 0.171401
H27   H     H_    0.637210 0.999998 0.133673 0.148667
H28   H     H_    0.137210 0.499998 0.133673 0.148668
H29   H     H_    0.334870 0.000000 0.238789 0.210497
H30   H     H_    0.834870 0.500000 0.238789 0.210500
H31   H     H_    0.199647 0.000002 0.109658 0.161081
H32   H     H_    0.699647 0.500002 0.109658 0.161083
N1    N     N_R   0.498810 0.000000 0.142780 -0.120962
N2    N     N_R   0.998810 0.500000 0.142780 -0.120963
N3    N     N_R   0.498740 1.000000 0.857170 -0.111644
N4    N     N_R   0.998740 0.500000 0.857170 -0.111641
O1    O     O_R   0.408390 0.908380 0.614690 -0.625648
O2    O     O_R   0.408390 0.091620 0.614690 -0.625645
O3    O     O_R   0.908390 0.408380 0.614690 -0.625647
O4    O     O_R   0.908390 0.591620 0.614690 -0.625643
O5    O     O_R   0.408370 0.908380 0.385360 -0.646911
O6    O     O_R   0.408370 0.091620 0.385360 -0.646919
O7    O     O_R   0.908370 0.408380 0.385360 -0.646913
O8    O     O_R   0.908370 0.591620 0.385360 -0.646921
O9    O     O_R   0.591620 0.091610 0.614640 -0.616317
O10   O     O_R   0.591620 0.908390 0.614640 -0.616324
O11   O     O_R   0.091620 0.591610 0.614640 -0.616315
O12   O     O_R   0.091620 0.408390 0.614640 -0.616321
O13   O     O_R   0.591610 0.091610 0.385310 -0.627090
O14   O     O_R   0.591610 0.908390 0.385310 -0.627089
O15   O     O_R   0.091610 0.591610 0.385310 -0.627091
O16   O     O_R   0.091610 0.408390 0.385310 -0.627089
Zn1   Zn    Zn3+2 0.500010 0.000000 0.653130 0.964150
Zn2   Zn    Zn3+2 0.000010 0.500000 0.653130 0.964153
Zn3   Zn    Zn3+2 0.499980 1.000000 0.346870 0.943900
Zn4   Zn    Zn3+2 0.999980 0.500000 0.346870 0.943897
Br1   Br    Br    0.507152 0.271115 0.675311 -0.577210
Br2   Br    Br    0.507156 0.728870 0.675258 -0.577222
Br3   Br    Br    0.007151 0.771109 0.675332 -0.577208
Br4   Br    Br    0.007155 0.228876 0.675276 -0.577220

loop_
_geom_bond_atom_site_label_1
_geom_bond_atom_site_label_2
_ccdc_geom_bond_type
C58   C62   A    
C46   H16   S    
C40   C60   A    
O6    Zn3   S    
C34   O12   A    
O8    Zn4   S    
C13   C32   S    
C14   C31   S    
C1    C62   S    
C51   H21   S    
C53   C59   A    
C50   H20   S    
C54   C60   A    
C3    C64   S    
C3    O3    A    
C4    O8    A    
C4    C63   S    
C10   H24   S    
C50   C54   A    
C6    H2    S    
C32   O10   A    
O11   Zn2   S    
C12   H26   S    
C19   C21   A    
C24   C26   A    
C5    C11   A    
C6    C12   A    
C43   H13   S    
C41   H11   S    
C2    O2    A    
C34   O16   A    
C39   Br3   S    
C18   C20   A    
C9    C13   A    
O13   Zn3   S    
C11   C15   A    
C25   N3    A    
C35   H9    S    
C12   C16   A    
C56   C58   A    
C33   O11   A    
C15   C34   S    
C13   C53   A    
O14   Zn3   S    
C2    C61   S    
C23   C25   A    
C20   H32   S    
C38   C58   A    
C35   N3    A    
O10   Zn1   S    
C26   C28   A    
C44   C46   A    
O4    Zn2   S    
C41   C47   A    
C40   Br4   S    
C33   O15   A    
O9    Zn1   S    
C17   C27   A    
C23   H7    S    
C18   C28   A    
C30   H28   S    
C10   C14   A    
C39   C43   A    
C3    O7    A    
C2    O6    A    
O16   Zn4   S    
C21   H5    S    
C15   C55   A    
N1    Zn3   S    
C44   H14   S    
C16   C56   A    
C16   C33   S    
N3    Zn1   S    
C11   H25   S    
C45   C49   A    
C39   C59   A    
C31   O9    A    
C5    C61   A    
C45   H15   S    
C42   C48   A    
C57   C61   A    
C43   C45   A    
C7    C63   A    
C38   Br2   S    
O2    Zn1   S    
C36   H10   S    
C8    C64   A    
C37   Br1   S    
C5    H1    S    
C14   C54   A    
C20   C22   A    
C8    H4    S    
C55   C57   A    
C18   H30   S    
C22   C24   A    
O3    Zn2   S    
N4    Zn2   S    
C40   C44   A    
C1    O1    A    
O7    Zn4   S    
C29   H27   S    
C19   H31   S    
C24   H8    S    
C30   N2    A    
C28   N2    A    
C7    C9    A    
C29   C35   A    
C27   N1    A    
C22   H6    S    
C59   C63   A    
C47   C51   A    
C36   N4    A    
N2    Zn4   S    
C29   N1    A    
C25   C27   A    
C46   C50   A    
C42   H12   S    
C30   C36   A    
C60   C64   A    
O1    Zn1   S    
C6    C62   A    
C21   C23   A    
C9    H23   S    
O12   Zn2   S    
C49   H19   S    
C49   C53   A    
C4    O4    A    
C52   H22   S    
C17   C19   A    
C48   H18   S    
C51   C55   A    
C47   H17   S    
C37   C41   A    
C7    H3    S    
C38   C42   A    
C48   C52   A    
C17   H29   S    
C8    C10   A    
O15   Zn4   S    
C26   N4    A    
O5    Zn3   S    
C32   O14   A    
C31   O13   A    
C37   C57   A    
C52   C56   A    
C1    O5    A    
