data_mof_unit_65528.cif
_audit_creation_date              2012-12-10T17:47:54-0500
_audit_creation_method            fapswitch 2.2
_symmetry_space_group_name_H-M    P1
_symmetry_Int_Tables_number       1
_space_group_crystal_system       triclinic
_cell_length_a                    23.568755
_cell_length_b                    31.87296
_cell_length_c                    23.574249
_cell_angle_alpha                 89.999825
_cell_angle_beta                  90.000462
_cell_angle_gamma                 89.999466
_cell_volume                      17709.1169479

loop_
_atom_site_label
_atom_site_type_symbol
_atom_type_description
_atom_site_fract_x
_atom_site_fract_y
_atom_site_fract_z
_atom_type_partial_charge
C1    C     C_R   0.499933 0.000000 0.390433 0.908240
C2    C     C_1   0.499104 0.163284 0.499996 -0.078883
C3    C     C_3   0.998854 0.708727 0.999983 0.073801
C4    C     C_3   0.499956 0.708846 0.499978 0.073811
C5    C     C_3   0.499983 0.291155 0.499967 0.073804
C6    C     C_3   0.999983 0.208846 0.000019 0.073811
C7    C     C_3   0.999964 0.791154 0.000012 0.073810
C8    C     C_3   0.434011 0.782010 0.406971 -0.418043
C9    C     C_3   0.407988 0.747681 0.369687 -0.345958
C10   C     C_3   0.369604 0.766536 0.324246 -0.873597
C11   C     C_3   0.444753 0.217988 0.599695 -0.418362
C12   C     C_3   0.423026 0.252324 0.639625 -0.345927
C13   C     C_1   0.999109 0.336716 0.999985 -0.078884
C14   C     C_3   0.389862 0.233480 0.689009 -0.873390
C15   C     C_3   0.433696 0.218013 0.407176 -0.418064
C16   C     C_3   0.407557 0.252357 0.369997 -0.345953
C17   C     C_3   0.369025 0.233520 0.324669 -0.873636
C18   C     C_3   0.444405 0.782024 0.599517 -0.418362
C19   C     C_3   0.422558 0.747697 0.639395 -0.345937
C20   C     C_3   0.389262 0.766554 0.688682 -0.873411
C21   C     C_3   0.945238 0.282016 0.900024 -0.418388
C22   C     C_3   0.923694 0.247684 0.859990 -0.345932
C23   C     C_3   0.890866 0.266539 0.810389 -0.873383
C24   C     C_1   0.999106 0.663284 0.999993 -0.078882
C25   C     C_3   0.936013 0.717993 0.094401 -0.418121
C26   C     C_3   0.910795 0.752326 0.132228 -0.345934
C27   C     C_3   0.873393 0.733476 0.178481 -0.873592
C28   C     C_3   0.942293 0.717985 0.901673 -0.418301
C29   C     C_3   0.919600 0.752315 0.862276 -0.345955
C30   C     C_3   0.885272 0.733462 0.813698 -0.873433
C31   C     C_3   0.933267 0.281992 0.092493 -0.418049
C32   C     C_3   0.906943 0.247650 0.129544 -0.345960
C33   C     C_3   0.868225 0.266491 0.174709 -0.873639
C34   C     C_3   0.554408 0.718123 0.400471 -0.416864
C35   C     C_1   0.499875 0.663400 0.499992 -0.079227
C36   C     C_3   0.576307 0.752471 0.360655 -0.346554
C37   C     C_3   0.609509 0.733636 0.311292 -0.873860
C38   C     C_3   0.565164 0.281834 0.592804 -0.417186
C39   C     C_3   0.591312 0.247465 0.629936 -0.346356
C40   C     C_3   0.629985 0.266260 0.675174 -0.873890
C41   C     C_3   0.554103 0.281867 0.400277 -0.416866
C42   C     C_3   0.575800 0.247512 0.360358 -0.346594
C43   C     C_3   0.608983 0.266328 0.310968 -0.873849
C44   C     C_3   0.564810 0.718143 0.593043 -0.417181
C45   C     C_3   0.590831 0.752499 0.630285 -0.346396
C46   C     C_1   0.499902 0.336600 0.499988 -0.079222
C47   C     C_3   0.629242 0.733680 0.675729 -0.873870
C48   C     C_3   0.065603 0.218153 0.907496 -0.417203
C49   C     C_3   0.091902 0.252513 0.870456 -0.346367
C50   C     C_3   0.130780 0.233707 0.825400 -0.873874
C51   C     C_3   0.056533 0.781867 0.098332 -0.416922
C52   C     C_3   0.079248 0.747513 0.137683 -0.346547
C53   C     C_3   0.113565 0.766338 0.186287 -0.873849
C54   C     C_3   0.062816 0.781857 0.905585 -0.417123
C55   C     C_3   0.088030 0.747500 0.867793 -0.346411
C56   C     C_3   0.125470 0.766317 0.821546 -0.873902
C57   C     C_1   0.999901 0.163400 0.000005 -0.079221
C58   C     C_3   0.053637 0.218135 0.099962 -0.416853
C59   C     C_3   0.075137 0.252491 0.139986 -0.346598
C60   C     C_3   0.108122 0.233679 0.189512 -0.873850
C61   C     C_1   0.999883 0.836600 0.000004 -0.079226
C62   C     C_1   0.499924 1.000000 0.330301 -0.194421
C63   C     C_1   0.499925 0.000000 0.669698 -0.194424
C64   C     C_1   0.999924 0.500000 0.830301 -0.194421
C65   C     C_R   0.499933 1.000000 0.609567 0.908201
C66   C     C_1   0.999925 0.500000 0.169699 -0.194425
C67   C     C_1   0.500036 1.000000 0.279597 0.003224
C68   C     C_1   0.500038 0.000000 0.720403 0.003238
C69   C     C_1   0.000036 0.500000 0.779597 0.003240
C70   C     C_1   0.000038 0.500000 0.220403 0.003223
C71   C     C_1   0.500285 1.000000 0.220409 0.004210
C72   C     C_1   0.500286 0.000000 0.779591 0.004216
C73   C     C_1   0.000285 0.499999 0.720409 0.004217
C74   C     C_1   0.000286 0.500000 0.279591 0.004208
C75   C     C_1   0.500561 1.000000 0.169705 -0.190134
C76   C     C_R   0.999933 0.500000 0.890433 0.908203
C77   C     C_1   0.500562 0.000000 0.830295 -0.190131
C78   C     C_1   0.000561 0.500000 0.669705 -0.190131
C79   C     C_1   0.000562 0.500000 0.330295 -0.190136
C80   C     C_R   0.609851 0.500000 0.500000 0.906851
C81   C     C_R   0.109852 1.000000 0.000000 0.906850
C82   C     C_R   0.500027 0.581505 0.500000 0.913199
C83   C     C_R   0.500031 0.418495 0.500000 0.913200
C84   C     C_R   0.000031 0.081505 1.000000 0.913199
C85   C     C_R   0.000028 0.918495 0.000000 0.913201
C86   C     C_R   0.390616 0.500000 0.500000 0.911262
C87   C     C_R   0.999933 0.500000 0.109566 0.908238
C88   C     C_R   0.890616 0.000000 1.000000 0.911263
C89   C     C_R   0.499760 0.918606 0.499999 0.912299
C90   C     C_R   0.499759 0.081394 0.499998 0.912302
C91   C     C_R   0.999760 0.418606 0.000000 0.912300
C92   C     C_R   0.999759 0.581394 0.000000 0.912300
C93   C     C_R   0.392002 0.000000 1.000000 0.890746
C94   C     C_R   0.892002 0.500000 0.500000 0.890746
C95   C     C_R   0.500917 1.000000 0.109572 0.907056
C96   C     C_R   0.500918 0.000000 0.890428 0.907066
C97   C     C_R   0.000917 0.500000 0.609572 0.907066
C98   C     C_3   0.445432 0.735709 0.502915 -0.259503
C99   C     C_R   0.000918 0.500000 0.390428 0.907056
C100  C     C_R   0.610990 1.000000 0.000000 0.922365
C101  C     C_R   0.110990 0.500000 0.500000 0.922365
C102  C     C_1   0.670293 0.500000 0.500001 -0.195702
C103  C     C_1   0.170293 0.000000 0.000000 -0.195701
C104  C     C_1   0.721183 0.500000 0.500001 0.004169
C105  C     C_1   0.221183 0.000000 1.000000 0.004169
C106  C     C_1   0.280668 0.000001 1.000000 0.005900
C107  C     C_1   0.780668 0.500001 0.500001 0.005901
C108  C     C_1   0.331560 0.000001 0.999999 -0.184225
C109  C     C_3   0.445462 0.264301 0.503089 -0.259489
C110  C     C_1   0.831560 0.500001 0.500001 -0.184224
C111  C     C_1   0.330784 0.500000 0.499999 -0.192585
C112  C     C_1   0.830784 1.000000 0.999999 -0.192585
C113  C     C_1   0.280254 0.499999 0.499999 0.002776
C114  C     C_1   0.780254 1.000000 1.000000 0.002776
C115  C     C_1   0.721353 0.999999 1.000000 0.003035
C116  C     C_1   0.221353 0.499999 0.499999 0.003035
C117  C     C_3   0.523936 0.736434 0.452167 0.119026
C118  C     C_3   0.529116 0.263551 0.544809 0.119217
C119  C     C_3   0.523788 0.263565 0.452071 0.119026
C120  C     C_3   0.945479 0.235702 0.996637 -0.259473
C121  C     C_3   0.528943 0.736442 0.544922 0.119210
C122  C     C_3   0.029330 0.236446 0.955314 0.119212
C123  C     C_3   0.024956 0.763563 0.047299 0.119061
C124  C     C_3   0.027982 0.763558 0.954458 0.119173
C125  C     C_3   0.023564 0.236436 0.048025 0.119013
C126  C     C_1   0.670822 0.999999 0.000000 -0.196094
C127  C     C_1   0.170822 0.499999 0.499999 -0.196094
C128  C     C_3   0.469867 0.763681 0.455078 0.119756
C129  C     C_3   0.475051 0.236313 0.547907 0.120008
C130  C     C_3   0.469723 0.236326 0.455166 0.119788
C131  C     C_3   0.945387 0.764295 0.998236 -0.259495
C132  C     C_3   0.474875 0.763689 0.547836 0.119991
C133  C     C_3   0.975281 0.263687 0.951959 0.120023
C134  C     C_3   0.970835 0.736319 0.045539 0.119817
C135  C     C_3   0.973861 0.736315 0.952696 0.119953
C136  C     C_3   0.969516 0.263677 0.044673 0.119785
C137  C     C_1   0.499358 0.874179 0.500003 -0.190201
C138  C     C_1   0.499354 0.125820 0.499995 -0.190194
C139  C     C_1   0.999357 0.374179 0.999994 -0.190197
C140  C     C_1   0.999356 0.625820 0.999997 -0.190198
C141  C     C_1   0.499930 0.625934 0.499998 -0.190255
C142  C     C_1   0.499109 0.836716 0.500008 -0.078884
C143  C     C_1   0.499947 0.374066 0.499998 -0.190248
C144  C     C_1   0.999946 0.125934 0.000000 -0.190251
C145  C     C_1   0.999935 0.874066 0.000001 -0.190252
C146  C     C_3   0.553374 0.764407 0.497086 -0.259386
C147  C     C_3   0.553372 0.235583 0.496887 -0.259429
C148  C     C_3   0.053361 0.264414 0.003348 -0.259451
C149  C     C_3   0.053425 0.735589 0.001759 -0.259403
C150  C     C_3   0.498855 0.791272 0.500023 0.073806
C151  C     C_3   0.498857 0.208727 0.500010 0.073792
C152  C     C_3   0.998862 0.291273 0.999966 0.073794
H1    H     H_    0.401582 0.723108 0.505283 0.142030
H2    H     H_    0.394219 0.788044 0.296503 0.262575
H3    H     H_    0.150611 0.783945 0.169491 0.262038
H4    H     H_    0.086644 0.787823 0.211833 0.261900
H5    H     H_    0.129275 0.740827 0.214257 0.250337
H6    H     H_    0.043488 0.729386 0.155931 0.224985
H7    H     H_    0.106834 0.725663 0.113404 0.223663
H8    H     H_    0.092585 0.800904 0.082158 0.206342
H9    H     H_    0.027756 0.803138 0.122027 0.197005
H10   H     H_    0.100300 0.787825 0.794307 0.261912
H11   H     H_    0.161357 0.783898 0.840738 0.262086
H12   H     H_    0.142949 0.740805 0.794650 0.250295
H13   H     H_    0.351544 0.741044 0.297700 0.249970
H14   H     H_    0.113951 0.725633 0.893817 0.223709
H15   H     H_    0.053526 0.729393 0.847238 0.224976
H16   H     H_    0.035648 0.803134 0.880069 0.196985
H17   H     H_    0.097746 0.800887 0.924071 0.206273
H18   H     H_    0.080559 0.212118 0.214245 0.261916
H19   H     H_    0.145690 0.216157 0.173743 0.261986
H20   H     H_    0.122944 0.259189 0.217962 0.250376
H21   H     H_    0.103336 0.274403 0.116528 0.223683
H22   H     H_    0.038823 0.270547 0.157243 0.224975
H23   H     H_    0.024197 0.196839 0.122787 0.196970
H24   H     H_    0.442043 0.729570 0.348401 0.224967
H25   H     H_    0.090173 0.199125 0.084848 0.206422
H26   H     H_    0.382602 0.725812 0.396230 0.223491
H27   H     H_    0.399488 0.801039 0.426209 0.207211
H28   H     H_    0.460638 0.803296 0.380905 0.195252
H29   H     H_    0.352394 0.215921 0.673077 0.261868
H30   H     H_    0.417355 0.211947 0.713862 0.262673
H31   H     H_    0.374868 0.258976 0.717392 0.249901
H32   H     H_    0.459237 0.270415 0.657034 0.224933
H33   H     H_    0.401624 0.276908 0.505608 0.142017
H34   H     H_    0.394890 0.274210 0.616044 0.223542
H35   H     H_    0.408310 0.198959 0.584404 0.207102
H36   H     H_    0.474109 0.196706 0.622654 0.195214
H37   H     H_    0.393546 0.212018 0.296835 0.262561
H38   H     H_    0.333624 0.215928 0.344723 0.261825
H39   H     H_    0.350885 0.259023 0.298196 0.249990
H40   H     H_    0.382260 0.274218 0.396635 0.223497
H41   H     H_    0.441545 0.270473 0.348613 0.224953
H42   H     H_    0.460230 0.196729 0.381011 0.195263
H43   H     H_    0.399234 0.198986 0.426525 0.207212
H44   H     H_    0.901652 0.223096 0.993910 0.142008
H45   H     H_    0.416694 0.788086 0.713606 0.262665
H46   H     H_    0.351845 0.784119 0.672642 0.261868
H47   H     H_    0.374183 0.741065 0.717031 0.249916
H48   H     H_    0.394482 0.725813 0.615741 0.223542
H49   H     H_    0.458713 0.729604 0.656912 0.224967
H50   H     H_    0.473681 0.803316 0.622559 0.195222
H51   H     H_    0.408007 0.801045 0.584100 0.207096
H52   H     H_    0.853342 0.284153 0.826077 0.261888
H53   H     H_    0.918555 0.288025 0.785679 0.262654
H54   H     H_    0.875988 0.241045 0.781943 0.249903
H55   H     H_    0.901498 0.776898 0.996805 0.142024
H56   H     H_    0.959975 0.229548 0.842816 0.224961
H57   H     H_    0.895377 0.225837 0.883419 0.223524
H58   H     H_    0.908727 0.301052 0.915135 0.207062
H59   H     H_    0.974712 0.303293 0.877210 0.195246
H60   H     H_    0.837510 0.715887 0.159296 0.261828
H61   H     H_    0.898594 0.711968 0.205693 0.262589
H62   H     H_    0.855908 0.758970 0.205404 0.249976
H63   H     H_    0.945299 0.770437 0.152778 0.224964
H64   H     H_    0.884848 0.774193 0.106231 0.223503
H65   H     H_    0.901085 0.698966 0.075904 0.207187
H66   H     H_    0.597226 0.777005 0.494718 0.142998
H67   H     H_    0.963190 0.696707 0.119894 0.195246
H68   H     H_    0.912176 0.711940 0.788192 0.262652
H69   H     H_    0.848208 0.715889 0.830520 0.261868
H70   H     H_    0.869587 0.758954 0.785684 0.249909
H71   H     H_    0.892027 0.774193 0.886525 0.223527
H72   H     H_    0.955372 0.770415 0.844003 0.224967
H73   H     H_    0.971071 0.696694 0.878009 0.195229
H74   H     H_    0.906232 0.698963 0.917860 0.207116
H75   H     H_    0.892639 0.287974 0.202663 0.262551
H76   H     H_    0.832927 0.284104 0.154507 0.261829
H77   H     H_    0.597212 0.222978 0.494364 0.143021
H78   H     H_    0.849947 0.240989 0.201088 0.249991
H79   H     H_    0.881748 0.225805 0.102784 0.223488
H80   H     H_    0.940824 0.229515 0.151069 0.224952
H81   H     H_    0.959683 0.303271 0.118786 0.195275
H82   H     H_    0.898901 0.301026 0.072984 0.207207
H83   H     H_    0.646877 0.715976 0.327255 0.262019
H84   H     H_    0.581988 0.712196 0.286321 0.261876
H85   H     H_    0.624655 0.759144 0.283010 0.250377
H86   H     H_    0.540184 0.770641 0.343214 0.224993
H87   H     H_    0.604459 0.774285 0.384338 0.223635
H88   H     H_    0.097189 0.277017 0.006076 0.143037
H89   H     H_    0.590782 0.699069 0.415871 0.206348
H90   H     H_    0.525118 0.696866 0.377389 0.197024
H91   H     H_    0.665388 0.283798 0.655037 0.262095
H92   H     H_    0.605577 0.287802 0.703049 0.261936
H93   H     H_    0.648119 0.240739 0.701620 0.250262
H94   H     H_    0.557329 0.229391 0.651396 0.224937
H95   H     H_    0.616507 0.225570 0.603253 0.223737
H96   H     H_    0.599622 0.300867 0.573456 0.206275
H97   H     H_    0.538647 0.303106 0.619003 0.196943
H98   H     H_    0.581508 0.287869 0.286105 0.261910
H99   H     H_    0.097317 0.722988 0.003190 0.143011
H100  H     H_    0.646465 0.283873 0.326893 0.261999
H101  H     H_    0.623953 0.240818 0.282595 0.250369
H102  H     H_    0.603915 0.225616 0.383946 0.223676
H103  H     H_    0.539574 0.229437 0.342952 0.224977
H104  H     H_    0.524765 0.303159 0.377312 0.196982
H105  H     H_    0.590562 0.300882 0.415562 0.206403
H106  H     H_    0.604650 0.712180 0.703502 0.261916
H107  H     H_    0.664707 0.716091 0.655783 0.262118
H108  H     H_    0.647297 0.759193 0.702244 0.250255
H109  H     H_    0.616198 0.774360 0.603712 0.223714
H110  H     H_    0.334143 0.784126 0.344196 0.261825
H111  H     H_    0.556777 0.770614 0.651564 0.224974
H112  H     H_    0.538188 0.696871 0.619135 0.196982
H113  H     H_    0.599333 0.699107 0.573819 0.206246
H114  H     H_    0.166101 0.216184 0.845705 0.262104
H115  H     H_    0.106501 0.212149 0.797435 0.261936
H116  H     H_    0.149018 0.259221 0.799015 0.250252
H117  H     H_    0.058009 0.270572 0.848832 0.224963
H118  H     H_    0.116972 0.274423 0.897236 0.223741
H119  H     H_    0.099981 0.199136 0.927012 0.206268
H120  H     H_    0.039214 0.196865 0.881191 0.196944
O1    O     O_R   0.546670 0.000000 0.417240 -0.616270
O2    O     O_R   0.453230 0.000000 0.582690 -0.615571
O3    O     O_R   0.953230 0.500000 0.917310 -0.615573
O4    O     O_R   0.953230 0.500000 0.082690 -0.615593
O5    O     O_R   0.546670 0.938190 0.500000 -0.618059
O6    O     O_R   0.546670 0.061810 0.500000 -0.618061
O7    O     O_R   0.046670 0.438190 0.000000 -0.618060
O8    O     O_R   0.046670 0.561810 0.000000 -0.618058
O9    O     O_R   0.453220 0.938690 0.500000 -0.618054
O10   O     O_R   0.453220 0.061310 0.500000 -0.618054
O11   O     O_R   0.953220 0.438690 0.000000 -0.618054
O12   O     O_R   0.546670 0.000000 0.582760 -0.616326
O13   O     O_R   0.953220 0.561310 0.000000 -0.618055
O14   O     O_R   0.582830 0.500000 0.453340 -0.615474
O15   O     O_R   0.582830 0.500000 0.546660 -0.615493
O16   O     O_R   0.082830 0.000000 0.953340 -0.615492
O17   O     O_R   0.082830 0.000000 0.046660 -0.615475
O18   O     O_R   0.500060 0.561660 0.453320 -0.618698
O19   O     O_R   0.500060 0.438340 0.546680 -0.618621
O20   O     O_R   0.500060 0.438340 0.453320 -0.618702
O21   O     O_R   0.500060 0.561660 0.546680 -0.618621
O22   O     O_R   0.000060 0.061660 0.953320 -0.618616
O23   O     O_R   0.046670 0.500000 0.917240 -0.616320
O24   O     O_R   0.000060 0.938340 0.046680 -0.618681
O25   O     O_R   0.000060 0.938340 0.953320 -0.618641
O26   O     O_R   0.000060 0.061660 0.046680 -0.618705
O27   O     O_R   0.417300 0.500000 0.453300 -0.616911
O28   O     O_R   0.417300 0.500000 0.546700 -0.616869
O29   O     O_R   0.917300 0.000000 0.953300 -0.616874
O30   O     O_R   0.917300 0.000000 0.046700 -0.616905
O31   O     O_R   0.418390 0.964110 0.000000 -0.612896
O32   O     O_R   0.418390 0.035890 0.000000 -0.612897
O33   O     O_R   0.918390 0.464110 0.500000 -0.612897
O34   O     O_R   0.046670 0.500000 0.082760 -0.616274
O35   O     O_R   0.918390 0.535890 0.500000 -0.612898
O36   O     O_R   0.501120 0.965270 0.082820 -0.615320
O37   O     O_R   0.501120 0.034730 0.917180 -0.615322
O38   O     O_R   0.501120 0.034730 0.082820 -0.615321
O39   O     O_R   0.501120 0.965270 0.917180 -0.615322
O40   O     O_R   0.001120 0.465270 0.582820 -0.615322
O41   O     O_R   0.001120 0.534730 0.417180 -0.615321
O42   O     O_R   0.001120 0.534730 0.582820 -0.615322
O43   O     O_R   0.001120 0.465270 0.417180 -0.615321
O44   O     O_R   0.583860 0.966430 0.000000 -0.616851
O45   O     O_R   0.583860 0.033570 0.000000 -0.616851
O46   O     O_R   0.083860 0.466430 0.500000 -0.616851
O47   O     O_R   0.083860 0.533570 0.500000 -0.616850
O48   O     O_R   0.453230 0.000000 0.417310 -0.615596
Zn1   Zn    Zn3+2 0.562350 0.000000 0.500000 0.962886
Zn2   Zn    Zn3+2 0.501530 0.046390 0.000000 0.966218
Zn3   Zn    Zn3+2 0.001530 0.453610 0.500000 0.966218
Zn4   Zn    Zn3+2 0.001530 0.546390 0.500000 0.966219
Zn5   Zn    Zn3+2 0.062350 0.500000 0.000000 0.962888
Zn6   Zn    Zn3+2 0.437550 0.000000 0.500000 0.960259
Zn7   Zn    Zn3+2 0.937550 0.500000 0.000000 0.960259
Zn8   Zn    Zn3+2 0.500080 0.500000 0.437650 0.961164
Zn9   Zn    Zn3+2 0.500080 0.500000 0.562350 0.961225
Zn10  Zn    Zn3+2 0.000080 0.000000 0.937650 0.961215
Zn11  Zn    Zn3+2 0.000080 0.000000 0.062350 0.961173
Zn12  Zn    Zn3+2 0.501530 0.953610 0.000000 0.966220

loop_
_geom_bond_atom_site_label_1
_geom_bond_atom_site_label_2
_ccdc_geom_bond_type
C63   C65   S    
C90   O10   A    
C51   C123  S    
O7    Zn5   S    
C18   C132  S    
C19   C20   S    
C10   H2    S    
C114  C115  S    
C75   C95   S    
C30   H70   S    
C17   H39   S    
C41   H104  S    
C19   H48   S    
C120  H44   S    
O46   Zn3   S    
C5    C119  S    
C13   C139  T    
C79   C99   S    
O15   Zn9   S    
C38   H97   S    
C42   H102  S    
C86   O27   A    
C56   H10   S    
C44   C121  S    
C119  C130  S    
C132  C150  S    
C9    H24   S    
C120  C133  S    
C16   H41   S    
C146  C150  S    
C48   H119  S    
C70   C74   S    
C18   H51   S    
O48   Zn6   S    
C96   O37   A    
C43   H101  S    
C59   C60   S    
C21   C22   S    
C54   H17   S    
C82   C141  S    
C11   C129  S    
C21   C133  S    
C14   H30   S    
C45   C47   S    
C52   H6    S    
C31   H82   S    
C3    C149  S    
C123  C134  S    
C51   C52   S    
C2    C138  T    
C88   O30   A    
C83   O19   A    
C31   C136  S    
C109  H33   S    
C85   O24   A    
C24   C140  T    
C10   H110  S    
C117  C146  S    
C95   O38   A    
C8    H28   S    
C47   H108  S    
C68   C72   S    
O26   Zn11  S    
C22   H56   S    
C111  C113  T    
C81   O16   A    
C20   H46   S    
C40   H92   S    
O39   Zn12  S    
C128  C150  S    
C74   C79   T    
O10   Zn6   S    
C107  C110  T    
C22   H57   S    
C30   H68   S    
C101  O46   A    
O21   Zn9   S    
C50   H115  S    
O33   Zn3   S    
C124  C135  S    
C148  H88   S    
C6    C125  S    
C7    C123  S    
C92   O13   A    
C33   H75   S    
C125  C148  S    
C44   H113  S    
O40   Zn3   S    
C5    C46   S    
C56   H12   S    
C80   O14   A    
O12   Zn1   S    
C118  C129  S    
C83   C143  S    
C147  H77   S    
C66   C70   T    
C59   H22   S    
O28   Zn9   S    
C117  C128  S    
C96   O39   A    
C146  H66   S    
C22   C23   S    
O9    Zn6   S    
C55   H14   S    
C104  C107  S    
O2    Zn6   S    
C29   H72   S    
C137  C142  T    
C32   H80   S    
O27   Zn8   S    
C28   C135  S    
C131  H55   S    
C1    C62   S    
C112  C114  T    
C40   H93   S    
C122  C133  S    
C15   C130  S    
C100  C126  S    
C118  C147  S    
O34   Zn5   S    
C85   C145  S    
O31   Zn12  S    
C38   C39   S    
C84   C144  S    
C47   H106  S    
C19   H49   S    
C21   H58   S    
O25   Zn10  S    
C15   H42   S    
O45   Zn2   S    
C8    C128  S    
C85   O25   A    
C27   H62   S    
O4    Zn7   S    
C91   O11   A    
C9    C10   S    
C67   C71   S    
C100  O45   A    
C36   H87   S    
C23   H53   S    
C34   H89   S    
C3    C24   S    
C90   C138  S    
O8    Zn5   S    
C37   H83   S    
C11   H36   S    
C76   O23   A    
C39   C40   S    
C25   C26   S    
C76   O3    A    
C80   C102  S    
C88   C112  S    
C92   O8    A    
C147  C151  S    
C29   C30   S    
C39   H94   S    
C45   H109  S    
C31   C32   S    
C38   H96   S    
C78   C97   S    
C89   O5    A    
C103  C105  T    
C64   C69   T    
C91   O7    A    
O37   Zn2   S    
C53   H3    S    
C122  C148  S    
C109  C129  S    
C97   O42   A    
C4    C117  S    
C121  C132  S    
C52   C53   S    
C81   C103  S    
C54   C55   S    
C41   H105  S    
C57   C144  T    
C60   H19   S    
C148  C152  S    
C54   H16   S    
C28   H73   S    
C17   H38   S    
C77   C96   S    
O1    Zn1   S    
C5    C118  S    
C3    C134  S    
C99   O43   A    
C86   C111  S    
C106  C108  T    
C42   H103  S    
C86   O28   A    
C27   H60   S    
C101  C127  S    
C65   O12   A    
C34   C36   S    
O35   Zn4   S    
C48   H120  S    
C97   O40   A    
C49   C50   S    
C98   C132  S    
C121  C146  S    
C81   O17   A    
O13   Zn7   S    
C55   C56   S    
C41   C42   S    
C93   O32   A    
C25   H65   S    
C58   H23   S    
C55   H15   S    
C124  C149  S    
C131  C134  S    
C50   H114  S    
C14   H31   S    
C87   O34   A    
C31   H81   S    
C26   C27   S    
C115  C126  T    
C28   C29   S    
C129  C151  S    
C93   C108  S    
O16   Zn10  S    
C45   H111  S    
C84   O22   A    
C119  C147  S    
C51   H8    S    
C26   H64   S    
C18   C19   S    
C61   C145  T    
C7    C61   S    
C136  C152  S    
C63   C68   T    
O19   Zn9   S    
C47   H107  S    
C16   C17   S    
C116  C127  T    
C69   C73   S    
C7    C131  S    
C15   H43   S    
C49   H118  S    
C98   C128  S    
C4    C35   S    
C6    C57   S    
C133  C152  S    
O30   Zn11  S    
C100  O44   A    
C30   H69   S    
C36   H86   S    
C50   H116  S    
C99   O41   A    
O36   Zn12  S    
C58   C59   S    
C94   C110  S    
C120  C136  S    
O6    Zn1   S    
C12   H34   S    
O23   Zn5   S    
C18   H50   S    
C41   C119  S    
C25   C134  S    
C91   C139  S    
C125  C136  S    
C48   C49   S    
C89   C137  S    
C94   O35   A    
C25   H67   S    
C42   C43   S    
O41   Zn4   S    
C92   C140  S    
C95   O36   A    
C14   H29   S    
O11   Zn7   S    
C44   C45   S    
O22   Zn10  S    
C2    C151  S    
C29   H71   S    
C54   C124  S    
O47   Zn4   S    
C36   C37   S    
C88   O29   A    
C13   C152  S    
C82   O21   A    
C44   H112  S    
O14   Zn8   S    
C83   O20   A    
O38   Zn2   S    
C105  C106  S    
C23   H52   S    
C89   O9    A    
C90   O6    A    
C60   H18   S    
C32   C33   S    
C142  C150  S    
C8    H27   S    
C12   H32   S    
C5    C109  S    
O44   Zn12  S    
C4    C121  S    
C51   H9    S    
C3    C135  S    
C20   H45   S    
C40   H91   S    
C38   C118  S    
C130  C151  S    
C27   H61   S    
C26   H63   S    
O32   Zn2   S    
C9    H26   S    
C101  O47   A    
C149  H99   S    
C123  C149  S    
C4    C98   S    
C34   H90   S    
O3    Zn7   S    
C7    C124  S    
C33   H76   S    
C56   H11   S    
C62   C67   T    
C11   H35   S    
C131  C135  S    
C48   C122  S    
C15   C16   S    
C1    O48   A    
C16   H40   S    
O43   Zn3   S    
C43   H100  S    
O17   Zn11  S    
C8    C9    S    
C94   O33   A    
C73   C78   T    
C82   O18   A    
C1    O1    A    
C113  C116  S    
C52   H7    S    
C32   H79   S    
C6    C120  S    
C84   O26   A    
C60   H20   S    
C28   H74   S    
C66   C87   S    
C17   H37   S    
C21   H59   S    
O29   Zn10  S    
C20   H47   S    
C72   C77   T    
C37   H85   S    
C64   C76   S    
C102  C104  T    
C35   C141  T    
C12   C14   S    
C23   H54   S    
C58   C125  S    
C39   H95   S    
C87   O4    A    
C6    C122  S    
C33   H78   S    
O18   Zn8   S    
C37   H84   S    
O42   Zn4   S    
C80   O15   A    
O5    Zn1   S    
C65   O2    A    
C93   O31   A    
C59   H21   S    
C11   C12   S    
C46   C143  T    
C53   H5    S    
O24   Zn11  S    
C71   C75   T    
C43   H98   S    
C34   C117  S    
C10   H13   S    
C58   H25   S    
C98   H1    S    
C53   H4    S    
C109  C130  S    
O20   Zn8   S    
C49   H117  S    
