data_mof_unit_52078.cif
_audit_creation_date              2013-03-05T16:03:03-0500
_audit_creation_method            fapswitch 2.2
_symmetry_space_group_name_H-M    P1
_symmetry_Int_Tables_number       1
_space_group_crystal_system       triclinic
_cell_length_a                    6.961042
_cell_length_b                    18.330645
_cell_length_c                    20.195137
_cell_angle_alpha                 68.284144
_cell_angle_beta                  91.532249
_cell_angle_gamma                 91.27122
_cell_volume                      2392.95914826

loop_
_atom_site_label
_atom_site_type_symbol
_atom_site_description
_atom_site_fract_x
_atom_site_fract_y
_atom_site_fract_z
_atom_type_partial_charge
O1    O     O_R   0.488990 0.443920 0.942160 -0.591360
O2    O     O_R   0.823840 0.406530 0.087600 -0.597183
O3    O     O_R   0.999650 0.556080 0.057840 -0.625852
C1    C     C_R   0.655749 0.383938 0.115368 0.898229
O4    O     O_R   0.818390 0.434590 0.944530 -0.584682
O5    O     O_R   0.994160 0.584350 0.913750 -0.593522
C2    C     C_R   0.647088 0.420272 0.924554 0.972136
O6    O     O_R   0.494480 0.415650 0.086250 -0.577786
O7    O     O_3   0.662600 0.549100 0.990070 -0.283163
V1    V     V_3+5 0.935320 0.490890 0.001840 1.162905
O8    O     O_R   0.324240 0.593470 0.912400 -0.596871
C3    C     C_R   0.154638 0.616369 0.884806 0.927232
O9    O     O_R   0.329690 0.565410 0.055470 -0.558870
C4    C     C_R   0.163486 0.580080 0.075487 0.998302
V2    V     V_3+5 0.435990 0.509110 0.998160 1.181660
O10   O     O_3   0.158840 0.450900 0.009930 -0.265490
C5    C     C_3   0.917657 0.715208 0.226430 0.494230
C6    C     C_3   0.275271 0.683885 0.266200 -0.382744
C7    C     C_3   0.263117 0.730383 0.316162 -0.334123
H1    H     H_    0.882072 0.712996 0.337454 0.168001
H2    H     H_    0.424309 0.689628 0.246400 0.189544
H3    H     H_    0.252831 0.620280 0.296724 0.224400
H4    H     H_    0.223119 0.689323 0.370360 0.190570
H5    H     H_    0.406937 0.755199 0.321935 0.213596
C8    C     C_1   0.103345 0.876426 0.376842 -0.223480
C9    C     C_3   0.133197 0.715822 0.201232 0.206087
C10   C     C_3   0.916847 0.755793 0.283266 -0.473003
C11   C     C_3   0.112906 0.796442 0.287542 0.224252
C12   C     C_3   0.162739 0.852087 0.209780 -0.141857
C13   C     C_3   0.194653 0.803413 0.161739 -0.427930
C14   C     C_1   0.104488 0.840296 0.336947 -0.019594
C15   C     C_1   0.153732 0.667454 0.156009 -0.087702
C16   C     C_1   0.160671 0.627611 0.119373 -0.228764
H6    H     H_    0.114795 0.830796 0.110489 0.162324
H7    H     H_    0.348025 0.806401 0.147841 0.220412
H8    H     H_    0.036026 0.890138 0.187356 0.116791
H9    H     H_    0.801240 0.800118 0.269649 0.232712
H10   H     H_    0.450149 0.550785 0.697071 0.118242
C17   C     C_R   0.969749 0.761013 0.872872 -0.164435
C18   C     C_R   0.887746 0.830340 0.870256 -0.115898
C19   C     C_R   0.905702 0.897773 0.809894 -0.195610
C20   C     C_R   0.003273 0.897050 0.750845 -0.064475
C21   C     C_R   0.063387 0.823980 0.748103 0.110832
C22   C     C_R   0.057511 0.755852 0.812352 0.110953
C23   C     C_R   0.127105 0.816544 0.684367 -0.296674
C24   C     C_R   0.208675 0.744883 0.687467 0.061663
C25   C     C_R   0.222283 0.680101 0.753520 0.134781
C26   C     C_R   0.143755 0.684952 0.815872 -0.309272
C27   C     C_R   0.277213 0.736300 0.625262 -0.155641
C28   C     C_R   0.364747 0.666979 0.628273 0.042455
C29   C     C_R   0.382476 0.604791 0.693647 -0.260245
C30   C     C_R   0.309506 0.610455 0.755065 -0.144876
H11   H     H_    0.962321 0.711880 0.923049 0.117752
H12   H     H_    0.818687 0.832806 0.916688 0.122208
H13   H     H_    0.855153 0.952681 0.810484 0.154934
H14   H     H_    0.263636 0.783290 0.573736 0.138852
H15   H     H_    0.321329 0.559061 0.803494 0.128000
H16   H     H_    0.639119 0.472008 0.324600 0.170958
C31   C     C_R   0.673151 0.225191 0.122604 -0.148861
C32   C     C_R   0.682450 0.148934 0.123678 -0.065607
C33   C     C_R   0.665742 0.085208 0.187466 -0.131621
C34   C     C_R   0.641244 0.097207 0.250849 -0.184311
C35   C     C_R   0.636933 0.174015 0.251800 0.108749
C36   C     C_R   0.652115 0.239497 0.186359 0.120190
C37   C     C_R   0.622784 0.185840 0.316812 -0.254991
C38   C     C_R   0.634845 0.263201 0.316873 0.064314
C39   C     C_R   0.640094 0.330163 0.251230 0.030187
C40   C     C_R   0.647622 0.317395 0.185382 -0.277271
C41   C     C_R   0.649655 0.274425 0.382462 -0.275955
C42   C     C_R   0.666592 0.348983 0.384975 0.585746
C43   C     C_R   0.643568 0.414155 0.322028 -0.279415
C44   C     C_R   0.637100 0.406708 0.255620 -0.107389
H17   H     H_    0.685787 0.272561 0.071322 0.101776
H18   H     H_    0.703964 0.139198 0.074798 0.151724
H19   H     H_    0.673431 0.026160 0.187899 0.163049
H20   H     H_    0.629294 0.045581 0.299131 0.121895
H21   H     H_    0.657053 0.225177 0.432813 0.121708
O11   O     O_R   0.770890 0.084490 0.414040 -0.591927
O12   O     O_R   0.445980 0.065450 0.555510 -0.548401
O13   O     O_R   0.270670 0.915620 0.586180 -0.559109
C45   C     C_R   0.615821 0.077192 0.578170 0.995035
O14   O     O_R   0.441480 0.093500 0.412450 -0.594436
O15   O     O_R   0.266140 0.943870 0.442100 -0.588475
C46   C     C_R   0.610236 0.116732 0.385262 0.926021
O16   O     O_R   0.775410 0.056240 0.558120 -0.612873
O17   O     O_3   0.602660 0.950990 0.510100 -0.269900
V3    V     V_3+5 0.329740 0.009100 0.498130 1.214234
O18   O     O_R   0.936120 0.934420 0.444240 -0.593274
C47   C     C_R   0.102200 0.920683 0.423595 0.960779
O19   O     O_R   0.940610 0.906370 0.587310 -0.608106
C48   C     C_R   0.110782 0.883075 0.614523 0.985346
V4    V     V_3+5 0.829110 0.990690 0.501470 1.184597
O20   O     O_3   0.106080 0.049010 0.489880 -0.269109
C49   C     C_3   0.818722 0.230643 0.723792 -0.457508
C50   C     C_3   0.471052 0.265943 0.689097 -0.251431
C51   C     C_3   0.484038 0.319466 0.733992 -0.446184
H22   H     H_    0.860383 0.272819 0.670640 0.149622
H23   H     H_    0.322349 0.241290 0.693192 0.156003
H24   H     H_    0.528239 0.380331 0.701708 0.161766
H25   H     H_    0.337020 0.325998 0.751030 0.232078
C52   C     C_1   0.631067 0.372689 0.881334 -0.278732
C53   C     C_3   0.614532 0.195401 0.719902 0.058879
C54   C     C_3   0.824192 0.269890 0.780005 0.450657
C55   C     C_3   0.615285 0.282541 0.801376 -0.009544
C56   C     C_3   0.523175 0.199395 0.842303 -0.325849
C57   C     C_3   0.550679 0.142358 0.798979 0.416554
C58   C     C_1   0.620402 0.332471 0.845314 0.042216
C59   C     C_1   0.621830 0.150288 0.671006 -0.042088
C60   C     C_1   0.624038 0.117017 0.628726 -0.256232
H26   H     H_    0.928182 0.183697 0.738379 0.227261
H27   H     H_    0.889010 0.224976 0.828348 0.122938
H28   H     H_    0.366990 0.209585 0.844988 0.215091
O21   O     O_3   0.790935 0.760360 0.169044 -0.640495
C61   C     C_3   0.779867 0.735691 0.109916 0.260307
H29   H     H_    0.777070 0.670798 0.126021 0.102144
H30   H     H_    0.901387 0.761054 0.073828 0.100404
C62   C     C_3   0.599154 0.766298 0.065562 -0.922305
H31   H     H_    0.580190 0.829476 0.055483 0.260804
H32   H     H_    0.607701 0.758433 0.013799 0.212974
H33   H     H_    0.474242 0.731945 0.093641 0.262068
C63   C     C_2   0.329740 0.907466 0.206436 0.499481
H34   H     H_    0.303450 0.969612 0.192206 0.013477
O22   O     O_2   0.493595 0.883403 0.220587 -0.602420
C64   C     C_2   0.062314 0.975441 0.700377 0.484407
H35   H     H_    0.962569 0.023738 0.685189 0.034585
O23   O     O_2   0.228247 0.988559 0.681066 -0.599384
C65   C     C_2   0.437687 0.658360 0.563424 0.486855
H36   H     H_    0.504484 0.603962 0.567165 0.017956
O24   O     O_2   0.424143 0.711532 0.505189 -0.599378
C66   C     C_2   0.834946 0.632526 0.261557 0.314379
H37   H     H_    0.692752 0.618626 0.246444 0.095008
O25   O     O_2   0.921671 0.581855 0.309232 -0.646757
O26   O     O_3   0.701300 0.356076 0.450341 -0.651316
C67   C     C_3   0.854646 0.409927 0.445310 0.259895
H38   H     H_    0.801063 0.470999 0.422610 0.162778
H39   H     H_    0.974177 0.402788 0.412508 0.125498
C68   C     C_3   0.936280 0.397238 0.519009 -0.858022
H40   H     H_    0.982113 0.335432 0.546207 0.260539
H41   H     H_    0.061699 0.437104 0.514659 0.262781
H42   H     H_    0.825164 0.411507 0.550270 0.232007
C69   C     C_2   0.634733 0.482214 0.194345 0.523571
H43   H     H_    0.744348 0.496781 0.154504 0.031130
O27   O     O_2   0.514564 0.531153 0.190360 -0.611670
O28   O     O_3   0.957667 0.333899 0.764725 -0.639758
C70   C     C_3   0.896626 0.404253 0.710711 0.319676
H44   H     H_    0.798329 0.435817 0.732967 0.099597
H45   H     H_    0.826437 0.394303 0.665098 0.084244
C71   C     C_3   0.070148 0.457456 0.682701 -0.939824
H46   H     H_    0.165273 0.431368 0.654402 0.285889
H47   H     H_    0.022768 0.515796 0.644878 0.222886
H48   H     H_    0.151308 0.465103 0.727793 0.263063
C72   C     C_2   0.497704 0.313948 0.610888 0.519595
H49   H     H_    0.606621 0.298754 0.581194 0.098313
O29   O     O_2   0.393660 0.369434 0.579825 -0.596948
O30   O     O_3   0.702946 0.088166 0.830657 -0.642683
C73   C     C_3   0.647689 0.019103 0.888612 0.225774
H50   H     H_    0.600063 0.973170 0.867988 0.097322
H51   H     H_    0.526860 0.027973 0.919573 0.139289
C74   C     C_3   0.819228 0.989133 0.939414 -0.850917
H52   H     H_    0.947336 0.983978 0.909960 0.282804
H53   H     H_    0.855098 0.029905 0.967180 0.251259
H54   H     H_    0.784775 0.930658 0.980079 0.204227
C75   C     C_2   0.363018 0.098777 0.793436 0.298159
H55   H     H_    0.360828 0.060624 0.763342 0.103576
O31   O     O_2   0.217210 0.103552 0.823813 -0.595883
C76   C     C_2   0.591406 0.165659 0.919414 0.539149
H56   H     H_    0.743243 0.158703 0.932964 0.025649
O32   O     O_2   0.475358 0.147048 0.967352 -0.599484

loop_
_geom_bond_atom_site_label_1
_geom_bond_atom_site_label_2
_geom_bond_distance
_ccdc_geom_bond_type
C52   C58   1.212302 T    
O15   V3    1.963932 S    
C35   C37   1.413827 A    
C9    C15   1.500785 S    
C6    H2    1.110620 S    
C19   C20   1.392480 A    
C41   H21   1.082380 S    
C75   H55   1.082720 S    
C6    C9    1.558891 S    
C71   H48   1.109739 S    
C1    O6    1.297936 A    
C54   O28   1.426261 S    
C67   C68   1.515487 S    
O12   V3    1.965455 S    
C61   H29   1.110927 S    
C50   H23   1.112973 S    
C20   C64   1.478164 S    
C17   H11   1.079832 S    
C23   C24   1.422043 A    
C56   C76   1.514564 S    
C68   H41   1.110058 S    
C12   H8    1.114350 S    
C31   C36   1.417606 A    
C12   C13   1.564485 S    
C13   H7    1.106192 S    
C5    C9    1.595643 S    
C36   C40   1.421772 A    
C11   C12   1.566839 S    
C75   O31   1.221130 D    
C71   H47   1.110664 S    
C39   C44   1.438926 A    
O13   V3    2.005065 S    
C69   O27   1.219523 D    
C74   H52   1.109813 S    
O5    C3    1.298464 A    
H16   C43   1.081948 S    
C38   C41   1.414542 A    
V2    O10   2.159296 S    
C51   H24   1.105324 S    
V3    O20   1.712714 S    
C59   C60   1.219727 T    
C54   H27   1.110251 S    
C6    C7    1.547861 S    
C32   H18   1.080810 S    
C19   H13   1.077864 S    
O8    V2    1.998854 S    
O18   V4    1.979123 S    
C12   C63   1.512470 S    
C42   O26   1.387943 S    
C74   H53   1.108919 S    
C53   C59   1.506746 S    
C42   C43   1.393784 A    
O1    V2    1.971047 S    
O7    V1    2.162657 S    
C31   H17   1.081797 S    
C50   C53   1.576523 S    
C3    C26   1.492546 S    
C38   C39   1.435906 A    
C31   C32   1.392882 A    
O1    C2    1.296777 A    
O9    C4    1.301357 A    
C76   O32   1.221233 D    
C34   H20   1.082230 S    
C41   C42   1.388593 A    
C4    C16   1.455367 S    
C55   C56   1.571624 S    
C70   H45   1.103086 S    
O16   V4    1.988070 S    
C70   H44   1.109714 S    
C73   C74   1.525362 S    
C44   C69   1.476389 S    
O15   C47   1.302251 A    
C68   H42   1.105682 S    
O30   C73   1.423544 S    
C13   H6    1.108762 S    
C5    O21   1.440199 S    
C39   C40   1.435431 A    
C5    C10   1.582232 S    
C71   H46   1.109188 S    
C62   H33   1.100890 S    
C17   C18   1.387250 A    
O4    C2    1.300871 A    
O17   V3    2.162642 S    
C37   C46   1.492973 S    
C67   H39   1.116570 S    
H10   C29   1.083977 S    
C49   H22   1.107529 S    
O11   V4    1.996058 S    
C1    C40   1.488369 S    
C49   H26   1.112380 S    
C33   H19   1.081690 S    
C29   C30   1.392321 A    
C18   H12   1.081131 S    
C32   C33   1.387796 A    
C66   O25   1.219104 D    
C21   C22   1.430493 A    
C65   O24   1.221427 D    
C34   C35   1.416155 A    
O19   V4    1.998771 S    
C25   C26   1.419209 A    
C24   C27   1.418493 A    
C28   C29   1.393392 A    
C74   H54   1.108433 S    
C57   C75   1.539233 S    
O18   C47   1.300068 A    
C7    C11   1.549069 S    
C21   C23   1.426576 A    
C63   H34   1.085347 S    
C17   C22   1.415649 A    
O3    C4    1.301252 A    
C18   C19   1.384122 A    
C56   H28   1.113330 S    
C45   C60   1.457803 S    
C49   C54   1.551964 S    
C9    C13   1.561160 S    
O6    V2    2.000609 S    
O14   C46   1.304633 A    
O9    V2    1.978814 S    
O26   C67   1.417399 S    
O14   V3    2.007524 S    
C20   C21   1.432892 A    
C65   H36   1.085907 S    
O2    V1    2.007438 S    
C10   C11   1.556105 S    
C70   C71   1.518594 S    
C7    H4    1.113280 S    
C64   O23   1.219207 D    
O21   C61   1.424556 S    
C56   C57   1.609372 S    
C51   C55   1.556929 S    
C24   C25   1.422877 A    
C73   H50   1.109982 S    
C5    C66   1.522920 S    
C6    H3    1.108606 S    
C8    C47   1.455046 S    
C8    C14   1.217894 T    
C11   C14   1.497964 S    
C57   O30   1.435169 S    
C72   O29   1.220154 D    
O28   C70   1.411419 S    
O5    V1    2.005005 S    
C61   H30   1.107985 S    
O8    C3    1.301640 A    
C25   C30   1.415409 A    
C28   C65   1.479910 S    
H1    C10   1.114472 S    
C27   H14   1.081084 S    
C68   H40   1.110504 S    
C67   H38   1.110017 S    
O12   C45   1.298530 A    
C15   C16   1.219240 T    
O13   C48   1.293907 A    
C62   H32   1.110115 S    
C66   H37   1.080746 S    
C50   C51   1.562923 S    
O4    V1    1.965542 S    
O3    V1    1.963858 S    
V1    O10   1.712703 S    
C62   H31   1.109489 S    
O19   C48   1.304436 A    
C76   H56   1.083031 S    
C10   H9    1.111400 S    
O2    C1    1.302615 A    
C51   H25   1.111232 S    
C73   H51   1.110970 S    
V4    O20   2.159243 S    
C7    H5    1.111574 S    
C37   C38   1.419160 A    
O7    V2    1.710619 S    
C33   C34   1.391989 A    
C23   C48   1.488074 S    
C63   O22   1.220170 D    
C61   C62   1.516154 S    
C30   H15   1.080797 S    
C35   C36   1.423551 A    
O11   C46   1.295409 A    
C43   C44   1.396880 A    
C72   H49   1.081344 S    
C49   C53   1.560341 S    
C27   C28   1.401737 A    
C2    C52   1.445320 S    
C53   C57   1.600938 S    
C54   C55   1.573970 S    
O17   V4    1.707253 S    
C50   C72   1.511062 S    
C69   H43   1.079666 S    
C55   C58   1.491351 S    
C45   O16   1.305231 A    
C22   C26   1.420737 A    
C64   H35   1.083921 S    
