data_mof_unit_29360.cif
_audit_creation_date              2012-12-10T19:13:16-0500
_audit_creation_method            fapswitch 2.2
_symmetry_space_group_name_H-M    P1
_symmetry_Int_Tables_number       1
_space_group_crystal_system       triclinic
_cell_length_a                    16.018351
_cell_length_b                    14.767499
_cell_length_c                    10.959014
_cell_angle_alpha                 89.961687
_cell_angle_beta                  90.063411
_cell_angle_gamma                 89.883454
_cell_volume                      2592.35799334

loop_
_atom_site_label
_atom_site_type_symbol
_atom_type_description
_atom_site_fract_x
_atom_site_fract_y
_atom_site_fract_z
_atom_type_partial_charge
C1    C     C_R   0.341028 0.500055 0.499700 0.837983
C2    C     C_1   0.499559 0.197366 0.500606 0.392707
C3    C     C_R   0.498538 0.499789 0.264679 0.922597
C4    C     C_R   0.501181 0.499727 0.735366 0.917476
C5    C     C_2   0.511894 0.427182 0.936770 0.308611
C6    C     C_2   0.485122 0.427780 0.063678 0.345338
C7    C     C_2   0.491818 0.498843 0.866589 -0.487396
C8    C     C_2   0.507047 0.498874 0.133401 -0.529882
C9    C     C_R   0.956858 0.589516 0.472458 0.050523
C10   C     C_R   0.045857 0.586277 0.471640 0.035073
C11   C     C_R   0.912446 0.506477 0.489563 0.064928
C12   C     C_R   0.659025 0.499926 0.499342 0.834225
C13   C     C_R   0.087588 0.502726 0.489030 0.047852
C14   C     C_R   0.955201 0.422658 0.503886 0.040728
C15   C     C_R   0.043524 0.420815 0.502293 0.048596
C16   C     C_1   0.822714 0.503932 0.492187 -0.049918
C17   C     C_1   0.177532 0.501131 0.493439 -0.051099
C18   C     C_1   0.252327 0.500340 0.496796 -0.156897
C19   C     C_1   0.747823 0.500483 0.495754 -0.193025
C20   C     C_3   0.098622 0.671754 0.452588 -0.398243
C21   C     C_3   0.128150 0.711072 0.574905 -0.345994
C22   C     C_3   0.186339 0.791518 0.555493 -0.804041
C23   C     C_R   0.555611 0.951247 0.577037 -0.005047
C24   C     C_3   0.915867 0.683253 0.452543 -0.407749
C25   C     C_3   0.821269 0.696707 0.466245 -0.347376
C26   C     C_3   0.797294 0.796469 0.453020 -0.822793
C27   C     C_3   0.906027 0.334400 0.516755 -0.375592
C28   C     C_3   0.888174 0.293456 0.390629 -0.382623
C29   C     C_3   0.856937 0.196273 0.400776 -0.743104
C30   C     C_3   0.091980 0.331933 0.515804 -0.382904
C31   C     C_3   0.113366 0.313727 0.650152 -0.372515
C32   C     C_3   0.157478 0.222799 0.665875 -0.746705
C33   C     C_3   0.608406 0.896911 0.667653 -0.327968
C34   C     C_R   0.441759 0.951623 0.427092 -0.004252
C35   C     C_3   0.556768 0.871945 0.780702 -0.330870
C36   C     C_3   0.607279 0.814065 0.869620 -0.819758
C37   C     C_3   0.387037 0.897503 0.339125 -0.323509
C38   C     C_3   0.436325 0.871403 0.224258 -0.331578
C39   C     C_3   0.383809 0.813538 0.138227 -0.823277
C40   C     C_R   0.499069 0.903074 0.501440 -0.103175
C41   C     C_R   0.437828 0.048659 0.433318 0.344324
C42   C     C_R   0.559715 0.048244 0.570747 0.326045
C43   C     C_R   0.499066 0.097288 0.501502 -0.282118
C44   C     C_1   0.499614 0.802511 0.500601 0.145737
Cu1   Cu    Cu3+1 0.500000 0.589220 0.500000 0.962432
Cu2   Cu    Cu3+1 0.500000 0.410780 0.500000 1.108722
H1    H     H_    0.459941 0.556832 0.906374 0.134528
H2    H     H_    0.153451 0.655866 0.394278 0.210224
H3    H     H_    0.065619 0.724996 0.400230 0.187987
H4    H     H_    0.824786 0.836933 0.528393 0.263400
H5    H     H_    0.819382 0.823600 0.364193 0.258622
H6    H     H_    0.728329 0.803425 0.456389 0.243900
H7    H     H_    0.788250 0.659372 0.392778 0.235149
H8    H     H_    0.800685 0.673760 0.557960 0.237261
H9    H     H_    0.945006 0.730957 0.518263 0.211783
H10   H     H_    0.931862 0.705688 0.358598 0.196831
H11   H     H_    0.905495 0.152534 0.443102 0.255951
H12   H     H_    0.539881 0.555960 0.093194 0.133188
H13   H     H_    0.799522 0.193681 0.456838 0.277003
H14   H     H_    0.842484 0.169672 0.308416 0.246551
H15   H     H_    0.840291 0.335118 0.343033 0.229838
H16   H     H_    0.945661 0.293592 0.333917 0.228151
H17   H     H_    0.939346 0.285177 0.575708 0.208952
H18   H     H_    0.846261 0.344944 0.565974 0.224789
H19   H     H_    0.116910 0.166869 0.633289 0.256867
H20   H     H_    0.216925 0.222049 0.614021 0.257717
H21   H     H_    0.171758 0.211545 0.763894 0.250123
H22   H     H_    0.154733 0.368192 0.685179 0.232974
H23   H     H_    0.651605 0.328290 0.049572 0.324161
H24   H     H_    0.055503 0.313623 0.705964 0.224306
H25   H     H_    0.057500 0.273886 0.476516 0.209415
H26   H     H_    0.150379 0.333573 0.461252 0.224374
H27   H     H_    0.670408 0.226285 0.543847 0.327793
H28   H     H_    0.322340 0.228850 0.456659 0.336577
H29   H     H_    0.626673 0.749747 0.825280 0.255160
H30   H     H_    0.663597 0.851327 0.900660 0.268290
H31   H     H_    0.568484 0.797649 0.950539 0.239390
H32   H     H_    0.536292 0.934751 0.827948 0.258499
H33   H     H_    0.500133 0.833598 0.753433 0.218805
H34   H     H_    0.344708 0.235212 0.026880 0.396525
H35   H     H_    0.632563 0.834427 0.623716 0.181344
H36   H     H_    0.665160 0.932513 0.697874 0.264889
H37   H     H_    0.364944 0.749708 0.184201 0.256343
H38   H     H_    0.327109 0.851223 0.109047 0.266100
H39   H     H_    0.420928 0.796205 0.055953 0.240229
H40   H     H_    0.456125 0.933747 0.175415 0.259297
H41   H     H_    0.493319 0.832662 0.249509 0.219198
H42   H     H_    0.363285 0.835610 0.384963 0.177708
H43   H     H_    0.329935 0.933624 0.310855 0.264782
H44   H     H_    0.242964 0.769825 0.504848 0.250246
H45   H     H_    0.153998 0.845844 0.503473 0.263113
H46   H     H_    0.205931 0.819128 0.645258 0.246023
H47   H     H_    0.073435 0.733521 0.629309 0.215723
H48   H     H_    0.161983 0.658681 0.628468 0.229272
N1    N     N_1   0.500000 0.276710 0.500000 -0.109853
N2    N     N_1   0.500000 0.723290 0.500000 -0.164799
O1    O     O_R   0.380310 0.575320 0.500020 -0.589212
O2    O     O_2   0.643481 0.367576 0.805878 -0.277838
O3    O     O_3   0.616929 0.281753 0.008860 -0.444766
O4    O     O_2   0.473594 0.269034 0.181183 -0.189013
O5    O     O_2   0.353503 0.372232 0.196484 -0.274454
O6    O     O_3   0.376738 0.286527 0.992489 -0.498279
O7    O     O_2   0.631587 0.091236 0.784563 -0.200349
O8    O     O_2   0.724511 0.067693 0.611057 -0.346684
O9    O     O_3   0.645096 0.218883 0.625580 -0.441546
O10   O     O_2   0.362576 0.091158 0.221451 -0.245386
O11   O     O_2   0.272608 0.070059 0.398804 -0.341818
O12   O     O_R   0.619690 0.575320 0.499980 -0.591380
O13   O     O_3   0.352851 0.220104 0.379035 -0.451184
O14   O     O_R   0.380310 0.424640 0.499970 -0.557709
O15   O     O_R   0.619690 0.424640 0.500030 -0.560304
O16   O     O_R   0.500000 0.575320 0.321940 -0.593410
O17   O     O_R   0.500000 0.575320 0.678060 -0.595434
O18   O     O_R   0.500000 0.424640 0.321880 -0.513115
O19   O     O_R   0.500000 0.424640 0.678120 -0.506526
O20   O     O_2   0.521194 0.268405 0.819281 -0.151582
S1    S     S_3+6 0.574618 0.334734 0.887745 0.120974
S2    S     S_3+6 0.421002 0.337070 0.113776 0.104401
S3    S     S_3+6 0.641839 0.106551 0.649835 0.024912
S4    S     S_3+6 0.354850 0.107552 0.356291 0.010517

loop_
_geom_bond_atom_site_label_1
_geom_bond_atom_site_label_2
_ccdc_geom_bond_type
C34   C37   S    
C37   H42   S    
C35   C36   S    
H28   O13   S    
C30   H25   S    
Cu1   O16   S    
Cu1   Cu2   S    
C24   H9    S    
C5    C6    S    
C1    C18   S    
C20   H3    S    
C23   C42   A    
Cu2   O19   S    
C38   H40   S    
C34   C40   A    
O5    S2    D    
C32   H20   S    
C28   C29   S    
C25   H7    S    
C39   H38   S    
C36   H31   S    
C26   H4    S    
C30   C31   S    
C11   C14   A    
C42   S3    S    
C21   H48   S    
C23   C40   A    
O20   S1    D    
C36   H30   S    
C8    H12   S    
C31   H24   S    
Cu2   N1    S    
C29   H13   S    
C10   C20   S    
C23   C33   S    
C22   H45   S    
C14   C27   S    
C9    C10   A    
C3    O16   A    
C15   C30   S    
O6    S2    S    
Cu1   O12   S    
O8    S3    D    
C28   H15   S    
C21   C22   S    
C41   C43   A    
C34   C41   A    
C4    C7    S    
C31   H22   S    
Cu2   O18   S    
C4    O17   A    
C24   C25   S    
C3    C8    S    
C1    O1    A    
C12   O12   A    
C6    C8    D    
C25   C26   S    
C3    O18   A    
C5    S1    S    
C7    H1    S    
C37   C38   S    
C44   N2    T    
C36   H29   S    
C26   H6    S    
C1    O14   A    
O3    S1    S    
C11   C16   S    
H27   O9    S    
C31   C32   S    
C29   H14   S    
C2    C43   S    
C17   C18   T    
C22   H44   S    
C25   H8    S    
C9    C11   A    
C20   H2    S    
C27   H17   S    
C32   H21   S    
H23   O3    S    
C29   H11   S    
Cu2   O14   S    
O4    S2    D    
C42   C43   A    
C39   H39   S    
O11   S4    D    
O2    S1    D    
C5    C7    D    
C33   H36   S    
C2    N1    T    
O10   S4    D    
C4    O19   A    
O7    S3    D    
C10   C13   A    
C30   H26   S    
C9    C24   S    
C37   H43   S    
C24   H10   S    
C35   H32   S    
C13   C17   S    
C38   H41   S    
C13   C15   A    
C39   H37   S    
Cu1   O1    S    
C26   H5    S    
C38   C39   S    
C21   H47   S    
C16   C19   T    
C12   C19   S    
C35   H33   S    
C33   C35   S    
C41   S4    S    
C27   H18   S    
Cu1   O17   S    
C40   C44   S    
C20   C21   S    
H34   O6    S    
C27   C28   S    
C22   H46   S    
C14   C15   A    
O9    S3    S    
Cu2   O15   S    
Cu1   N2    S    
C33   H35   S    
C6    S2    S    
C12   O15   A    
O13   S4    S    
C32   H19   S    
C28   H16   S    
