data_mof_unit_60722.cif
_audit_creation_date              2012-12-10T16:51:56-0500
_audit_creation_method            fapswitch 2.2
_symmetry_space_group_name_H-M    P1
_symmetry_Int_Tables_number       1
_space_group_crystal_system       triclinic
_cell_length_a                    18.389688
_cell_length_b                    18.347361
_cell_length_c                    18.402649
_cell_angle_alpha                 90.870132
_cell_angle_beta                  119.612168
_cell_angle_gamma                 119.440525
_cell_volume                      4419.55015561

loop_
_atom_site_label
_atom_site_type_symbol
_atom_type_description
_atom_site_fract_x
_atom_site_fract_y
_atom_site_fract_z
_atom_type_partial_charge
C1    C     C_R   0.776987 0.638191 0.638591 0.510425
C2    C     C_2   0.112279 0.307694 0.309081 -0.092310
C3    C     C_2   0.440223 0.162484 0.718798 -0.157646
C4    C     C_R   0.222950 0.361532 0.361814 0.515105
C5    C     C_2   0.504521 0.195538 0.807805 -0.093148
C6    C     C_2   0.442609 0.218571 0.662536 -0.156870
C7    C     C_2   0.498650 0.307678 0.695382 -0.092978
C8    C     C_2   0.056075 0.776015 0.718739 -0.157941
C9    C     C_2   0.112385 0.809012 0.807728 -0.092900
C10   C     C_2   0.943696 0.722263 0.662631 -0.157261
C11   C     C_2   0.887738 0.691147 0.695531 -0.093208
C12   C     C_3   0.568690 0.766944 0.835527 -0.106708
C13   C     C_2   0.418356 0.162055 0.199690 -0.164901
C14   C     C_2   0.486138 0.196766 0.179735 -0.120751
C15   C     C_2   0.412376 0.220077 0.247728 0.213470
C16   C     C_R   0.500321 0.638817 0.361851 0.513539
C17   C     C_2   0.497521 0.301576 0.303963 -0.018045
C18   C     C_2   0.442646 0.780079 0.223618 -0.156457
C19   C     C_2   0.499030 0.803380 0.191113 -0.092976
C20   C     C_2   0.440042 0.721439 0.277350 -0.157108
C21   C     C_2   0.504315 0.696691 0.309017 -0.092272
C22   C     C_R   0.500506 0.138665 0.861639 0.512105
C23   C     C_3   0.593405 0.792016 0.766858 -0.122524
C24   C     C_R   0.499922 0.861231 0.138213 0.512495
C25   C     C_R   0.777136 0.138648 0.138205 0.512799
C26   C     C_R   0.223108 0.861869 0.861596 0.511730
C27   C     C_R   0.497903 0.141185 0.138578 0.520863
C28   C     C_R   0.499710 0.361516 0.638534 0.508778
C29   C     C_R   0.500190 0.858317 0.858374 0.506514
C30   C     C_R   0.498572 0.358619 0.358011 0.547053
C31   C     C_R   0.499906 0.641742 0.641668 0.505692
C32   C     C_3   0.474928 0.673267 0.766622 -0.122866
C33   C     C_3   0.406692 0.708059 0.733173 -0.123461
C34   C     C_3   0.525169 0.826809 0.733410 -0.123163
C35   C     C_3   0.500398 0.800923 0.801210 0.062727
C36   C     C_3   0.431408 0.733131 0.664505 -0.107664
C37   C     C_3   0.499700 0.699150 0.698823 0.062965
C38   C     C_2   0.943847 0.162454 0.222269 -0.157032
C39   C     C_2   0.887815 0.195490 0.190932 -0.092919
C40   C     C_2   0.056175 0.218599 0.275889 -0.152737
H1    H     H_    0.330030 0.674411 0.720162 0.115172
H2    H     H_    0.921794 0.702530 0.765727 0.107427
H3    H     H_    0.367363 0.090554 0.181880 0.150572
H4    H     H_    0.454298 0.609405 0.779439 0.115735
H5    H     H_    0.531408 0.267224 0.190056 0.105094
H6    H     H_    0.570425 0.326504 0.314832 0.045172
H7    H     H_    0.394978 0.803796 0.209740 0.157327
H8    H     H_    0.545315 0.779347 0.201249 0.106869
H9    H     H_    0.383511 0.698977 0.291922 0.156703
H10   H     H_    0.563434 0.719489 0.298113 0.107523
H11   H     H_    0.625163 0.781486 0.906507 0.130647
H12   H     H_    0.078382 0.344036 0.299632 0.106061
H13   H     H_    0.670068 0.825669 0.779871 0.116240
H14   H     H_    0.545795 0.890671 0.720594 0.115787
H15   H     H_    0.374937 0.718593 0.593525 0.129753
H16   H     H_    0.906499 0.091099 0.207460 0.157325
H17   H     H_    0.921772 0.265747 0.201925 0.107757
H18   H     H_    0.093458 0.184552 0.289117 0.164146
H19   H     H_    0.268263 0.129716 0.192782 0.318627
H20   H     H_    0.383805 0.091120 0.684878 0.156799
H21   H     H_    0.563605 0.265809 0.844051 0.107730
H22   H     H_    0.395146 0.184469 0.591272 0.159196
H23   H     H_    0.544675 0.344076 0.765566 0.107731
H24   H     H_    0.093215 0.789455 0.684740 0.156037
H25   H     H_    0.078604 0.799241 0.844020 0.107061
H26   H     H_    0.906230 0.707179 0.591357 0.157566
O1    O     O_3   0.500000 0.500000 0.500000 -0.450726
O2    O     O_R   0.270900 0.886160 0.946260 -0.542381
O3    O     O_R   0.560160 0.177420 0.117340 -0.539745
O4    O     O_R   0.729180 0.615300 0.675360 -0.541266
O5    O     O_R   0.440020 0.882760 0.822680 -0.543713
O6    O     O_R   0.439990 0.057240 0.117340 -0.543116
O7    O     O_R   0.560190 0.882760 0.942820 -0.546855
O8    O     O_R   0.729270 0.053840 0.113900 -0.540810
O9    O     O_R   0.270910 0.884750 0.824690 -0.541877
O10   O     O_R   0.560170 0.175430 0.946260 -0.540538
O11   O     O_R   0.440000 0.886160 0.115330 -0.540149
O12   O     O_R   0.439910 0.615300 0.386140 -0.540851
O13   O     O_R   0.270820 0.446200 0.386140 -0.543475
O14   O     O_R   0.560090 0.613880 0.384720 -0.539707
O15   O     O_R   0.439920 0.324620 0.553780 -0.542461
O16   O     O_R   0.560100 0.442800 0.382710 -0.559044
O17   O     O_R   0.560070 0.617290 0.677370 -0.541976
O18   O     O_R   0.439930 0.322630 0.382710 -0.477086
O19   O     O_R   0.439900 0.617290 0.557220 -0.548002
O20   O     O_3   0.321557 0.190495 0.237641 -0.663159
O21   O     O_R   0.560080 0.446200 0.675360 -0.542042
O22   O     O_R   0.729180 0.613880 0.553780 -0.541536
O23   O     O_R   0.270820 0.324620 0.384720 -0.529655
O24   O     O_3   0.500090 0.000040 0.000040 -0.443803
O25   O     O_R   0.440010 0.053840 0.824690 -0.541706
O26   O     O_R   0.560180 0.884750 0.113900 -0.542003
O27   O     O_R   0.729260 0.175430 0.115330 -0.539959
Zn1   Zn    Zn3+2 0.414150 0.543930 0.458110 0.935887
Zn2   Zn    Zn3+2 0.585850 0.541910 0.456060 0.938914
Zn3   Zn    Zn3+2 0.414160 0.370220 0.456060 0.969552
Zn4   Zn    Zn3+2 0.585840 0.543930 0.629770 0.935760
Zn5   Zn    Zn3+2 0.585940 0.956110 0.041940 0.936331
Zn6   Zn    Zn3+2 0.585930 0.129820 0.043980 0.944192
Zn7   Zn    Zn3+2 0.414240 0.958130 0.043980 0.936884
Zn8   Zn    Zn3+2 0.414250 0.956110 0.870280 0.933647

loop_
_geom_bond_atom_site_label_1
_geom_bond_atom_site_label_2
_ccdc_geom_bond_type
C25   O27   A    
C16   C21   S    
C31   O19   A    
C1    C11   S    
C22   O10   A    
C3    C6    S    
C18   H7    S    
O26   Zn5   S    
O8    Zn5   S    
O10   Zn6   S    
C12   C23   S    
O11   Zn7   S    
C36   C37   S    
C25   O8    A    
C38   C39   D    
C34   C35   S    
C29   O7    A    
C39   H17   S    
C33   C36   S    
C31   O17   A    
C11   H2    S    
C18   C19   D    
O18   Zn3   S    
C5    C22   S    
C8    C9    D    
O1    Zn1   S    
C22   O25   A    
C14   C27   S    
O27   Zn6   S    
C34   C36   S    
C27   O3    A    
O4    Zn4   S    
C3    H20   S    
C1    O22   A    
O5    Zn8   S    
O22   Zn2   S    
C13   C14   D    
C12   C32   S    
O1    Zn2   S    
C17   C30   S    
O25   Zn8   S    
C24   O26   A    
O24   Zn7   S    
C21   H10   S    
C9    C26   S    
C23   H13   S    
C14   H5    S    
C10   H26   S    
O7    Zn5   S    
C40   H18   S    
C17   H6    S    
C4    O13   A    
O15   Zn3   S    
C19   H8    S    
C23   C37   S    
C7    C28   S    
C31   C37   S    
C16   O14   A    
C30   O16   A    
C2    C4    S    
O2    Zn7   S    
O24   Zn8   S    
C20   H9    S    
O19   Zn1   S    
C23   C34   S    
C28   O21   A    
C26   O9    A    
C32   H4    S    
C5    H21   S    
C32   C37   S    
C12   C35   S    
C7    H23   S    
C2    H12   S    
O13   Zn1   S    
C15   O20   S    
O3    Zn6   S    
C8    H24   S    
C34   H14   S    
C13   C15   S    
O1    Zn3   S    
O24   Zn6   S    
C13   H3    S    
C12   H11   S    
C4    O23   A    
O6    Zn7   S    
C15   C17   D    
O16   Zn2   S    
C28   O15   A    
C3    C5    D    
C18   C20   S    
C6    C7    D    
O14   Zn2   S    
C29   C35   S    
C1    O4    A    
C33   H1    S    
C32   C33   S    
C6    H22   S    
O23   Zn3   S    
C19   C24   S    
H19   O20   S    
C26   O2    A    
C36   H15   S    
C25   C39   S    
C38   C40   S    
O12   Zn1   S    
C33   C35   S    
C16   O12   A    
C30   O18   A    
C9    H25   S    
C10   C11   D    
O1    Zn4   S    
C2    C40   D    
C24   O11   A    
C38   H16   S    
C20   C21   D    
C8    C10   S    
O17   Zn4   S    
O9    Zn8   S    
C29   O5    A    
O24   Zn5   S    
C27   O6    A    
O21   Zn4   S    
