data_mof_unit_55188.cif
_audit_creation_date              2012-12-11T14:57:54-0500
_audit_creation_method            fapswitch 2.2
_symmetry_space_group_name_H-M    P1
_symmetry_Int_Tables_number       1
_space_group_crystal_system       triclinic
_cell_length_a                    6.944206
_cell_length_b                    16.673972
_cell_length_c                    17.10781
_cell_angle_alpha                 100.391888
_cell_angle_beta                  89.946517
_cell_angle_gamma                 91.444201
_cell_volume                      1947.74624722

loop_
_atom_site_label
_atom_site_type_symbol
_atom_type_description
_atom_site_fract_x
_atom_site_fract_y
_atom_site_fract_z
_atom_type_partial_charge
O1    O     O_R   0.506180 0.438940 0.579430 -0.539196
O2    O     O_R   0.170520 0.406230 0.413590 -0.506986
O3    O     O_R   0.005180 0.561060 0.420570 -0.523842
C1    C     C_R   0.338409 0.381838 0.386343 0.941234
O4    O     O_R   0.176140 0.429310 0.578370 -0.507555
O5    O     O_R   0.010830 0.584300 0.586530 -0.553009
C2    C     C_R   0.343130 0.413850 0.605299 0.879834
O6    O     O_R   0.500520 0.415700 0.413470 -0.543709
O7    O     O_3   0.340830 0.550820 0.502480 -0.382495
V1    V     V_3+5 0.064040 0.490570 0.499540 1.707428
O8    O     O_R   0.681400 0.593770 0.586410 -0.551545
C3    C     C_R   0.851947 0.616833 0.614327 0.674099
O9    O     O_R   0.675790 0.570690 0.421630 -0.519281
C4    C     C_R   0.845679 0.587029 0.395924 0.860796
V2    V     V_3+5 0.564650 0.509430 0.500460 1.650380
O10   O     O_3   0.837730 0.449180 0.497520 -0.363317
C5    C     C_R   0.908492 0.866821 0.170154 -0.307955
C6    C     C_R   0.859366 0.639018 0.334324 -0.316839
C7    C     C_R   0.919240 0.648223 0.196432 0.480665
C8    C     C_R   0.904741 0.602437 0.256953 0.557502
C9    C     C_R   0.826690 0.723567 0.352312 0.371106
C10   C     C_R   0.860952 0.773752 0.293453 -0.212611
C11   C     C_R   0.903444 0.734475 0.213834 -0.289674
C12   C     C_R   0.928414 0.782276 0.153633 0.705715
C13   C     C_R   0.878784 0.906347 0.248414 0.275854
C14   C     C_R   0.857260 0.861174 0.310193 0.533736
C15   C     C_R   0.072785 0.898695 0.729269 0.451686
C16   C     C_R   0.155696 0.905414 0.656393 0.651172
C17   C     C_R   0.146445 0.840158 0.593345 0.331517
C18   C     C_R   0.051109 0.768095 0.602378 -0.298223
C19   C     C_R   0.966882 0.758540 0.675737 -0.048607
C20   C     C_R   0.980479 0.824459 0.741519 -0.149038
C21   C     C_R   0.867251 0.685049 0.683323 0.039573
C22   C     C_R   0.787052 0.675547 0.757388 -0.075449
C23   C     C_R   0.803279 0.740064 0.824398 -0.169965
C24   C     C_R   0.899338 0.814996 0.816254 -0.049430
C25   C     C_R   0.695178 0.600903 0.766506 -0.339132
C26   C     C_R   0.618430 0.589905 0.838924 0.559316
C27   C     C_R   0.633649 0.652135 0.904458 0.633336
C28   C     C_R   0.725456 0.726085 0.898216 0.429825
H1    H     H_    0.043481 0.720166 0.550681 0.186395
H2    H     H_    0.683354 0.549436 0.718155 0.188838
C29   C     C_R   0.301860 0.211197 0.402477 0.440328
C30   C     C_R   0.298845 0.130985 0.414214 0.318736
C31   C     C_R   0.335264 0.068331 0.351788 0.619848
C32   C     C_R   0.374173 0.084126 0.275736 0.211195
C33   C     C_R   0.379153 0.166695 0.260553 -0.141029
C34   C     C_R   0.343064 0.231263 0.326503 -0.167828
C35   C     C_R   0.422205 0.186835 0.183778 0.021519
C36   C     C_R   0.437566 0.271217 0.174668 -0.126055
C37   C     C_R   0.385826 0.333597 0.239875 -0.164912
C38   C     C_R   0.347779 0.314101 0.316024 -0.025697
C39   C     C_R   0.502113 0.297264 0.102842 0.211127
C40   C     C_R   0.489796 0.379207 0.093721 0.335240
C41   C     C_R   0.425597 0.437608 0.155899 0.329543
C42   C     C_R   0.375273 0.415784 0.227806 0.486093
C43   C     C_R   0.421686 0.135984 0.830671 -0.293929
C44   C     C_R   0.343602 0.361863 0.667427 -0.305964
C45   C     C_R   0.202867 0.325915 0.787564 0.004880
C46   C     C_R   0.213491 0.377048 0.731167 0.585491
C47   C     C_R   0.462837 0.293881 0.660810 0.697840
C48   C     C_R   0.449111 0.240489 0.716586 -0.269767
C49   C     C_R   0.318571 0.257159 0.780913 -0.222554
C50   C     C_R   0.305963 0.205062 0.837579 0.670071
C51   C     C_R   0.545691 0.118075 0.764707 0.252595
C52   C     C_R   0.560337 0.170043 0.708846 0.766195
H3    H     H_    0.101890 0.339959 0.836124 0.229876
O11   O     O_R   0.265840 0.084300 0.086750 -0.540935
O12   O     O_R   0.589750 0.070740 0.921690 -0.523240
O13   O     O_R   0.755020 0.915730 0.913400 -0.528396
C53   C     C_R   0.422589 0.085453 0.894195 0.900135
O14   O     O_R   0.595830 0.093740 0.086480 -0.510714
O15   O     O_R   0.761150 0.938890 0.079360 -0.507600
C54   C     C_R   0.428260 0.119984 0.112494 0.819342
O16   O     O_R   0.259710 0.061140 0.920790 -0.500222
O17   O     O_3   0.425260 0.949200 0.997610 -0.367656
V3    V     V_3+5 0.702060 0.009430 0.000450 1.781980
O18   O     O_R   0.090530 0.929220 0.078150 -0.524915
C55   C     C_R   0.921030 0.914299 0.105025 0.938474
O19   O     O_R   0.084440 0.906220 0.913360 -0.539556
C56   C     C_R   0.913988 0.883271 0.885221 0.914434
V4    V     V_3+5 0.201450 0.990520 0.999290 1.747645
O20   O     O_3   0.928380 0.050800 0.002390 -0.360987
F1    F     F_    0.975495 0.748093 0.078218 -0.571433
Cl1   Cl    Cl    0.251852 0.848624 0.501691 -0.318854
F2    F     F_    0.530876 0.517819 0.845642 -0.572263
F3    F     F_    0.738974 0.782149 0.965955 -0.631828
Cl2   Cl    Cl    0.417290 0.541201 0.146664 -0.345400
F4    F     F_    0.260940 0.268501 0.466807 -0.657166
Cl3   Cl    Cl    0.248293 0.108563 0.508967 -0.236264
F5    F     F_    0.332262 0.990422 0.365366 -0.515681
Cl4   Cl    Cl    0.419727 0.994403 0.206317 -0.530591
Cl5   Cl    Cl    0.879548 0.014485 0.269515 -0.555294
Cl6   Cl    Cl    0.630480 0.236008 0.026561 -0.549143
Cl7   Cl    Cl    0.558927 0.410340 0.003756 -0.295602
F6    F     F_    0.310571 0.476560 0.284801 -0.636655
F7    F     F_    0.185698 0.222900 0.900751 -0.629057
Cl8   Cl    Cl    0.678789 0.028015 0.747945 -0.446925
F8    F     F_    0.682662 0.150684 0.646642 -0.506283
F9    F     F_    0.097094 0.442263 0.739376 -0.646292
F10   F     F_    0.585796 0.278412 0.598350 -0.574752
Cl9   Cl    Cl    0.951706 0.592235 0.099394 -0.252685
Cl10  Cl    Cl    0.845477 0.919428 0.407410 -0.254760
F11   F     F_    0.926137 0.520307 0.239427 -0.615196
Cl11  Cl    Cl    0.725078 0.759961 0.446669 -0.503796
F12   F     F_    0.560859 0.640521 0.975334 -0.501995
F13   F     F_    0.080004 0.966933 0.785855 -0.640318
F14   F     F_    0.243705 0.976661 0.646999 -0.534549

loop_
_geom_bond_atom_site_label_1
_geom_bond_atom_site_label_2
_ccdc_geom_bond_type
C27   F12   S    
C41   C42   A    
C13   Cl5   S    
C6    C9    A    
C4    C6    S    
O12   V3    S    
C7    C8    A    
C1    O6    A    
C33   C35   A    
C31   C32   A    
C17   C18   A    
C26   F2    S    
C20   C24   A    
C28   F3    S    
C16   C17   A    
C51   Cl8   S    
C22   C23   A    
O5    C3    A    
C26   C27   A    
C7    Cl9   S    
C32   Cl4   S    
V3    O20   S    
O11   C54   A    
V2    O10   S    
C22   C25   A    
C5    C55   S    
C37   C42   A    
C25   H2    S    
O12   C53   A    
O13   C56   A    
O14   V3    S    
C45   H3    S    
C32   C33   A    
O8    V2    S    
C19   C20   A    
C11   C12   A    
C19   C21   A    
C18   H1    S    
O1    V2    S    
C29   C34   A    
C2    C44   S    
C17   Cl1   S    
C44   C47   A    
C15   C20   A    
C45   C46   A    
O9    C4    A    
O13   V3    S    
C21   C22   A    
C10   C11   A    
C36   C39   A    
C48   C52   A    
C37   C38   A    
C5    C12   A    
O17   V3    S    
O14   C54   A    
O17   V4    S    
C27   C28   A    
O4    C2    A    
O18   C55   A    
C13   C14   A    
C39   C40   A    
C23   C24   A    
C52   F8    S    
C47   F10   S    
C29   C30   A    
C25   C26   A    
C14   Cl10  S    
O18   V4    S    
C33   C34   A    
C15   F13   S    
C24   C56   S    
C48   C49   A    
C36   C37   A    
O15   C55   A    
C29   F4    S    
C43   C53   S    
C40   Cl7   S    
O3    C4    A    
O19   V4    S    
C50   F7    S    
C1    C38   S    
V4    O20   S    
O6    V2    S    
O9    V2    S    
O2    V1    S    
C30   Cl3   S    
C30   C31   A    
C7    C11   A    
C43   C50   A    
O7    V1    S    
C42   F6    S    
C40   C41   A    
C39   Cl6   S    
O1    C2    A    
C43   C51   A    
O19   C56   A    
C46   F9    S    
O5    V1    S    
O8    C3    A    
O16   V4    S    
C8    F11   S    
C45   C49   A    
O11   V4    S    
C23   C28   A    
C12   F1    S    
C5    C13   A    
O4    V1    S    
O3    V1    S    
V1    O10   S    
C53   O16   A    
C18   C19   A    
C16   F14   S    
O2    C1    A    
C41   Cl2   S    
C6    C8    A    
C51   C52   A    
O7    V2    S    
C47   C48   A    
C31   F5    S    
C49   C50   A    
C34   C38   A    
C35   C36   A    
C10   C14   A    
C15   C16   A    
O15   V3    S    
C35   C54   S    
C3    C21   S    
C9    C10   A    
C44   C46   A    
C9    Cl11  S    
