data_mof_unit_29401.cif
_audit_creation_date              2012-12-10T16:51:15-0500
_audit_creation_method            fapswitch 2.2
_symmetry_space_group_name_H-M    P1
_symmetry_Int_Tables_number       1
_space_group_crystal_system       triclinic
_cell_length_a                    27.790148
_cell_length_b                    8.675765
_cell_length_c                    7.435136
_cell_angle_alpha                 103.264874
_cell_angle_beta                  93.756947
_cell_angle_gamma                 92.429802
_cell_volume                      1737.99363642

loop_
_atom_site_label
_atom_site_type_symbol
_atom_type_description
_atom_site_fract_x
_atom_site_fract_y
_atom_site_fract_z
_atom_type_partial_charge
C1    C     C_R   0.498538 0.199549 0.452977 0.889129
C2    C     C_R   0.501462 0.800450 0.547023 0.889130
C3    C     C_R   0.102190 0.499589 0.513312 -0.045231
C4    C     C_R   0.897810 0.500428 0.486682 -0.045230
C5    C     C_R   0.125341 0.355631 0.484465 -0.017455
C6    C     C_R   0.874659 0.644386 0.515525 -0.017455
C7    C     C_R   0.097644 0.212501 0.446484 -0.156133
C8    C     C_R   0.902356 0.787516 0.553504 -0.156132
C9    C     C_R   0.130467 0.643312 0.547385 -0.016032
C10   C     C_R   0.869534 0.356706 0.452615 -0.016033
C11   C     C_R   0.354780 0.499197 0.511127 -0.054128
C12   C     C_R   0.645220 0.500807 0.488873 -0.054128
C13   C     C_R   0.971712 0.353413 0.461413 0.044564
C14   C     C_R   0.028289 0.646604 0.538581 0.044564
C15   C     C_R   0.977024 0.646811 0.531775 0.045132
C16   C     C_R   0.022976 0.353206 0.468216 0.045132
C17   C     C_R   0.949082 0.500218 0.493180 0.066634
C18   C     C_R   0.050918 0.499800 0.506814 0.066635
C19   C     C_R   0.941943 0.211310 0.423995 -0.216364
C20   C     C_R   0.058058 0.788708 0.576003 -0.216367
C21   C     C_R   0.892012 0.213380 0.420961 -0.154207
C22   C     C_R   0.107988 0.786638 0.579041 -0.154208
C23   C     C_R   0.407533 0.499668 0.503217 0.803170
C24   C     C_R   0.592467 0.500333 0.496783 0.803174
C25   C     C_R   0.047590 0.210877 0.437629 -0.213953
C26   C     C_R   0.952410 0.789140 0.562359 -0.213952
C27   C     C_2   0.497832 0.031449 0.426640 -0.369259
C28   C     C_2   0.502168 0.968551 0.573360 -0.369258
C29   C     C_R   0.175973 0.358207 0.493079 0.523586
C30   C     C_R   0.824027 0.641809 0.506911 0.523581
C31   C     C_R   0.180896 0.640351 0.548389 0.520104
C32   C     C_R   0.819104 0.359666 0.451615 0.520100
C33   C     C_R   0.284239 0.543857 0.691516 0.143127
C34   C     C_R   0.715761 0.456157 0.308482 0.143128
C35   C     C_R   0.334483 0.542189 0.682424 -0.243788
C36   C     C_R   0.665517 0.457817 0.317576 -0.243791
C37   C     C_R   0.324358 0.454593 0.347581 -0.231701
C38   C     C_R   0.675642 0.545414 0.652417 -0.231722
C39   C     C_R   0.274500 0.453076 0.355046 -0.168790
C40   C     C_R   0.725501 0.546936 0.644952 -0.168783
C41   C     C_R   0.254136 0.498711 0.525004 0.346092
C42   C     C_R   0.745864 0.501305 0.474993 0.346106
Cu1   Cu    Cu3+1 0.505380 0.517380 0.684380 0.947904
Cu2   Cu    Cu3+1 0.494620 0.482620 0.315620 0.947904
H1    H     H_    0.339041 0.419672 0.213809 0.161476
H2    H     H_    0.660959 0.580333 0.786191 0.161479
H3    H     H_    0.462124 0.378357 0.948561 0.224851
H4    H     H_    0.537876 0.621643 0.051439 0.224851
H5    H     H_    0.251334 0.417613 0.227952 0.145564
H6    H     H_    0.748666 0.582399 0.772046 0.145568
H7    H     H_    0.114577 0.100167 0.421517 0.182110
H8    H     H_    0.885423 0.899849 0.578469 0.182109
H9    H     H_    0.642279 0.425158 0.190290 0.159005
H10   H     H_    0.357720 0.574846 0.809710 0.159002
H11   H     H_    0.870983 0.101242 0.391998 0.191303
H12   H     H_    0.129017 0.898776 0.608008 0.191305
H13   H     H_    0.955776 0.095125 0.396056 0.136846
H14   H     H_    0.044224 0.904893 0.603944 0.136847
H15   H     H_    0.029475 0.094851 0.405737 0.133665
H16   H     H_    0.970525 0.905166 0.594249 0.133664
H17   H     H_    0.493747 0.959182 0.285536 0.178288
H18   H     H_    0.506253 0.040817 0.714464 0.178288
N1    N     N_R   0.202563 0.499335 0.524976 -0.470590
N2    N     N_R   0.797437 0.500682 0.475020 -0.470586
N3    N     N_2   0.486510 0.456430 0.038510 -0.219640
N4    N     N_2   0.513490 0.543570 0.961490 -0.219640
O1    O     O_R   0.503500 0.286120 0.619780 -0.582270
O2    O     O_R   0.496500 0.713880 0.380220 -0.582271
O3    O     O_R   0.494410 0.256780 0.308360 -0.585751
O4    O     O_R   0.505590 0.743220 0.691640 -0.585751
O5    O     O_R   0.434810 0.514700 0.655690 -0.593158
O6    O     O_R   0.565190 0.485300 0.344310 -0.593158
O7    O     O_R   0.425720 0.485350 0.344280 -0.584140
O8    O     O_R   0.574280 0.514650 0.655720 -0.584139
O9    O     O_2   0.198507 0.220959 0.469351 -0.536552
O10   O     O_2   0.801493 0.779057 0.530633 -0.536552
O11   O     O_2   0.791944 0.223025 0.429336 -0.552120
O12   O     O_2   0.208057 0.776994 0.570684 -0.552114
C43   C     C_3   0.735948 0.411427 0.120435 -0.409628
C44   C     C_3   0.724711 0.234967 0.028691 -0.377634
C45   C     C_3   0.747226 0.187837 0.843580 -0.717968
H19   H     H_    0.731353 0.253118 0.744326 0.266853
H20   H     H_    0.786969 0.213780 0.862662 0.259557
H21   H     H_    0.739857 0.058725 0.784228 0.264793
H22   H     H_    0.739010 0.160886 0.121105 0.273651
H23   H     H_    0.685000 0.209190 0.004189 0.215724
H24   H     H_    0.719648 0.484845 0.030979 0.186480
H25   H     H_    0.775599 0.438078 0.131014 0.206875
C46   C     C_3   0.264051 0.588594 0.879562 -0.409608
C47   C     C_3   0.275298 0.765049 0.971314 -0.377631
C48   C     C_3   0.252763 0.812206 0.156383 -0.717954
H26   H     H_    0.213018 0.786344 0.137226 0.259542
H27   H     H_    0.268604 0.746876 0.255645 0.266866
H28   H     H_    0.260153 0.941305 0.215766 0.264785
H29   H     H_    0.315009 0.790787 0.995880 0.215713
H30   H     H_    0.261020 0.839143 0.878877 0.273644
H31   H     H_    0.224400 0.561965 0.868980 0.206886
H32   H     H_    0.280346 0.515163 0.969016 0.186465

loop_
_geom_bond_atom_site_label_1
_geom_bond_atom_site_label_2
_ccdc_geom_bond_type
C29   N1    A    
C30   N2    A    
C8    C26   A    
C14   C18   A    
C34   C42   A    
C43   H24   S    
C45   H19   S    
C47   H29   S    
C39   C41   A    
C19   H13   S    
C3    C18   A    
C19   C21   A    
C2    O2    A    
C9    C22   A    
C14   C20   A    
C11   C37   A    
C44   H23   S    
C36   H9    S    
C27   H17   S    
C33   C35   A    
C32   O11   S    
C12   C36   A    
C8    H8    S    
Cu1   O8    S    
C40   C42   A    
C35   H10   S    
Cu2   N3    S    
C23   O7    A    
C43   H25   S    
C45   H20   S    
C5    C29   A    
C10   C21   A    
C13   C19   A    
C23   O5    A    
C32   N2    A    
C4    C6    A    
C48   H26   S    
C5    C7    A    
C33   C46   S    
C15   C26   A    
C22   H12   S    
C1    O3    A    
C46   H31   S    
Cu1   Cu2   S    
C44   H22   S    
C3    C9    A    
C31   N1    A    
C34   C43   S    
C48   H27   S    
C30   O10   S    
Cu2   O3    S    
C4    C17   A    
Cu1   O1    S    
C39   H5    S    
C20   C22   A    
Cu1   O4    S    
Cu2   O2    S    
C41   N1    S    
C20   H14   S    
C42   N2    S    
C45   H21   S    
C24   O6    A    
C31   O12   S    
C21   H11   S    
C16   C25   A    
C15   C17   A    
Cu1   O5    S    
C6    C30   A    
C4    C10   A    
C44   C45   S    
C3    C5    A    
C6    C8    A    
C47   H30   S    
C29   O9    S    
C12   C24   S    
C7    C25   A    
C13   C17   A    
C46   H32   S    
C33   C41   A    
C11   C35   A    
C7    H7    S    
C37   C39   A    
C48   H28   S    
C38   C40   A    
C24   O8    A    
C47   C48   S    
C26   H16   S    
Cu1   N4    S    
C40   H6    S    
C11   C23   S    
C1    O1    A    
Cu2   O6    S    
C34   C36   A    
C12   C38   A    
Cu2   O7    S    
C38   H2    S    
C9    C31   A    
C43   C44   S    
C10   C32   A    
C16   C18   A    
N3    N4    D    
C13   C16   A    
C27   C28   D    
C1    C27   S    
C14   C15   A    
C2    C28   S    
C25   H15   S    
H4    N4    S    
C46   C47   S    
C2    O4    A    
C37   H1    S    
H3    N3    S    
C28   H18   S    
