data_mof_unit_37368.cif
_audit_creation_date              2012-12-10T19:48:02-0500
_audit_creation_method            fapswitch 2.2
_symmetry_space_group_name_H-M    P1
_symmetry_Int_Tables_number       1
_space_group_crystal_system       triclinic
_cell_length_a                    14.925098
_cell_length_b                    14.16847
_cell_length_c                    10.751385
_cell_angle_alpha                 87.251383
_cell_angle_beta                  92.046533
_cell_angle_gamma                 91.05533
_cell_volume                      2269.16830643

loop_
_atom_site_label
_atom_site_type_symbol
_atom_type_description
_atom_site_fract_x
_atom_site_fract_y
_atom_site_fract_z
_atom_type_partial_charge
C1    C     C_R   0.327670 0.498581 0.501532 0.922331
C2    C     C_R   0.552954 0.792398 0.584638 -0.047540
C3    C     C_R   0.565506 0.204493 0.565358 -0.077990
C4    C     C_R   0.434484 0.795512 0.434678 -0.078007
C5    C     C_R   0.505201 0.054189 0.492125 -0.026922
C6    C     C_R   0.494812 0.945811 0.507891 -0.026916
C7    C     C_R   0.498687 0.502921 0.259707 0.858427
C8    C     C_R   0.501311 0.497080 0.740293 0.858423
C9    C     C_R   0.393392 0.640062 0.101334 -0.213064
C10   C     C_R   0.606607 0.359940 0.898669 -0.213067
C11   C     C_R   0.365988 0.598012 0.854490 -0.167553
C12   C     C_R   0.672330 0.501419 0.498472 0.922341
C13   C     C_R   0.634026 0.402011 0.145508 -0.167539
C14   C     C_R   0.329973 0.691009 0.027184 0.186769
C15   C     C_R   0.670030 0.308997 0.972817 0.186745
C16   C     C_R   0.313865 0.667202 0.903198 0.216265
C17   C     C_R   0.686149 0.332819 0.096799 0.216243
C18   C     C_R   0.435465 0.552047 0.926348 0.041631
C19   C     C_R   0.564540 0.447964 0.073652 0.041634
C20   C     C_R   0.444864 0.567549 0.053229 0.047114
C21   C     C_R   0.555138 0.432457 0.946772 0.047116
C22   C     C_R   0.494712 0.490064 0.873104 -0.156557
C23   C     C_R   0.046485 0.484610 0.489715 -0.105744
C24   C     C_R   0.505289 0.509941 0.126896 -0.156557
C25   C     C_R   0.093524 0.425529 0.577275 0.444930
C26   C     C_R   0.906480 0.574472 0.422770 0.444931
C27   C     C_R   0.909226 0.488735 0.619923 0.446379
C28   C     C_R   0.090766 0.511244 0.380104 0.446376
C29   C     C_R   0.186757 0.435252 0.588083 0.012542
C30   C     C_R   0.813248 0.564757 0.411953 0.012532
C31   C     C_R   0.816224 0.475921 0.613002 0.059220
C32   C     C_R   0.183769 0.524063 0.387014 0.059219
C33   C     C_R   0.230898 0.492485 0.496881 -0.176166
C34   C     C_R   0.953512 0.515377 0.510321 -0.105740
C35   C     C_R   0.769101 0.507514 0.503137 -0.176180
C36   C     C_3   0.757429 0.284548 0.178587 -0.773240
C37   C     C_3   0.242596 0.715484 0.821405 -0.773348
C38   C     C_3   0.720323 0.230193 0.918387 -0.770264
C39   C     C_3   0.279674 0.769803 0.081612 -0.770305
C40   C     C_3   0.238197 0.382924 0.693180 -0.671389
C41   C     C_3   0.761816 0.617107 0.306866 -0.671351
C42   C     C_3   0.767091 0.432891 0.722409 -0.749867
C43   C     C_3   0.232897 0.567089 0.277599 -0.749848
C44   C     C_R   0.453276 0.109651 0.403133 0.351526
C45   C     C_R   0.546747 0.890343 0.596857 0.351515
C46   C     C_R   0.573500 0.106464 0.556103 0.349295
C47   C     C_R   0.426500 0.893542 0.443937 0.349299
C48   C     C_R   0.447064 0.207596 0.415338 -0.047529
Cl1   Cl    Cl    0.040181 0.323306 0.644378 -0.499112
Cl2   Cl    Cl    0.959837 0.676693 0.355684 -0.499128
Cl3   Cl    Cl    0.965397 0.499725 0.767030 -0.516762
Cl4   Cl    Cl    0.034582 0.500261 0.233002 -0.516773
Cl5   Cl    Cl    0.425717 0.070459 0.252917 -0.503790
Cl6   Cl    Cl    0.574317 0.929515 0.747077 -0.503771
Cl7   Cl    Cl    0.683148 0.063471 0.582004 -0.499729
Cl8   Cl    Cl    0.316858 0.936555 0.418040 -0.499728
H1    H     H_    0.401726 0.660475 0.195706 0.177163
H2    H     H_    0.742276 0.207606 0.188417 0.259597
H3    H     H_    0.823944 0.295935 0.136777 0.265774
H4    H     H_    0.238569 0.687508 0.726511 0.242266
H5    H     H_    0.176079 0.704090 0.863185 0.265776
H6    H     H_    0.257744 0.792422 0.811601 0.259614
H7    H     H_    0.698831 0.219168 0.820205 0.244591
H8    H     H_    0.793314 0.246799 0.920915 0.259163
H9    H     H_    0.707887 0.162957 0.972810 0.274277
H10   H     H_    0.301153 0.780811 0.179797 0.244582
H11   H     H_    0.292119 0.837044 0.027213 0.274281
H12   H     H_    0.598271 0.339521 0.804298 0.177154
H13   H     H_    0.206685 0.753204 0.079057 0.259170
H14   H     H_    0.290778 0.429250 0.734250 0.189084
H15   H     H_    0.194341 0.359711 0.770392 0.282838
H16   H     H_    0.270002 0.319869 0.657518 0.260242
H17   H     H_    0.709242 0.570784 0.265765 0.189096
H18   H     H_    0.730000 0.680149 0.342551 0.260231
H19   H     H_    0.805677 0.640345 0.229670 0.282844
H20   H     H_    0.730196 0.368820 0.692698 0.224483
H21   H     H_    0.812248 0.410226 0.801784 0.288400
H22   H     H_    0.719439 0.484686 0.755436 0.222085
H23   H     H_    0.351307 0.580327 0.759247 0.150391
H24   H     H_    0.269789 0.631165 0.307306 0.224478
H25   H     H_    0.280552 0.515295 0.244577 0.222078
H26   H     H_    0.187737 0.589747 0.198221 0.288408
H27   H     H_    0.648712 0.419707 0.240747 0.150363
H28   H     H_    0.406188 0.249415 0.349167 0.187307
H29   H     H_    0.593839 0.750575 0.650787 0.187316
H30   H     H_    0.616772 0.243894 0.615198 0.154165
H31   H     H_    0.383207 0.756116 0.384860 0.154195
H32   H     H_    0.761470 0.312547 0.273481 0.242255
N1    N     N_R   0.500000 0.252470 0.500000 -0.146781
N2    N     N_R   0.500000 0.747530 0.500000 -0.146794
O1    O     O_R   0.369060 0.579480 0.500010 -0.628540
O2    O     O_R   0.630940 0.420520 0.499990 -0.628524
O3    O     O_R   0.630940 0.579480 0.499990 -0.603588
O4    O     O_R   0.369060 0.420520 0.500010 -0.603568
O5    O     O_R   0.499990 0.579480 0.316780 -0.630184
O6    O     O_R   0.500010 0.420520 0.683220 -0.630189
O7    O     O_R   0.500010 0.579480 0.683220 -0.608919
O8    O     O_R   0.499990 0.420520 0.316780 -0.608916
Zn1   Zn    Zn3+2 0.500000 0.606140 0.500000 0.955501
Zn2   Zn    Zn3+2 0.500000 0.393860 0.500000 0.955514

loop_
_geom_bond_atom_site_label_1
_geom_bond_atom_site_label_2
_ccdc_geom_bond_type
C11   C18   A    
C6    C45   A    
C8    O6    A    
C8    O7    A    
C36   H3    S    
C37   H6    S    
C1    C33   S    
C4    H31   S    
C36   H32   S    
C40   H14   S    
C30   C35   A    
C19   C21   A    
C36   H2    S    
C10   C15   A    
C26   Cl2   S    
C5    C6    S    
O5    Zn1   S    
C7    C24   S    
C29   C33   A    
C2    H29   S    
C2    N2    A    
C31   C35   A    
C41   H18   S    
C44   Cl5   S    
C26   C34   A    
C20   C24   A    
C1    O4    A    
C46   Cl7   S    
C8    C22   S    
C30   C41   S    
C17   C36   S    
O3    Zn1   S    
C38   H8    S    
C16   C37   S    
C14   C39   S    
C7    O8    A    
C10   C21   A    
C21   C22   A    
C3    H30   S    
O7    Zn1   S    
C27   Cl3   S    
C4    N2    A    
C27   C34   A    
C25   C29   A    
C6    C47   A    
C13   C19   A    
N1    Zn2   S    
C27   C31   A    
C28   C32   A    
C43   H24   S    
C48   H28   S    
C9    C14   A    
C15   C38   S    
C41   H19   S    
C11   C16   A    
C9    C20   A    
C38   H9    S    
O4    Zn2   S    
C23   C34   S    
C39   H13   S    
C23   C28   A    
C12   C35   S    
C40   H15   S    
C11   H23   S    
C5    C44   A    
C45   Cl6   S    
C42   H22   S    
O8    Zn2   S    
C48   N1    A    
C43   H25   S    
C39   H10   S    
C14   C16   A    
C12   O3    A    
N2    Zn1   S    
O2    Zn2   S    
C38   H7    S    
C15   C17   A    
C40   H16   S    
C18   C22   A    
C39   H11   S    
C12   O2    A    
C18   C20   A    
C37   H5    S    
C26   C30   A    
C10   H12   S    
C7    O5    A    
C5    C46   A    
C13   H27   S    
C3    C46   A    
C42   H20   S    
C13   C17   A    
C3    N1    A    
C32   C33   A    
C19   C24   A    
C28   Cl4   S    
C31   C42   S    
O6    Zn2   S    
C29   C40   S    
C32   C43   S    
C9    H1    S    
C23   C25   A    
C25   Cl1   S    
C37   H4    S    
C2    C45   A    
C41   H17   S    
C42   H21   S    
C1    O1    A    
C43   H26   S    
O1    Zn1   S    
C44   C48   A    
C47   Cl8   S    
C4    C47   A    
