data_mof_unit_31881.cif
_audit_creation_date              2012-12-11T17:07:23-0500
_audit_creation_method            fapswitch 2.2
_symmetry_space_group_name_H-M    P1
_symmetry_Int_Tables_number       1
_space_group_crystal_system       triclinic
_cell_length_a                    6.959014
_cell_length_b                    14.492726
_cell_length_c                    16.077746
_cell_angle_alpha                 90.033493
_cell_angle_beta                  90.01545
_cell_angle_gamma                 89.990954
_cell_volume                      1621.52205324

loop_
_atom_site_label
_atom_site_type_symbol
_atom_type_description
_atom_site_fract_x
_atom_site_fract_y
_atom_site_fract_z
_atom_type_partial_charge
O1    O     O_R   0.505720 0.583900 0.413310 -0.529786
O2    O     O_R   0.175940 0.594920 0.586080 -0.552097
O3    O     O_R   0.005640 0.416100 0.586690 -0.543480
C1    C     C_R   0.344609 0.616843 0.614835 0.707561
O4    O     O_R   0.176000 0.594930 0.413930 -0.526508
O5    O     O_R   0.005700 0.416110 0.413310 -0.524932
C2    C     C_R   0.344769 0.616885 0.385150 0.774607
O6    O     O_R   0.505660 0.583890 0.586690 -0.546269
O7    O     O_3   0.339200 0.441330 0.500000 -0.375874
V1    V     V_3+5 0.064350 0.510880 0.500000 1.481878
O8    O     O_R   0.675980 0.405080 0.413920 -0.539368
C3    C     C_R   0.844982 0.382939 0.385350 0.799127
O9    O     O_R   0.675920 0.405070 0.586070 -0.545975
C4    C     C_R   0.844739 0.383188 0.614619 0.669954
V2    V     V_3+5 0.564340 0.489120 0.500000 1.477957
O10   O     O_3   0.839360 0.558670 0.500000 -0.374988
H1    H     H_    0.137611 0.095167 0.515545 0.129340
C5    C     C_R   0.703065 0.426033 0.779608 -0.151392
C6    C     C_R   0.634861 0.449114 0.858385 -0.076705
C7    C     C_R   0.647024 0.385927 0.923145 -0.085206
C8    C     C_R   0.727447 0.299163 0.909627 -0.145172
C9    C     C_R   0.796123 0.273244 0.830057 0.066700
C10   C     C_R   0.783654 0.338039 0.763621 0.063515
C11   C     C_R   0.879763 0.185200 0.816518 -0.174730
C12   C     C_R   0.950711 0.161963 0.736449 0.067620
C13   C     C_R   0.938133 0.226725 0.670000 0.069464
C14   C     C_R   0.854787 0.314842 0.683552 -0.175115
C15   C     C_R   0.031072 0.073919 0.720473 -0.158170
C16   C     C_R   0.098556 0.050659 0.641639 -0.133619
C17   C     C_R   0.086195 0.113791 0.576848 -0.112655
C18   C     C_R   0.006289 0.200672 0.590394 -0.133549
H2    H     H_    0.692914 0.478300 0.731817 0.113048
H3    H     H_    0.573398 0.516682 0.869325 0.154117
H4    H     H_    0.595089 0.404419 0.984405 0.158907
H5    H     H_    0.736426 0.253224 0.962487 0.104230
H6    H     H_    0.041449 0.021711 0.768303 0.114109
H7    H     H_    0.159606 0.983005 0.630689 0.115690
H8    H     H_    0.997160 0.246582 0.537523 0.094528
C19   C     C_R   0.741297 0.255217 0.183965 -0.105714
C20   C     C_R   0.883381 0.186710 0.182143 -0.188729
C21   C     C_R   0.024914 0.189243 0.245170 0.605913
C22   C     C_R   0.013357 0.254028 0.310520 -0.224474
H9    H     H_    0.120317 0.252051 0.359432 0.138371
C23   C     C_R   0.858102 0.316300 0.315853 -0.240542
C24   C     C_R   0.728431 0.317981 0.249279 0.149482
C25   C     C_3   0.514226 0.315493 0.248255 0.536302
C26   C     C_3   0.528439 0.247666 0.176177 -0.418105
H10   H     H_    0.450320 0.286409 0.305879 0.039901
H11   H     H_    0.475383 0.275869 0.116114 0.196366
H12   H     H_    0.476404 0.177379 0.191604 0.204236
C27   C     C_R   0.485909 0.758350 0.681809 -0.012516
C28   C     C_R   0.351760 0.686361 0.682151 -0.156972
C29   C     C_R   0.217095 0.684795 0.747677 -0.253174
H13   H     H_    0.107622 0.631698 0.749528 0.157681
C30   C     C_R   0.231580 0.747347 0.814797 0.701900
C31   C     C_R   0.376786 0.815452 0.816325 -0.190451
C32   C     C_R   0.496393 0.821995 0.746473 -0.112810
C33   C     C_3   0.709909 0.827427 0.740044 0.551202
C34   C     C_3   0.698362 0.757509 0.669547 -0.403212
H14   H     H_    0.762940 0.896606 0.721064 0.012624
H15   H     H_    0.764253 0.689656 0.684797 0.194380
H16   H     H_    0.740532 0.786770 0.608337 0.114957
C35   C     C_R   0.507521 0.682241 0.258630 0.001959
C36   C     C_R   0.353006 0.682434 0.314576 -0.141767
C37   C     C_R   0.203661 0.745991 0.300157 -0.096386
H17   H     H_    0.082330 0.749181 0.342014 0.130164
C38   C     C_R   0.216158 0.810726 0.235124 -0.048412
H18   H     H_    0.105568 0.862418 0.228987 0.205944
C39   C     C_R   0.376717 0.813369 0.182046 -0.118477
C40   C     C_R   0.519284 0.746582 0.193984 -0.034822
C41   C     C_3   0.728143 0.761069 0.208978 0.988353
C42   C     C_3   0.716586 0.689597 0.277624 0.403875
H19   H     H_    0.746735 0.716319 0.341120 0.003627
O11   O     O_R   0.229140 0.916090 0.913340 -0.522174
O12   O     O_R   0.558860 0.905090 0.086080 -0.512392
O13   O     O_R   0.729100 0.083920 0.086690 -0.552090
C43   C     C_R   0.389959 0.883300 0.115059 0.786083
O14   O     O_R   0.558860 0.905090 0.913930 -0.513624
O15   O     O_R   0.729100 0.083920 0.913310 -0.553934
C44   C     C_R   0.389837 0.882664 0.885534 0.758594
O16   O     O_R   0.229140 0.916080 0.086720 -0.524581
O17   O     O_3   0.395570 0.058660 0.000020 -0.401582
V3    V     V_3+5 0.670450 0.989140 0.000000 1.620423
O18   O     O_R   0.058810 0.094980 0.913910 -0.553198
C45   C     C_R   0.889951 0.116882 0.885425 0.654502
O19   O     O_R   0.058810 0.094980 0.086060 -0.525100
C46   C     C_R   0.890243 0.116774 0.114984 0.766255
V4    V     V_3+5 0.170450 0.010950 0.999970 1.572431
O20   O     O_3   0.895460 0.941370 0.999990 -0.320687
F1    F     F_    0.437502 0.399534 0.224408 -0.628450
F2    F     F_    0.113693 0.736489 0.881287 -0.599264
F3    F     F_    0.798207 0.791956 0.809977 -0.615574
F4    F     F_    0.766492 0.849095 0.238007 -0.756753
F5    F     F_    0.840379 0.735099 0.141847 -0.601425
F6    F     F_    0.812600 0.608679 0.258329 -0.606412
F7    F     F_    0.165003 0.124230 0.247691 -0.718481

loop_
_geom_bond_atom_site_label_1
_geom_bond_atom_site_label_2
_ccdc_geom_bond_type
C30   C31   A    
C21   C22   A    
C39   C43   S    
C6    C7    A    
C1    O6    A    
C26   H11   S    
C41   F5    S    
C29   H13   S    
C23   C24   A    
C12   C15   A    
C13   C14   A    
C1    C28   S    
C20   C46   S    
C15   C16   A    
O5    C3    A    
C17   C18   A    
O19   V4    S    
C21   F7    S    
C33   H14   S    
V2    O10   S    
C31   C32   A    
C5    C6    A    
C30   F2    S    
C42   F6    S    
O8    V2    S    
O18   C45   A    
C37   C38   A    
C25   F1    S    
C40   C41   S    
O1    V2    S    
C10   C14   A    
C4    C14   S    
O7    V1    S    
C19   C24   A    
C7    H4    S    
C13   C18   A    
O11   C44   A    
C8    C9    A    
H1    C17   S    
C22   C23   A    
O14   V3    S    
O13   V3    S    
C26   H12   S    
C29   C30   A    
C27   C34   S    
V3    O20   S    
C25   H10   S    
C34   H15   S    
C38   H18   S    
C11   C12   A    
C6    H3    S    
C19   C20   A    
O4    C2    A    
O19   C46   A    
C33   C34   S    
C24   C25   S    
C5    C10   A    
C38   C39   A    
O2    C1    A    
C16   C17   A    
C35   C40   A    
C43   O16   A    
C7    C8    A    
O12   C43   A    
O13   C46   A    
O3    C4    A    
C27   C32   A    
C20   C21   A    
O17   V3    S    
O6    V2    S    
O9    V2    S    
C9    C11   A    
C5    H2    S    
C22   H9    S    
O2    V1    S    
O15   C45   A    
C28   C29   A    
C19   C26   S    
C41   F4    S    
C11   C45   S    
C25   C26   S    
C34   H16   S    
O1    C2    A    
O18   V4    S    
C42   H19   S    
O5    V1    S    
O8    C3    A    
C8    H5    S    
C31   C44   S    
C18   H8    S    
C36   C37   A    
C12   C13   A    
C27   C28   A    
C3    C23   S    
O3    V1    S    
V1    O10   S    
O15   V3    S    
O12   V3    S    
C32   C33   S    
O17   V4    S    
C35   C42   S    
O14   C44   A    
O7    V2    S    
C39   C40   A    
C2    C36   S    
O16   V4    S    
C35   C36   A    
O4    V1    S    
C41   C42   S    
V4    O20   S    
C15   H6    S    
C37   H17   S    
C16   H7    S    
C9    C10   A    
O11   V4    S    
O9    C4    A    
C33   F3    S    
