data_mof_unit_37750.cif
_audit_creation_date              2012-12-10T20:38:16-0500
_audit_creation_method            fapswitch 2.2
_symmetry_space_group_name_H-M    P1
_symmetry_Int_Tables_number       1
_space_group_crystal_system       triclinic
_cell_length_a                    9.859871
_cell_length_b                    10.681017
_cell_length_c                    16.695761
_cell_angle_alpha                 89.930863
_cell_angle_beta                  84.562586
_cell_angle_gamma                 89.889714
_cell_volume                      1750.37224868

loop_
_atom_site_label
_atom_site_type_symbol
_atom_type_description
_atom_site_fract_x
_atom_site_fract_y
_atom_site_fract_z
_atom_type_partial_charge
C1    C     C_R   0.500268 0.740097 0.497595 0.878017
C2    C     C_R   0.375947 0.629040 0.764943 -0.257184
C3    C     C_R   0.427694 0.586914 0.141107 -0.145700
C4    C     C_R   0.418283 0.540452 0.218905 -0.213607
C5    C     C_R   0.659674 0.578317 0.224646 -0.198302
C6    C     C_R   0.669028 0.625453 0.146745 -0.185594
C7    C     C_R   0.553172 0.631143 0.104584 0.206327
C8    C     C_2   0.464958 0.677363 0.975428 -0.231917
C9    C     C_2   0.571123 0.662904 0.018788 -0.241485
C10   C     C_R   0.533869 0.536321 0.261319 -0.032379
C11   C     C_R   0.379334 0.936536 0.484709 0.144702
C12   C     C_R   0.480448 0.502681 0.653237 0.889275
C13   C     C_R   0.501800 0.871495 0.484746 -0.103606
C14   C     C_R   0.625952 0.935049 0.469276 -0.226210
C15   C     C_R   0.626116 0.064541 0.469233 -0.224870
C16   C     C_R   0.502137 0.128630 0.484658 -0.109628
C17   C     C_R   0.379536 0.064246 0.484698 0.132782
C18   C     C_3   0.253475 0.071826 0.541809 -0.470578
C19   C     C_3   0.253217 0.929942 0.541825 -0.500203
C20   C     C_R   0.917433 0.512756 0.570249 0.235758
C21   C     C_R   0.939023 0.476396 0.431552 -0.153177
C22   C     C_R   0.082870 0.476396 0.431541 -0.135596
C23   C     C_R   0.500523 0.259948 0.497509 0.887770
C24   C     C_R   0.059947 0.512022 0.570362 0.220825
C25   C     C_3   0.056485 0.619591 0.627286 -0.537325
C26   C     C_3   0.902660 0.621348 0.626371 -0.497270
C27   C     C_R   0.519744 0.504430 0.346541 0.856033
C28   C     C_R   0.467962 0.534385 0.737939 -0.026728
C29   C     C_R   0.559404 0.485186 0.789150 0.068161
C30   C     C_R   0.560044 0.533689 0.866406 -0.199142
C31   C     C_R   0.471649 0.632354 0.892386 0.184913
C32   C     C_R   0.377395 0.677350 0.842008 -0.181817
H1    H     H_    0.767197 0.655974 0.118946 0.124430
H2    H     H_    0.722558 0.885854 0.462875 0.171160
H3    H     H_    0.722785 0.113300 0.462805 0.172556
H4    H     H_    0.272313 0.112964 0.600933 0.203155
H5    H     H_    0.166372 0.113230 0.513212 0.205763
H6    H     H_    0.271889 0.888520 0.600981 0.197088
H7    H     H_    0.165940 0.889551 0.513131 0.204961
H8    H     H_    0.893937 0.459190 0.376060 0.146750
H9    H     H_    0.145370 0.459023 0.375957 0.148196
H10   H     H_    0.089429 0.591762 0.686600 0.201507
H11   H     H_    0.320212 0.508513 0.245955 0.144491
H12   H     H_    0.107231 0.704190 0.600057 0.212705
H13   H     H_    0.847651 0.596071 0.685312 0.206007
H14   H     H_    0.863835 0.706626 0.597728 0.213398
H15   H     H_    0.750299 0.577314 0.256587 0.149539
H16   H     H_    0.672687 0.650989 0.988231 0.147852
H17   H     H_    0.306257 0.750854 0.861984 0.133642
H18   H     H_    0.337020 0.583691 0.109557 0.123148
H19   H     H_    0.307105 0.669589 0.725183 0.150569
H20   H     H_    0.365705 0.704527 0.003822 0.145024
H21   H     H_    0.627943 0.491712 0.906140 0.131013
N1    N     N_R   0.857140 0.500860 0.500530 -0.107781
N2    N     N_R   0.142780 0.500820 0.500530 -0.104720
O1    O     O_R   0.385310 0.683210 0.499990 -0.614112
O2    O     O_R   0.614650 0.683240 0.500000 -0.623641
O3    O     O_R   0.371780 0.500000 0.615800 -0.625238
O4    O     O_R   0.601120 0.500040 0.615800 -0.592647
O5    O     O_R   0.385350 0.316760 0.500000 -0.613722
O6    O     O_R   0.614690 0.316790 0.500010 -0.615807
O7    O     O_R   0.398880 0.499960 0.384200 -0.624599
O8    O     O_R   0.628220 0.500000 0.384200 -0.628569
Zn1   Zn    Zn3+2 0.346870 0.499980 0.499990 0.940326
Zn2   Zn    Zn3+2 0.653130 0.500020 0.500010 0.946165
N3    N     N_3   0.650314 0.385321 0.763071 -0.459979
H22   H     H_    0.630211 0.309537 0.802055 0.179993
H23   H     H_    0.749938 0.414991 0.768686 0.179130

loop_
_geom_bond_atom_site_label_1
_geom_bond_atom_site_label_2
_ccdc_geom_bond_type
C10   C27   S    
C14   H2    S    
N3    H23   S    
O1    Zn1   S    
C22   N2    A    
C19   H6    S    
C1    O2    A    
C16   C23   S    
C5    H15   S    
C8    H20   S    
O7    Zn1   S    
C31   C32   A    
C6    H1    S    
C21   N1    A    
O5    Zn1   S    
C12   O3    A    
N2    Zn1   S    
O8    Zn2   S    
C17   C18   S    
C5    C10   A    
N1    Zn2   S    
C21   C22   A    
O4    Zn2   S    
C24   N2    A    
C2    C32   A    
C11   C13   A    
C30   C31   A    
C11   C19   S    
C29   C30   A    
C21   H8    S    
C27   O8    A    
C12   C28   S    
C5    C6    A    
C19   H7    S    
C25   H12   S    
C15   H3    S    
C28   C29   A    
C27   O7    A    
C4    H11   S    
N3    H22   S    
C25   H10   S    
C3    C7    A    
C12   O4    A    
O3    Zn1   S    
C23   O5    A    
C30   H21   S    
C32   H17   S    
C22   H9    S    
C1    C13   S    
C2    H19   S    
C26   H14   S    
C4    C10   A    
C15   C16   A    
O6    Zn2   S    
C3    H18   S    
C23   O6    A    
C24   C25   S    
C9    H16   S    
C20   N1    A    
C18   C19   S    
O2    Zn2   S    
C7    C9    S    
C20   C24   A    
C14   C15   A    
C11   C17   A    
C2    C28   A    
C26   H13   S    
C25   C26   S    
C13   C14   A    
C8    C31   S    
C18   H4    S    
C1    O1    A    
C6    C7    A    
C3    C4    A    
C16   C17   A    
C18   H5    S    
C8    C9    D    
C20   C26   S    
C29   N3    S    
