data_mof_unit_22325.cif
_audit_creation_date              2012-12-10T18:11:36-0500
_audit_creation_method            fapswitch 2.2
_symmetry_space_group_name_H-M    P1
_symmetry_Int_Tables_number       1
_space_group_crystal_system       triclinic
_cell_length_a                    10.50243
_cell_length_b                    12.621081
_cell_length_c                    13.146848
_cell_angle_alpha                 82.296276
_cell_angle_beta                  90.474123
_cell_angle_gamma                 102.733955
_cell_volume                      1684.03003764

loop_
_atom_site_label
_atom_site_type_symbol
_atom_type_description
_atom_site_fract_x
_atom_site_fract_y
_atom_site_fract_z
_atom_type_partial_charge
C1    C     C_R   0.480184 0.438819 0.691154 0.848951
C2    C     C_3   0.063375 0.580248 0.427291 -0.231284
C3    C     C_3   0.987011 0.599446 0.520910 -0.204495
C4    C     C_3   0.877888 0.502551 0.499922 -0.046840
C5    C     C_R   0.409049 0.701668 0.064446 -0.196002
C6    C     C_R   0.502366 0.596567 0.200335 -0.045018
C7    C     C_R   0.499098 0.300488 0.838282 -0.194805
C8    C     C_R   0.511366 0.272159 0.942975 -0.149241
C9    C     C_R   0.498926 0.345683 0.010211 -0.167844
C10   C     C_R   0.467515 0.447570 0.973535 0.084004
C11   C     C_R   0.435521 0.468028 0.869629 0.069348
C12   C     C_R   0.742334 0.501055 0.499921 0.875589
C13   C     C_R   0.466612 0.529862 0.036457 0.083483
C14   C     C_R   0.414126 0.622170 0.000361 0.164301
C15   C     C_R   0.365613 0.632699 0.901617 -0.248195
C16   C     C_R   0.376278 0.556746 0.836904 -0.160489
C17   C     C_R   0.518751 0.523654 0.134016 -0.219839
C18   C     C_R   0.450940 0.687810 0.165208 -0.206465
C19   C     C_R   0.465473 0.399860 0.800835 -0.100744
C20   C     C_R   0.320051 0.087578 0.346666 -0.390818
C21   C     C_R   0.652965 0.799600 0.630367 0.019676
C22   C     C_R   0.684394 0.903984 0.659168 -0.252994
C23   C     C_R   0.513207 0.561058 0.308867 0.855991
C24   C     C_R   0.626414 0.985428 0.609952 -0.195097
C25   C     C_R   0.536333 0.962553 0.531012 0.045460
C26   C     C_R   0.507877 0.854671 0.504445 0.235133
C27   C     C_R   0.473449 0.041792 0.477705 -0.005289
C28   C     C_R   0.383504 0.011280 0.399724 0.103332
C29   C     C_R   0.357822 0.905012 0.375100 -0.257019
C30   C     C_R   0.419546 0.828172 0.426523 -0.204385
C31   C     C_R   0.495930 0.150803 0.498109 -0.176543
C32   C     C_R   0.346307 0.193661 0.370702 0.757599
C33   C     C_R   0.257677 0.499102 0.499664 0.898962
C34   C     C_3   0.935999 0.419866 0.571273 -0.260650
C35   C     C_3   0.046582 0.516232 0.589830 0.471573
C36   C     C_3   0.122131 0.497945 0.498474 -0.003940
C37   C     C_3   0.012556 0.401587 0.477402 -0.166411
C38   C     C_3   0.951354 0.483894 0.406101 -0.138256
H1    H     H_    0.568525 0.459714 0.162216 0.141780
H2    H     H_    0.519999 0.246316 0.786431 0.151226
H3    H     H_    0.511070 0.319474 0.090535 0.145339
H4    H     H_    0.536012 0.194893 0.971810 0.143981
H5    H     H_    0.336256 0.567742 0.761271 0.223918
H6    H     H_    0.289772 0.881064 0.315454 0.148125
H7    H     H_    0.251087 0.065324 0.287174 0.173000
H8    H     H_    0.562722 0.181728 0.555286 0.153038
H9    H     H_    0.697452 0.735888 0.668513 0.138441
H10   H     H_    0.880644 0.356082 0.630923 0.143020
H11   H     H_    0.653845 0.064865 0.635377 0.135433
H12   H     H_    0.753311 0.921711 0.719602 0.152319
H13   H     H_    0.396365 0.748429 0.403427 0.203065
H14   H     H_    0.026773 0.321528 0.459172 0.182016
H15   H     H_    0.907130 0.470943 0.330499 0.144597
H16   H     H_    0.119592 0.644619 0.368523 0.144279
H17   H     H_    0.973350 0.679278 0.540180 0.154824
H18   H     H_    0.437198 0.744845 0.216501 0.147284
H19   H     H_    0.321492 0.700735 0.873680 0.158178
H20   H     H_    0.368020 0.771847 0.037966 0.136547
N1    N     N_R   0.432930 0.222190 0.444670 -0.150684
N2    N     N_R   0.566370 0.776980 0.554790 -0.131715
O1    O     O_R   0.467970 0.366730 0.627150 -0.619564
O2    O     O_R   0.510820 0.544830 0.662520 -0.624580
O3    O     O_R   0.664630 0.410960 0.482340 -0.623325
O4    O     O_R   0.707470 0.589060 0.517710 -0.626490
O5    O     O_R   0.489180 0.455170 0.337480 -0.563440
O6    O     O_R   0.532030 0.633270 0.372850 -0.646429
O7    O     O_R   0.292530 0.410940 0.482290 -0.579187
O8    O     O_R   0.335370 0.589040 0.517660 -0.631259
Zn1   Zn    Zn3+2 0.471390 0.381080 0.476380 0.988451
Zn2   Zn    Zn3+2 0.528610 0.618920 0.523620 0.932009
O9    O     O_3   0.101516 0.532469 0.685200 -0.799808
H21   H     H_    0.029645 0.542688 0.728637 0.326818
F1    F     F_    0.285658 0.268746 0.320101 -0.661944

loop_
_geom_bond_atom_site_label_1
_geom_bond_atom_site_label_2
_ccdc_geom_bond_type
C30   H13   S    
C34   C37   S    
C35   C36   S    
C1    O2    A    
C7    C8    A    
C11   C19   A    
C37   C38   S    
C5    H20   S    
C23   O6    A    
C36   C37   S    
C8    H4    S    
C12   O4    A    
O1    Zn1   S    
C15   C16   A    
C33   C36   S    
O2    Zn2   S    
C34   C35   S    
C17   H1    S    
C31   N1    A    
C3    H17   S    
O3    Zn1   S    
C8    C9    A    
C31   H8    S    
C7    H2    S    
C3    C35   S    
C4    C12   S    
C9    C10   A    
C20   H7    S    
C18   H18   S    
C22   H12   S    
C35   O9    S    
C21   C22   A    
C15   H19   S    
C6    C18   A    
C4    C34   S    
C1    C19   S    
C27   C31   A    
C24   C25   A    
C21   N2    A    
C2    H16   S    
C32   F1    S    
C37   H14   S    
C5    C18   A    
C20   C28   A    
C25   C26   A    
O7    Zn1   S    
O4    Zn2   S    
C29   C30   A    
C11   C16   A    
C2    C38   S    
N2    Zn2   S    
C16   H5    S    
C5    C14   A    
N1    Zn1   S    
C4    C38   S    
C26   C30   A    
C7    C19   A    
C29   H6    S    
C22   C24   A    
C34   H10   S    
C3    C4    S    
C33   O7    A    
C20   C32   A    
C2    C36   S    
C24   H11   S    
C12   O3    A    
C6    C17   A    
C28   C29   A    
C10   C13   A    
C1    O1    A    
C25   C27   A    
C9    H3    S    
C13   C17   A    
C23   O5    A    
C2    C3    S    
O9    H21   S    
O6    Zn2   S    
C38   H15   S    
O5    Zn1   S    
C6    C23   S    
C10   C11   A    
O8    Zn2   S    
C27   C28   A    
C14   C15   A    
C32   N1    A    
C13   C14   A    
C26   N2    A    
C33   O8    A    
C21   H9    S    
