data_mof_unit_43456.cif
_audit_creation_date              2012-12-10T17:48:53-0500
_audit_creation_method            fapswitch 2.2
_symmetry_space_group_name_H-M    P1
_symmetry_Int_Tables_number       1
_space_group_crystal_system       triclinic
_cell_length_a                    10.722314
_cell_length_b                    14.695069
_cell_length_c                    14.779447
_cell_angle_alpha                 64.596086
_cell_angle_beta                  103.740982
_cell_angle_gamma                 103.166472
_cell_volume                      2022.21067436

loop_
_atom_site_label
_atom_site_type_symbol
_atom_type_description
_atom_site_fract_x
_atom_site_fract_y
_atom_site_fract_z
_atom_type_partial_charge
C1    C     C_R   0.477498 0.119945 0.312099 0.805547
C2    C     C_3   0.878361 0.000444 0.500085 0.156937
C3    C     C_3   0.922789 0.898660 0.580170 -0.386458
C4    C     C_3   0.965089 0.089138 0.526158 -0.366331
C5    C     C_R   0.457864 0.186869 0.203726 -0.077507
C6    C     C_R   0.515031 0.811245 0.794299 -0.059914
C7    C     C_R   0.418560 0.212461 0.026689 -0.202041
C8    C     C_R   0.433584 0.147402 0.129011 -0.198346
C9    C     C_R   0.461143 0.291175 0.174696 -0.181059
C10   C     C_R   0.433912 0.356486 0.072253 0.116006
C11   C     C_R   0.422373 0.317090 0.997939 0.159562
C12   C     C_R   0.260012 0.000326 0.499946 0.762081
C13   C     C_R   0.429605 0.461664 0.041909 -0.021174
C14   C     C_R   0.447223 0.529197 0.941106 0.017159
C15   C     C_R   0.436178 0.487548 0.868550 -0.192318
C16   C     C_R   0.419145 0.382986 0.896312 -0.223799
C17   C     C_R   0.404276 0.501830 0.106699 0.343858
C18   C     C_R   0.423910 0.606469 0.080058 -0.251497
C19   C     C_R   0.460466 0.673688 0.986849 0.090001
C20   C     C_R   0.470392 0.635907 0.915641 0.086430
C21   C     C_R   0.480452 0.778946 0.961924 -0.174247
C22   C     C_R   0.506374 0.847435 0.865791 -0.198035
C23   C     C_R   0.519977 0.879890 0.687717 0.788806
C24   C     C_R   0.503265 0.706455 0.821242 -0.225392
C25   C     C_R   0.731605 0.291594 0.656522 -0.320155
C26   C     C_R   0.692668 0.207789 0.630466 0.071662
C27   C     C_R   0.511548 0.281508 0.516041 0.011986
C28   C     C_R   0.544584 0.368409 0.540747 -0.020303
C29   C     C_R   0.658771 0.372522 0.611298 0.164412
C30   C     C_R   0.470733 0.451548 0.496842 0.060047
C31   C     C_R   0.517217 0.540229 0.519514 0.072440
C32   C     C_R   0.632133 0.540244 0.590029 -0.235935
C33   C     C_R   0.700238 0.457544 0.635657 -0.194772
C34   C     C_R   0.740127 0.999992 0.500031 0.752701
C35   C     C_R   0.351311 0.448454 0.432003 -0.174622
C36   C     C_R   0.284395 0.531729 0.384267 -0.160314
C37   C     C_R   0.331429 0.620360 0.401616 0.142164
C38   C     C_R   0.446793 0.625629 0.470879 -0.023312
C39   C     C_R   0.262275 0.703433 0.351368 -0.317126
C40   C     C_R   0.305894 0.790739 0.371155 0.073972
C41   C     C_R   0.485343 0.716700 0.488189 0.007881
C42   C     C_3   0.041935 0.014600 0.394045 -0.379242
C43   C     C_3   0.897898 0.014320 0.394063 -0.374595
C44   C     C_3   0.066845 0.898928 0.580251 -0.370848
C45   C     C_3   0.107903 0.089404 0.526095 -0.372391
C46   C     C_3   0.122249 0.000849 0.500096 0.152862
Cu1   Cu    Cu3+1 0.465900 0.918260 0.475680 0.926379
Cu2   Cu    Cu3+1 0.534100 0.081740 0.524320 0.933800
H1    H     H_    0.953415 0.081170 0.602224 0.162347
H2    H     H_    0.123259 0.887875 0.656986 0.154496
H3    H     H_    0.909409 0.887434 0.656876 0.150109
H4    H     H_    0.409579 0.353912 0.838467 0.144266
H5    H     H_    0.519257 0.681833 0.766504 0.140424
H6    H     H_    0.514998 0.928308 0.846336 0.151256
H7    H     H_    0.405577 0.635573 0.131117 0.178880
H8    H     H_    0.406229 0.181276 0.970134 0.132705
H9    H     H_    0.430319 0.066834 0.149551 0.156095
H10   H     H_    0.490720 0.321583 0.232516 0.198813
H11   H     H_    0.080250 0.087574 0.335514 0.167796
H12   H     H_    0.435426 0.533626 0.788784 0.144049
H13   H     H_    0.471829 0.808307 0.015736 0.132324
H14   H     H_    0.787694 0.460895 0.689642 0.143477
H15   H     H_    0.569799 0.726680 0.541207 0.118310
H16   H     H_    0.251463 0.854286 0.333786 0.121836
H17   H     H_    0.194164 0.526363 0.333546 0.167047
H18   H     H_    0.748855 0.145306 0.665299 0.122292
H19   H     H_    0.866432 0.087150 0.335526 0.157684
H20   H     H_    0.672298 0.603205 0.612133 0.127770
H21   H     H_    0.305898 0.381724 0.417421 0.170742
H22   H     H_    0.837409 0.951623 0.373329 0.173281
H23   H     H_    0.075586 0.833850 0.563530 0.175876
H24   H     H_    0.862806 0.833552 0.563296 0.167018
H25   H     H_    0.164486 0.081544 0.602108 0.168256
H26   H     H_    0.146680 0.163826 0.469561 0.176599
H27   H     H_    0.935590 0.163510 0.469701 0.177978
N1    N     N_R   0.585360 0.204570 0.560800 -0.179959
N2    N     N_R   0.414550 0.795430 0.439160 -0.176642
O1    O     O_R   0.455060 0.022100 0.338110 -0.586571
O2    O     O_R   0.512640 0.160150 0.379180 -0.573943
O3    O     O_R   0.288900 0.930980 0.479450 -0.590056
O4    O     O_R   0.346480 0.069030 0.520520 -0.591041
O5    O     O_R   0.487360 0.839850 0.620820 -0.584097
O6    O     O_R   0.544940 0.977900 0.661890 -0.585767
O7    O     O_R   0.653520 0.930970 0.479480 -0.590735
O8    O     O_R   0.711100 0.069020 0.520550 -0.592051
H28   H     H_    0.050118 0.952069 0.373214 0.166578
Cl1   Cl    Cl    0.318488 0.428151 0.209117 -0.719098
H29   H     H_    0.818615 0.293391 0.711288 0.139282
H30   H     H_    0.429222 0.273776 0.460392 0.146897
H31   H     H_    0.174111 0.700397 0.297992 0.140517

loop_
_geom_bond_atom_site_label_1
_geom_bond_atom_site_label_2
_ccdc_geom_bond_type
C23   O5    A    
C15   H12   S    
Cu2   N1    S    
C19   C20   A    
C7    C8    A    
C22   H6    S    
C45   C46   S    
C7    C11   A    
C23   O6    A    
C30   C35   A    
C1    C5    S    
C7    H8    S    
Cu2   O2    S    
C36   C37   A    
C19   C21   A    
C18   C19   A    
C41   N2    A    
C30   C31   A    
C15   C16   A    
C6    C22   A    
C29   C33   A    
Cu2   O4    S    
C44   H23   S    
C45   H25   S    
C9    H10   S    
C42   C46   S    
Cu1   O5    S    
C20   C24   A    
C4    H27   S    
Cu1   Cu2   S    
C33   H14   S    
C26   N1    A    
C27   H30   S    
C42   H28   S    
C9    C10   A    
C39   H31   S    
C21   H13   S    
C32   H20   S    
C2    C34   S    
C21   C22   A    
C1    O1    A    
C34   O7    A    
Cu1   O3    S    
C44   C46   S    
C4    C45   S    
C25   C29   A    
C3    C44   S    
C26   H18   S    
C14   C20   A    
C38   C41   A    
C12   C46   S    
C39   C40   A    
C3    H3    S    
C36   H17   S    
C24   H5    S    
C25   H29   S    
C45   H26   S    
C34   O8    A    
C2    C4    S    
C5    C9    A    
C37   C38   A    
C8    H9    S    
C11   C16   A    
C31   C32   A    
C14   C15   A    
C2    C43   S    
C6    C24   A    
C17   C18   A    
Cu1   O7    S    
C18   H7    S    
C43   H22   S    
C1    O2    A    
C42   C43   S    
Cu1   N2    S    
C27   N1    A    
C44   H2    S    
C28   C29   A    
C17   Cl1   S    
C16   H4    S    
C10   C13   A    
C42   H11   S    
C5    C8    A    
Cu2   O6    S    
C40   H16   S    
C31   C38   A    
C13   C17   A    
C4    H1    S    
C32   C33   A    
C28   C30   A    
C3    H24   S    
C25   C26   A    
C37   C39   A    
C6    C23   S    
C12   O3    A    
C12   O4    A    
C2    C3    S    
C40   N2    A    
C10   C11   A    
C35   H21   S    
C43   H19   S    
C27   C28   A    
C41   H15   S    
Cu2   O8    S    
C35   C36   A    
Cu1   O1    S    
C13   C14   A    
