data_mof_unit_6033.cif
_audit_creation_date              2013-03-05T15:54:37-0500
_audit_creation_method            fapswitch 2.2
_symmetry_space_group_name_H-M    P1
_symmetry_Int_Tables_number       1
_space_group_crystal_system       triclinic
_cell_length_a                    14.038841
_cell_length_b                    14.045677
_cell_length_c                    30.075125
_cell_angle_alpha                 96.991465
_cell_angle_beta                  97.025749
_cell_angle_gamma                 61.346574
_cell_volume                      5151.47286833

loop_
_atom_site_label
_atom_site_type_symbol
_atom_site_description
_atom_site_fract_x
_atom_site_fract_y
_atom_site_fract_z
_atom_type_partial_charge
O1    O     O_R   0.688580 0.499770 0.460490 -0.550903
O2    O     O_R   0.480400 0.672610 0.462660 -0.542857
C1    C     C_R   0.386129 0.710151 0.442009 0.771508
O3    O     O_R   0.315310 0.685650 0.451800 -0.535145
O4    O     O_R   0.346220 0.474990 0.446280 -0.512158
C2    C     C_R   0.398726 0.381217 0.426501 0.804704
O5    O     O_R   0.492270 0.312460 0.441630 -0.547460
O6    O     O_R   0.669740 0.350480 0.455640 -0.512944
C3    C     C_R   0.710667 0.405358 0.442503 0.833761
O7    O     O_R   0.691150 0.501150 0.557860 -0.532698
O8    O     O_R   0.482790 0.673890 0.552920 -0.541471
C4    C     C_R   0.389491 0.711789 0.568187 0.797755
O9    O     O_R   0.317880 0.687030 0.549170 -0.512151
O10   O     O_R   0.348600 0.476260 0.536540 -0.499787
C5    C     C_R   0.401777 0.382513 0.552191 0.856248
O11   O     O_R   0.494840 0.313840 0.539010 -0.556245
O12   O     O_R   0.672120 0.351750 0.545910 -0.536843
C6    C     C_R   0.713555 0.407485 0.568408 0.796392
Cr1   Cr    Cr6+3 0.581000 0.584320 0.508140 0.957742
Cr2   Cr    Cr6+3 0.339110 0.576430 0.496080 1.056307
Cr3   Cr    Cr6+3 0.579910 0.339270 0.495810 0.964417
O13   O     O_3   0.500010 0.500010 0.500010 -0.353420
C7    C     C_1   0.365163 0.365016 0.380787 -0.108854
C8    C     C_R   0.245375 0.440914 0.269406 0.392353
C9    C     C_R   0.238648 0.430667 0.222139 -0.228736
C10   C     C_R   0.391768 0.249059 0.222592 -0.139180
C11   C     C_R   0.398893 0.257106 0.269303 -0.218823
C12   C     C_R   0.326578 0.351941 0.292956 -0.000699
C13   C     C_R   0.312205 0.335828 0.198999 0.072391
C14   C     C_1   0.301234 0.322778 0.150977 -0.028762
C15   C     C_1   0.343803 0.357533 0.341025 0.043504
C16   C     C_1   0.290901 0.303830 0.111168 -0.155594
H1    H     H_    0.176664 0.496799 0.203273 0.164046
H2    H     H_    0.447861 0.174688 0.204832 0.129636
H3    H     H_    0.461822 0.189311 0.287099 0.139372
H4    H     H_    0.878279 0.452738 0.105188 0.158331
H5    H     H_    0.754371 0.526022 0.394128 0.167449
C17   C     C_R   0.768292 0.367944 0.400704 -0.149844
C18   C     C_R   0.800729 0.261854 0.379853 0.226616
C19   C     C_R   0.824555 0.241143 0.334054 0.196812
C20   C     C_R   0.821253 0.324367 0.311116 0.001738
C21   C     C_R   0.803318 0.424308 0.333783 0.253394
C22   C     C_R   0.775866 0.445609 0.378153 -0.281783
C23   C     C_R   0.838666 0.398285 0.160201 0.316160
C24   C     C_R   0.867421 0.388299 0.116342 -0.286386
C25   C     C_R   0.870840 0.212136 0.103168 0.283531
C26   C     C_R   0.845609 0.220910 0.147631 -0.261006
C27   C     C_R   0.834050 0.311000 0.176381 0.043402
C28   C     C_1   0.828638 0.309028 0.223419 0.010114
C29   C     C_1   0.826288 0.312208 0.263288 0.071778
C30   C     C_R   0.889736 0.293325 0.088284 -0.115236
H6    H     H_    0.838570 0.155575 0.160214 0.136078
H7    H     H_    0.163609 0.862112 0.088779 0.143612
H8    H     H_    0.200304 0.812249 0.166431 0.121669
H9    H     H_    0.188751 0.836225 0.308298 0.132325
H10   H     H_    0.201666 0.790188 0.385445 0.164659
C31   C     C_R   0.366808 0.765674 0.400878 -0.059306
C32   C     C_R   0.452902 0.772625 0.384550 -0.165990
C33   C     C_R   0.445265 0.798238 0.340530 -0.138503
C34   C     C_R   0.351310 0.818218 0.312787 0.119474
C35   C     C_R   0.261923 0.820341 0.329754 -0.114079
C36   C     C_R   0.269375 0.794499 0.373754 -0.123060
C37   C     C_R   0.254723 0.833275 0.152394 -0.134381
C38   C     C_R   0.234207 0.861493 0.108136 -0.155360
C39   C     C_R   0.390227 0.894776 0.116651 -0.165322
C40   C     C_R   0.410491 0.866536 0.160960 -0.146081
C41   C     C_R   0.340245 0.839835 0.179175 0.129766
C42   C     C_1   0.347901 0.831005 0.226318 -0.052956
C43   C     C_1   0.350204 0.826191 0.265930 -0.047495
C44   C     C_R   0.298872 0.897276 0.090535 -0.045390
H11   H     H_    0.528943 0.751034 0.404643 0.139631
H12   H     H_    0.477128 0.871314 0.181649 0.112977
H13   H     H_    0.441669 0.921601 0.103950 0.139957
H14   H     H_    0.514588 0.796829 0.327479 0.112922
H15   H     H_    0.121668 0.412685 0.886764 0.178123
C45   C     C_R   0.365705 0.360632 0.592212 -0.242781
C46   C     C_R   0.441055 0.271759 0.616503 -0.276671
C47   C     C_R   0.424693 0.262781 0.660253 0.268656
C48   C     C_R   0.332242 0.344942 0.680319 -0.093214
C49   C     C_R   0.250758 0.428741 0.655272 0.289594
C50   C     C_R   0.266194 0.435910 0.610653 0.273890
C51   C     C_R   0.209619 0.397332 0.831194 0.325705
C52   C     C_R   0.202043 0.378226 0.874651 -0.228485
C53   C     C_R   0.399120 0.268152 0.884693 0.395684
C54   C     C_R   0.406274 0.286859 0.840755 -0.244944
C55   C     C_R   0.312257 0.347745 0.813798 -0.003729
C56   C     C_1   0.320582 0.348821 0.767071 0.039176
C57   C     C_1   0.325278 0.347588 0.727541 0.142621
C58   C     C_R   0.294882 0.308800 0.900761 -0.224085
H16   H     H_    0.516280 0.211613 0.602470 0.176469
H17   H     H_    0.485133 0.251885 0.827125 0.172386
C59   C     C_1   0.763402 0.376109 0.612333 -0.111047
C60   C     C_R   0.736041 0.409853 0.728159 0.177540
C61   C     C_R   0.751656 0.390408 0.774060 0.275607
C62   C     C_R   0.928552 0.235497 0.760829 -0.307558
C63   C     C_R   0.913483 0.251623 0.714830 0.376039
C64   C     C_R   0.816027 0.339250 0.698344 -0.104902
C65   C     C_R   0.849184 0.304110 0.790228 -0.026185
C66   C     C_1   0.874995 0.292141 0.837728 0.043662
C67   C     C_1   0.793018 0.356079 0.650961 0.103295
C68   C     C_1   0.904340 0.282489 0.876988 -0.140920
H18   H     H_    0.004332 0.170817 0.774166 0.187390
C69   C     C_1   0.374760 0.758911 0.613434 -0.119849
C70   C     C_R   0.350682 0.728897 0.724448 -0.170544
C71   C     C_R   0.342053 0.744890 0.771204 0.404124
C72   C     C_R   0.338186 0.920128 0.769200 -0.197395
C73   C     C_R   0.347345 0.902458 0.722886 -0.079342
C74   C     C_R   0.352805 0.807237 0.700428 0.055890
C75   C     C_R   0.334970 0.842665 0.793592 -0.012996
C76   C     C_1   0.315372 0.870982 0.840507 0.076585
C77   C     C_1   0.363835 0.786277 0.652812 0.007435
C78   C     C_1   0.294144 0.901966 0.878946 -0.103032
H19   H     H_    0.356642 0.654629 0.706562 0.178523
H20   H     H_    0.331873 0.995510 0.786018 0.139573
H21   H     H_    0.349410 0.963226 0.704610 0.137832
O14   O     O_R   0.167510 0.972920 0.030390 -0.539095
O15   O     O_R   0.990840 0.178580 0.027590 -0.510728
C79   C     C_R   0.949569 0.273284 0.047967 0.809661
O16   O     O_R   0.972840 0.345510 0.038590 -0.552429
O17   O     O_R   0.181550 0.320660 0.045200 -0.535837
C80   C     C_R   0.275340 0.270137 0.065402 0.818610
O18   O     O_R   0.346150 0.177650 0.050510 -0.537975
O19   O     O_R   0.314200 0.996600 0.036060 -0.540744
C81   C     C_R   0.260739 0.953916 0.048851 0.773847
O20   O     O_R   0.168690 0.969990 0.933130 -0.531281
O21   O     O_R   0.991920 0.175870 0.937430 -0.528625
C82   C     C_R   0.952128 0.269147 0.922124 0.797253
O22   O     O_R   0.974010 0.342590 0.941330 -0.545217
O23   O     O_R   0.182630 0.317940 0.955040 -0.548230
C83   C     C_R   0.276927 0.267565 0.940105 0.855318
O24   O     O_R   0.347320 0.174720 0.953250 -0.507558
O25   O     O_R   0.315290 0.993890 0.945900 -0.535761
C84   C     C_R   0.261444 0.951052 0.922837 0.796893
Cr4   Cr    Cr6+3 0.082090 0.079210 0.982490 0.983481
Cr5   Cr    Cr6+3 0.082460 0.324610 0.994920 0.947530
Cr6   Cr    Cr6+3 0.323630 0.087860 0.996130 0.986150
O26   O     O_3   0.162730 0.163890 0.991180 -0.347672
N1    N     N_R   0.170074 0.541021 0.292264 0.070177
O27   O     O_R   0.195646 0.572800 0.332265 -0.382329
O28   O     O_R   0.078455 0.606021 0.271496 -0.402554
N2    N     N_2   0.882767 0.118884 0.074696 -0.510925
H22   H     H_    0.903415 0.051052 0.091534 0.247684
C85   C     C_3   0.793436 0.139776 0.041020 -0.417566
H23   H     H_    0.717332 0.164263 0.057346 0.190640
H24   H     H_    0.811949 0.064778 0.018784 0.204045
H25   H     H_    0.781086 0.205042 0.019945 0.199585
N3    N     N_2   0.847633 0.139408 0.310000 -0.520713
H26   H     H_    0.798950 0.106208 0.315282 0.255249
C86   C     C_3   0.962004 0.061878 0.309295 -0.523479
H27   H     H_    0.996441 0.034845 0.343472 0.195256
H28   H     H_    0.007441 0.098451 0.296698 0.201430
H29   H     H_    0.972250 0.989752 0.286490 0.204847
N4    N     N_2   0.112859 0.463052 0.804941 -0.493063
H30   H     H_    0.123284 0.502651 0.780740 0.322004
C87   C     C_3   0.046893 0.410912 0.788218 -0.462445
H31   H     H_    0.971420 0.469274 0.769866 0.225751
H32   H     H_    0.023162 0.384422 0.816411 0.182755
H33   H     H_    0.092423 0.339355 0.764816 0.208858
N5    N     N_R   0.152471 0.506325 0.675201 0.139875
O29   O     O_R   0.084228 0.475330 0.684901 -0.365932
O30   O     O_R   0.140767 0.601596 0.690740 -0.312046
N6    N     N_R   0.180705 0.517802 0.584180 0.138864
O31   O     O_R   0.146665 0.490342 0.545012 -0.361446
O32   O     O_R   0.136822 0.619751 0.598875 -0.309513
N7    N     N_R   0.497302 0.208376 0.912181 0.100647
O33   O     O_R   0.585126 0.135524 0.893745 -0.374954
O34   O     O_R   0.503946 0.237637 0.954720 -0.377698
N8    N     N_2   0.505388 0.175161 0.685024 -0.509113
H34   H     H_    0.582748 0.142721 0.674370 0.268583
C88   C     C_3   0.476046 0.091826 0.690582 -0.504267
H35   H     H_    0.466955 0.051435 0.657380 0.199065
H36   H     H_    0.398753 0.127031 0.707297 0.200758
H37   H     H_    0.540897 0.029751 0.711920 0.205264
N9    N     N_2   0.639795 0.501479 0.712423 -0.521910
H38   H     H_    0.601972 0.484926 0.683187 0.257307
C89   C     C_3   0.653616 0.596670 0.710847 -0.518510
H39   H     H_    0.713495 0.580961 0.686295 0.217496
H40   H     H_    0.681860 0.619796 0.744536 0.208159
H41   H     H_    0.574957 0.665812 0.700277 0.196462
N10   N     N_2   0.669602 0.457156 0.804095 -0.511141
H42   H     H_    0.624000 0.537311 0.796665 0.292588
C90   C     C_3   0.602492 0.410372 0.813171 -0.409502
H43   H     H_    0.553173 0.404235 0.782163 0.211396
H44   H     H_    0.546777 0.462784 0.839350 0.244014
H45   H     H_    0.653520 0.328298 0.825795 0.192840
N11   N     N_R   0.998393 0.179740 0.685943 0.107533
O35   O     O_R   0.067978 0.082361 0.697389 -0.366791
O36   O     O_R   0.013762 0.214097 0.650556 -0.357874
N12   N     N_R   0.339251 0.662489 0.794639 0.085355
O37   O     O_R   0.320768 0.586868 0.772319 -0.374669
O38   O     O_R   0.361277 0.657933 0.837861 -0.388587
N13   N     N_2   0.823535 0.492208 0.188962 -0.513068
H46   H     H_    0.863575 0.531786 0.180256 0.259759
C91   C     C_3   0.711326 0.566582 0.197506 -0.497368
H47   H     H_    0.707742 0.634312 0.221744 0.200425
H48   H     H_    0.673977 0.524795 0.212293 0.213234
H49   H     H_    0.663776 0.600980 0.165795 0.186391
N14   N     N_2   0.803471 0.507374 0.310897 -0.524348
H50   H     H_    0.753627 0.585466 0.323547 0.251152
C92   C     C_3   0.910766 0.491048 0.304203 -0.417517
H51   H     H_    0.903063 0.556234 0.284258 0.230503
H52   H     H_    0.958317 0.411556 0.285490 0.197370
H53   H     H_    0.955193 0.494188 0.337115 0.200259
N15   N     N_2   0.808243 0.178144 0.404940 -0.499655
H54   H     H_    0.797266 0.116503 0.387048 0.258197
C93   C     C_3   0.899268 0.138534 0.438409 -0.470627
H55   H     H_    0.895278 0.078029 0.457637 0.201186
H56   H     H_    0.896919 0.206088 0.462452 0.195413
H57   H     H_    0.977319 0.098899 0.422041 0.179910

loop_
_geom_bond_atom_site_label_1
_geom_bond_atom_site_label_2
_geom_bond_distance
_ccdc_geom_bond_type
O20   Cr4   2.033148 S    
O6    C3    1.278566 A    
C85   H25   1.110978 S    
C91   H48   1.110363 S    
C56   C57   1.196309 T    
C7    C15   1.201195 T    
O21   C82   1.273755 A    
C49   C50   1.408105 A    
C87   H32   1.110473 S    
O15   C79   1.276699 A    
C20   C21   1.403100 A    
C55   C56   1.426817 S    
C62   C63   1.403099 A    
C78   C84   1.432365 S    
Cr4   O26   1.976826 S    
C54   H17   1.084161 S    
C62   C65   1.398480 A    
C86   H27   1.109862 S    
C31   C36   1.405965 A    
O4    Cr2   1.914134 S    
C46   C47   1.393595 A    
N10   H42   1.030688 S    
C4    O9    1.266864 A    
O8    Cr1   1.917231 S    
C10   C11   1.390755 A    
O11   Cr3   2.035580 S    
C72   H20   1.084122 S    
N8    H34   1.031882 S    
N3    C86   1.445764 S    
C85   H23   1.111624 S    
O23   C83   1.274628 A    
C86   H28   1.111338 S    
N5    O29   1.300694 A    
C17   C18   1.418674 A    
N9    H38   1.031285 S    
H7    C38   1.083105 S    
C93   H56   1.110420 S    
C32   H11   1.083094 S    
C91   H49   1.111627 S    
O14   Cr4   2.031310 S    
C72   C73   1.395478 A    
C24   C30   1.406969 A    
C39   C44   1.407162 A    
C65   C66   1.440083 S    
C85   H24   1.110343 S    
C60   N9    1.424818 S    
C30   C79   1.481333 S    
C39   H13   1.083001 S    
O10   Cr2   1.917113 S    
C69   C77   1.204541 T    
C50   N6    1.436176 S    
N12   O38   1.300923 A    
C79   O16   1.274926 A    
C48   C57   1.430237 S    
C53   N7    1.438269 S    
C76   C78   1.205054 T    
O23   Cr5   1.919332 S    
C51   N4    1.425914 S    
C10   H2    1.083866 S    
C89   H41   1.106537 S    
C40   H12   1.083734 S    
N3    H26   1.029562 S    
C92   H51   1.110266 S    
C73   C74   1.394727 A    
N5    O30   1.300665 A    
C8    C9    1.407455 A    
N14   H50   1.031966 S    
C38   C44   1.406003 A    
N4    C87   1.446970 S    
C21   C22   1.391672 A    
C19   N3    1.425444 S    
C62   H18   1.084182 S    
C89   H40   1.111049 S    
C40   C41   1.396469 A    
C33   C34   1.395533 A    
N7    O34   1.301506 A    
Cr3   O13   1.976850 S    
C87   H33   1.111689 S    
C35   C36   1.392999 A    
O15   Cr4   1.917912 S    
C70   C71   1.407553 A    
N10   C90   1.447159 S    
O6    Cr3   1.919424 S    
C25   N2    1.424260 S    
N6    O32   1.300703 A    
C9    C13   1.398593 A    
C52   C58   1.408338 A    
C37   C41   1.396498 A    
C46   H16   1.083377 S    
O1    Cr1   2.034728 S    
C41   C42   1.424780 S    
C14   C16   1.200946 T    
C63   N11   1.442458 S    
O19   C81   1.276320 A    
Cr1   O13   1.976772 S    
O1    C3    1.272532 A    
C53   C54   1.402737 A    
C4    C69   1.432106 S    
O24   Cr6   2.034504 S    
O22   Cr5   2.027200 S    
C18   C19   1.419726 A    
C93   H55   1.110401 S    
O25   C84   1.273142 A    
C49   N5    1.432469 S    
C8    N1    1.443649 S    
C32   C33   1.392062 A    
C54   C55   1.398304 A    
C25   C30   1.419369 A    
O16   Cr5   2.036373 S    
C58   C83   1.476123 S    
C70   H19   1.084077 S    
C34   C35   1.397534 A    
C90   H45   1.110984 S    
N13   C91   1.447178 S    
H5    C22   1.083536 S    
C13   C14   1.432287 S    
C71   N12   1.444597 S    
H8    C37   1.083857 S    
C83   O24   1.275741 A    
C26   C27   1.395065 A    
C21   N14   1.425931 S    
O7    Cr1   2.029560 S    
O25   Cr6   1.912441 S    
O18   Cr6   2.029549 S    
C63   C64   1.414297 A    
O12   C6    1.272991 A    
C1    O3    1.272006 A    
H4    C24   1.083370 S    
C60   C61   1.410218 A    
C61   N10   1.426372 S    
C45   C46   1.406236 A    
C90   H43   1.111871 S    
C33   H14   1.083834 S    
C73   H21   1.083194 S    
C80   O18   1.266950 A    
C2    O5    1.268400 A    
N1    O28   1.301604 A    
C1    C31   1.470319 S    
C19   C20   1.407473 A    
C66   C68   1.203599 T    
N15   C93   1.447613 S    
C28   C29   1.198364 T    
C44   C81   1.470124 S    
H10   C36   1.083050 S    
C48   C49   1.405417 A    
C86   H29   1.110232 S    
C53   C58   1.416187 A    
N11   O36   1.301228 A    
C82   O22   1.267898 A    
C60   C64   1.417855 A    
C20   C29   1.434156 S    
C70   C74   1.401351 A    
C64   C67   1.444711 S    
O17   C80   1.272642 A    
C59   C67   1.204523 T    
N6    O31   1.301264 A    
O20   C84   1.268310 A    
Cr5   O26   1.976881 S    
C71   C75   1.417584 A    
C25   C26   1.400987 A    
C89   H39   1.111245 S    
O14   C81   1.271153 A    
O9    Cr2   2.029783 S    
O2    Cr1   1.914183 S    
C47   C48   1.402192 A    
C16   C80   1.425893 S    
C42   C43   1.197064 T    
C12   C15   1.435170 S    
C23   C24   1.397669 A    
C8    C12   1.419385 A    
Cr2   O13   1.977079 S    
Cr6   O26   1.976876 S    
C45   C50   1.416837 A    
N14   C92   1.446974 S    
O8    C4    1.276223 A    
C26   H6    1.084311 S    
C47   N8    1.425709 S    
C74   C77   1.438516 S    
O19   Cr6   1.918094 S    
O17   Cr5   1.912263 S    
C11   H3    1.084110 S    
N13   H46   1.031832 S    
N2    C85   1.446862 S    
O2    C1    1.274649 A    
N4    H30   1.031137 S    
C6    C59   1.431403 S    
C17   C22   1.403663 A    
C51   C55   1.402970 A    
N2    H22   1.031929 S    
C23   N13   1.425495 S    
O5    Cr3   2.028613 S    
C93   H57   1.110482 S    
H15   C52   1.083535 S    
C31   C32   1.407696 A    
O4    C2    1.271773 A    
C88   H36   1.110407 S    
C34   C43   1.424814 S    
O7    C6    1.269128 A    
C92   H53   1.111507 S    
C27   C28   1.430250 S    
C2    C7    1.425562 S    
H9    C35   1.083749 S    
N8    C88   1.447269 S    
C3    C17   1.480287 S    
C68   C82   1.430565 S    
N9    C89   1.447073 S    
C91   H47   1.110481 S    
C39   C40   1.393498 A    
N12   O37   1.301633 A    
C90   H44   1.109477 S    
N1    O27   1.301032 A    
C37   C38   1.391744 A    
O3    Cr2   2.033577 S    
C23   C27   1.404698 A    
N7    O33   1.301469 A    
N15   H54   1.028166 S    
O21   Cr4   1.913699 S    
C10   C13   1.395538 A    
C92   H52   1.110455 S    
C51   C52   1.392236 A    
C88   H35   1.111577 S    
C75   C76   1.441571 S    
C87   H31   1.110581 S    
C61   C65   1.403329 A    
O10   C5    1.278630 A    
C5    C45   1.479223 S    
N11   O35   1.301733 A    
C18   N15   1.428404 S    
C88   H37   1.110371 S    
C5    O11   1.272600 A    
C9    H1    1.083647 S    
C11   C12   1.400037 A    
C72   C75   1.404814 A    
O12   Cr3   1.911283 S    
