data_mof_unit_46444.cif
_audit_creation_date              2012-12-10T16:45:21-0500
_audit_creation_method            fapswitch 2.2
_symmetry_space_group_name_H-M    P1
_symmetry_Int_Tables_number       1
_space_group_crystal_system       triclinic
_cell_length_a                    7.414791
_cell_length_b                    8.696963
_cell_length_c                    15.763263
_cell_angle_alpha                 94.201228
_cell_angle_beta                  74.499645
_cell_angle_gamma                 103.256306
_cell_volume                      953.362004996

loop_
_atom_site_label
_atom_site_type_symbol
_atom_type_description
_atom_site_fract_x
_atom_site_fract_y
_atom_site_fract_z
_atom_type_partial_charge
C1    C     C_R   0.545171 0.800253 0.502611 0.898612
C2    C     C_R   0.454790 0.199743 0.497434 0.869895
C3    C     C_R   0.315125 0.282946 0.060497 -0.128129
C4    C     C_R   0.731654 0.530138 0.910542 -0.194565
C5    C     C_R   0.187800 0.242620 0.008063 -0.207840
C6    C     C_R   0.863605 0.562037 0.960993 -0.192152
C7    C     C_2   0.570604 0.968136 0.503932 -0.352831
C8    C     C_2   0.429287 0.031872 0.496197 -0.349889
C9    C     C_R   0.381708 0.485293 0.666724 0.883697
C10   C     C_R   0.616475 0.502628 0.332672 0.819934
C11   C     C_R   0.304999 0.449944 0.761595 -0.197389
C12   C     C_R   0.688597 0.492437 0.234789 -0.261907
C13   C     C_R   0.094019 0.273675 0.876715 -0.174363
C14   C     C_R   0.939239 0.570555 0.100850 -0.181759
C15   C     C_R   0.131940 0.337701 0.793832 0.311333
C16   C     C_R   0.884721 0.548615 0.191488 0.348407
C17   C     C_R   0.424251 0.509644 0.817825 0.287569
C18   C     C_R   0.555726 0.435738 0.182922 0.301303
C19   C     C_R   0.397852 0.431094 0.897787 -0.026072
C20   C     C_R   0.614116 0.450989 0.089868 0.036207
C21   C     C_R   0.225638 0.316764 0.927922 0.022831
C22   C     C_R   0.805688 0.528313 0.050627 -0.001893
C23   C     C_R   0.537732 0.458640 0.947562 0.060740
C24   C     C_R   0.486207 0.399324 0.034556 0.113058
Cu1   Cu    Cu3+1 0.322120 0.483240 0.490330 0.982037
Cu2   Cu    Cu3+1 0.677880 0.516760 0.509670 0.992615
H1    H     H_    0.059151 0.151484 0.030224 0.146058
H2    H     H_    0.011461 0.616669 0.929903 0.148994
H3    H     H_    0.962000 0.186644 0.900328 0.173526
H4    H     H_    0.088081 0.622040 0.069491 0.173474
H5    H     H_    0.282572 0.211632 0.117945 0.182946
H6    H     H_    0.786594 0.555326 0.841177 0.195394
H7    H     H_    0.706759 0.039634 0.511257 0.185751
H8    H     H_    0.293123 0.960382 0.488884 0.185564
H9    H     H_    0.003638 0.614743 0.569048 0.231464
H10   H     H_    0.996285 0.385064 0.431043 0.224391
N1    N     N_2   0.945180 0.542040 0.524240 -0.209183
N2    N     N_2   0.054820 0.457960 0.475760 -0.206328
O1    O     O_R   0.384450 0.714270 0.493720 -0.584752
O2    O     O_R   0.615550 0.285730 0.506280 -0.594196
O3    O     O_R   0.684880 0.742590 0.510050 -0.570016
O4    O     O_R   0.315120 0.257410 0.489950 -0.582820
O5    O     O_R   0.265540 0.477900 0.617090 -0.605467
O6    O     O_R   0.734460 0.522100 0.382910 -0.585683
O7    O     O_R   0.565970 0.506210 0.633420 -0.532090
O8    O     O_R   0.434030 0.493790 0.366580 -0.537009
O9    O     O_3   0.365202 0.379284 0.223517 -0.722387
H11   H     H_    0.359716 0.293142 0.262718 0.315110
O10   O     O_3   0.555672 0.650191 0.794802 -0.732172
H12   H     H_    0.564140 0.711418 0.849726 0.327002
O11   O     O_3   0.025810 0.590910 0.235697 -0.678400
H13   H     H_    0.012811 0.500618 0.273334 0.354359
O12   O     O_3   0.999755 0.283594 0.745634 -0.702376
H14   H     H_    0.978980 0.376993 0.720386 0.339396

loop_
_geom_bond_atom_site_label_1
_geom_bond_atom_site_label_2
_ccdc_geom_bond_type
Cu1   O4    S    
C10   O8    A    
C19   C23   A    
C23   C24   A    
Cu2   N1    S    
C9    O7    A    
N1    N2    D    
C6    H2    S    
Cu1   N2    S    
C7    H7    S    
O9    H11   S    
C16   O11   S    
C18   O9    S    
Cu1   O5    S    
C11   C15   A    
H10   N2    S    
C13   C21   A    
C7    C8    D    
C8    H8    S    
O12   H14   S    
Cu1   O1    S    
C3    H5    S    
C9    C11   S    
Cu2   O2    S    
C3    C24   A    
C4    H6    S    
C10   C12   S    
C2    O4    A    
C15   O12   S    
C1    O3    A    
C19   C21   A    
C14   H4    S    
C18   C20   A    
C13   C15   A    
C14   C22   A    
C14   C16   A    
C9    O5    A    
C13   H3    S    
Cu2   O6    S    
O11   H13   S    
C6    C22   A    
C2    O2    A    
C5    C21   A    
H9    N1    S    
C4    C6    A    
O10   H12   S    
C17   O10   S    
C4    C23   A    
C1    O1    A    
C11   C17   A    
C1    C7    S    
Cu2   O7    S    
C17   C19   A    
Cu1   Cu2   S    
C5    H1    S    
C10   O6    A    
Cu1   O8    S    
C20   C24   A    
C2    C8    S    
C12   C16   A    
Cu2   O3    S    
C20   C22   A    
C3    C5    A    
C12   C18   A    
