data_mof_unit_18672.cif
_audit_creation_date              2013-03-05T15:49:05-0500
_audit_creation_method            fapswitch 2.2
_symmetry_space_group_name_H-M    P1
_symmetry_Int_Tables_number       1
_space_group_crystal_system       triclinic
_cell_length_a                    10.663256
_cell_length_b                    12.991881
_cell_length_c                    11.834137
_cell_angle_alpha                 99.57632
_cell_angle_beta                  93.203758
_cell_angle_gamma                 92.778394
_cell_volume                      1611.29735477

loop_
_atom_site_label
_atom_site_type_symbol
_atom_site_description
_atom_site_fract_x
_atom_site_fract_y
_atom_site_fract_z
_atom_type_partial_charge
O1    O     O_R   0.506670 0.354460 0.582000 -0.547337
O2    O     O_R   0.493330 0.645540 0.418000 -0.547315
O3    O     O_R   0.490800 0.341410 0.386200 -0.570640
O4    O     O_R   0.509200 0.658590 0.613800 -0.570642
C1    C     C_R   0.498102 0.299438 0.478787 0.845407
C2    C     C_R   0.501896 0.700562 0.521213 0.845408
O5    O     O_R   0.324790 0.506500 0.597880 -0.533017
O6    O     O_R   0.675210 0.493500 0.402120 -0.533027
O7    O     O_R   0.308910 0.493440 0.402080 -0.521541
O8    O     O_R   0.691090 0.506560 0.597920 -0.521543
C3    C     C_R   0.260193 0.501935 0.501005 0.926747
C4    C     C_R   0.739806 0.498065 0.498995 0.926750
Cu1   Cu    Cu3+1 0.509400 0.507730 0.615930 1.105015
Cu2   Cu    Cu3+1 0.490600 0.492270 0.384070 1.105020
C5    C     C_3   0.046463 0.518535 0.609517 0.399405
C6    C     C_3   0.953536 0.481467 0.390483 0.399393
C7    C     C_3   0.959620 0.424532 0.553155 0.265271
C8    C     C_3   0.040379 0.575470 0.446845 0.265269
C9    C     C_3   0.875862 0.496921 0.497297 -0.275836
C10   C     C_3   0.124137 0.503081 0.502703 -0.275834
C11   C     C_3   0.962326 0.592842 0.553461 -0.329726
C12   C     C_3   0.037673 0.407160 0.446539 -0.329733
H1    H     H_    0.930955 0.669116 0.596084 0.238374
H2    H     H_    0.069043 0.330885 0.403916 0.238372
C13   C     C_R   0.502889 0.814119 0.533309 -0.054610
C14   C     C_R   0.497107 0.185881 0.466691 -0.054622
C15   C     C_R   0.485397 0.015143 0.346532 -0.127080
C16   C     C_R   0.514596 0.984857 0.653469 -0.127050
C17   C     C_R   0.486645 0.123339 0.357355 -0.128782
C18   C     C_R   0.513351 0.876661 0.642645 -0.128802
C19   C     C_R   0.506624 0.139423 0.565226 -0.138222
C20   C     C_R   0.493368 0.860577 0.434775 -0.138233
C21   C     C_R   0.505360 0.031307 0.555100 0.132769
C22   C     C_R   0.494633 0.968693 0.444901 0.132770
H3    H     H_    0.484890 0.812905 0.350005 0.197426
H4    H     H_    0.515101 0.187095 0.649996 0.197434
H5    H     H_    0.520612 0.842156 0.719820 0.204477
H6    H     H_    0.479386 0.157844 0.280181 0.204490
H7    H     H_    0.477239 0.967936 0.261553 0.179397
H8    H     H_    0.522755 0.032064 0.738448 0.179435
N1    N     N_R   0.523540 0.519360 0.790140 -0.274712
N2    N     N_R   0.476460 0.480640 0.209860 -0.274707
C23   C     C_R   0.376363 0.401158 0.025813 0.239099
C24   C     C_R   0.623716 0.598771 0.974179 0.239001
C25   C     C_R   0.390108 0.410492 0.145922 0.432292
C26   C     C_R   0.609920 0.589483 0.854076 0.432288
C27   C     C_R   0.553144 0.543422 0.156502 0.539069
C28   C     C_R   0.446871 0.456563 0.843494 0.539070
C29   C     C_R   0.545281 0.536241 0.033395 -0.253556
C30   C     C_R   0.454766 0.463713 0.966598 -0.253543
N3    N     N_R   0.918799 0.339810 0.611890 0.177840
O9    O     O_R   0.002328 0.286678 0.657489 -0.220648
O10   O     O_R   0.800005 0.312911 0.613717 -0.348961
N4    N     N_R   0.081201 0.660191 0.388110 0.177839
O11   O     O_R   0.997671 0.713325 0.342511 -0.220642
O12   O     O_R   0.199994 0.687090 0.386282 -0.348958
Cl1   Cl    Cl    0.102562 0.544537 0.756752 -0.385200
Cl2   Cl    Cl    0.897430 0.455468 0.243250 -0.385161
Cl3   Cl    Cl    0.339941 0.365973 0.754830 -0.445660
Cl4   Cl    Cl    0.660010 0.634068 0.245167 -0.445774
Cl5   Cl    Cl    0.708771 0.671269 0.787809 -0.486835
Cl6   Cl    Cl    0.291257 0.328707 0.212191 -0.486836
N5    N     N_R   0.280093 0.327931 0.967229 0.202056
O13   O     O_R   0.165242 0.356525 0.957486 -0.174106
O14   O     O_R   0.301512 0.229051 0.945354 -0.268285
N6    N     N_R   0.720139 0.671858 0.032746 0.202089
O15   O     O_R   0.834874 0.643032 0.042612 -0.174102
O16   O     O_R   0.699015 0.770800 0.054498 -0.267997

loop_
_geom_bond_atom_site_label_1
_geom_bond_atom_site_label_2
_geom_bond_distance
_ccdc_geom_bond_type
C17   H6    1.082930 S    
C24   C29   1.428154 A    
N6    O16   1.301471 A    
O7    Cu2   1.961410 S    
N5    O14   1.301490 A    
C23   C30   1.428161 A    
C13   C18   1.404315 A    
Cu1   N1    2.038447 S    
C15   C17   1.389453 A    
C8    C11   1.541556 S    
C5    Cl1   1.782131 S    
C24   N6    1.430346 S    
C7    C12   1.541555 S    
O5    Cu1   1.967196 S    
O6    C4    1.295160 A    
C6    C12   1.551605 S    
C7    N3    1.458114 S    
C13   C20   1.400428 A    
C16   C18   1.389455 A    
C21   C22   1.413094 A    
C23   N5    1.430330 S    
C14   C19   1.400430 A    
C27   C29   1.441717 A    
C6    Cl2   1.782131 S    
Cu1   Cu2   2.713035 S    
N5    O13   1.301436 A    
O5    C3    1.295163 A    
C23   C25   1.405049 A    
O7    C3    1.297339 A    
O2    C2    1.304582 A    
O3    Cu2   1.964408 S    
O8    C4    1.297338 A    
C28   Cl3   1.763952 S    
C6    C9    1.540405 S    
O1    C1    1.304580 A    
C4    C9    1.452823 S    
C28   C30   1.441722 A    
C9    C11   1.545750 S    
N1    C28   1.377346 A    
C24   C26   1.405048 A    
C16   C21   1.398474 A    
N6    O15   1.301423 A    
C8    C10   1.530166 S    
N2    C27   1.377342 A    
C11   H1    1.110402 S    
C15   C22   1.398474 A    
C5    C10   1.540408 S    
O2    Cu2   1.963226 S    
C12   H2    1.110401 S    
C3    C10   1.452828 S    
C2    C13   1.457812 S    
O1    Cu1   1.963226 S    
C19   C21   1.389075 A    
C16   H8    1.083930 S    
C26   Cl5   1.765259 S    
O4    C2    1.302814 A    
N3    O9    1.300320 A    
C20   H3    1.084366 S    
O3    C1    1.302814 A    
C25   Cl6   1.765267 S    
C5    C11   1.551605 S    
C14   C17   1.404314 A    
C6    C8    1.531082 S    
C29   C30   1.422345 A    
C15   H7    1.083930 S    
O4    Cu1   1.964407 S    
C5    C7    1.531080 S    
C8    N4    1.458097 S    
N4    O11   1.300344 A    
N1    C26   1.364655 A    
O6    Cu2   1.967198 S    
C7    C9    1.530161 S    
C27   Cl4   1.763950 S    
C19   H4    1.084367 S    
Cu2   N2    2.038448 S    
O8    Cu1   1.961411 S    
C1    C14   1.457810 S    
C18   H5    1.082930 S    
C10   C12   1.545754 S    
N4    O12   1.299943 A    
N3    O10   1.299943 A    
N2    C25   1.364651 A    
C20   C22   1.389073 A    
