data_mof_unit_7253.cif
_audit_creation_date              2012-12-10T17:58:19-0500
_audit_creation_method            fapswitch 2.2
_symmetry_space_group_name_H-M    P1
_symmetry_Int_Tables_number       1
_space_group_crystal_system       triclinic
_cell_length_a                    9.566098
_cell_length_b                    10.790841
_cell_length_c                    15.287515
_cell_angle_alpha                 88.361037
_cell_angle_beta                  74.763061
_cell_angle_gamma                 89.13473
_cell_volume                      1521.92918502

loop_
_atom_site_label
_atom_site_type_symbol
_atom_type_description
_atom_site_fract_x
_atom_site_fract_y
_atom_site_fract_z
_atom_type_partial_charge
C1    C     C_R   0.999548 0.262356 0.502988 0.802851
C2    C     C_R   0.000452 0.737633 0.497028 0.791567
C3    C     C_R   0.551381 0.642321 0.077948 0.427659
C4    C     C_R   0.407621 0.529023 0.893265 0.425391
C5    C     C_R   0.696163 0.660824 0.032554 -0.141349
C6    C     C_R   0.263447 0.508186 0.939572 -0.146000
C7    C     C_R   0.881547 0.060164 0.559071 0.419611
C8    C     C_R   0.118467 0.939782 0.440948 0.419262
C9    C     C_R   0.881830 0.932462 0.551417 -0.158899
C10   C     C_R   0.118216 0.067482 0.448638 -0.161552
C11   C     C_R   0.999806 0.871705 0.494468 -0.212177
C12   C     C_R   0.000211 0.128256 0.505561 -0.218889
C13   C     C_R   0.557564 0.411455 0.547322 0.003397
C14   C     C_R   0.442358 0.588557 0.452723 0.013119
C15   C     C_R   0.409472 0.411154 0.548529 0.485716
C16   C     C_R   0.590297 0.589110 0.451742 0.486701
C17   C     C_R   0.918806 0.502843 0.672848 0.851559
C18   C     C_R   0.081807 0.499707 0.326603 0.829895
C19   C     C_R   0.874163 0.523891 0.771648 -0.193672
C20   C     C_R   0.127039 0.502774 0.225310 -0.202300
C21   C     C_R   0.900101 0.634654 0.902527 -0.196553
C22   C     C_R   0.073208 0.488608 0.078747 -0.186162
C23   C     C_R   0.960189 0.593071 0.815131 0.319101
C24   C     C_R   0.025196 0.493627 0.172935 0.337040
C25   C     C_R   0.732597 0.490742 0.820091 0.317468
C26   C     C_R   0.276315 0.511241 0.179342 0.320056
C27   C     C_R   0.664878 0.550546 0.902310 -0.037031
C28   C     C_R   0.319261 0.533326 0.084055 -0.047498
C29   C     C_R   0.754128 0.614367 0.946260 -0.049845
C30   C     C_R   0.218683 0.508873 0.034007 -0.050486
C31   C     C_R   0.512449 0.547818 0.942948 -0.085830
C32   C     C_R   0.461212 0.572712 0.036771 -0.089376
Cu1   Cu    Cu3+1 0.140660 0.500020 0.500000 0.997915
Cu2   Cu    Cu3+1 0.859340 0.499980 0.500000 0.991021
H1    H     H_    0.599363 0.341216 0.585859 0.206540
H2    H     H_    0.400508 0.658837 0.414238 0.203725
N1    N     N_R   0.352080 0.500030 0.499980 -0.263275
N2    N     N_R   0.647920 0.499970 0.500020 -0.265221
O1    O     O_R   0.118740 0.319660 0.500000 -0.572923
O2    O     O_R   0.881260 0.680340 0.500000 -0.584988
O3    O     O_R   0.881170 0.319630 0.500010 -0.566977
O4    O     O_R   0.118830 0.680370 0.499990 -0.565596
O5    O     O_R   0.055570 0.500030 0.629830 -0.616811
O6    O     O_R   0.944430 0.499970 0.370170 -0.598244
O7    O     O_R   0.818000 0.500000 0.629840 -0.532466
O8    O     O_R   0.182000 0.500000 0.370160 -0.513486
H3    H     H_    0.763346 0.713719 0.064849 0.169860
H4    H     H_    0.185443 0.492371 0.901150 0.170906
O9    O     O_3   0.378264 0.489085 0.227557 -0.667338
H5    H     H_    0.465782 0.451736 0.186731 0.347548
O10   O     O_3   0.666998 0.395831 0.787178 -0.694085
H6    H     H_    0.598189 0.353800 0.839046 0.346567
O11   O     O_3   0.878981 0.482994 0.211486 -0.687873
H7    H     H_    0.848654 0.560529 0.244533 0.338032
O12   O     O_3   0.101056 0.625618 0.773727 -0.686514
H8    H     H_    0.152892 0.549303 0.748336 0.354128
H9    H     H_    0.967563 0.686155 0.935461 0.173877
H10   H     H_    0.994742 0.473978 0.040253 0.170390
O13   O     O_3   0.499814 0.703694 0.158156 -0.673815
H11   H     H_    0.396584 0.725159 0.164715 0.335901
O14   O     O_3   0.437614 0.542784 0.800205 -0.687566
H12   H     H_    0.517483 0.602985 0.779751 0.345568
O15   O     O_3   0.766114 0.113366 0.620987 -0.695203
H13   H     H_    0.796339 0.193881 0.639167 0.336522
O16   O     O_3   0.233853 0.886574 0.378987 -0.696246
H14   H     H_    0.203579 0.806100 0.360758 0.317487
H15   H     H_    0.792018 0.879824 0.593361 0.191042
H16   H     H_    0.208053 0.120110 0.406718 0.196596
O17   O     O_3   0.327558 0.318317 0.599777 -0.708310
H17   H     H_    0.226751 0.347078 0.618799 0.363855
O18   O     O_3   0.671669 0.682638 0.401060 -0.711057
H18   H     H_    0.773124 0.655622 0.383908 0.357748

loop_
_geom_bond_atom_site_label_1
_geom_bond_atom_site_label_2
_ccdc_geom_bond_type
C22   H10   S    
C19   C23   A    
O12   H8    S    
C9    H15   S    
C2    O2    A    
C21   H9    S    
C8    O16   S    
C18   O6    A    
C27   C29   A    
C5    H3    S    
C26   C28   A    
C31   C32   A    
C28   C32   A    
O16   H14   S    
C10   H16   S    
O14   H12   S    
C17   O5    A    
Cu1   Cu2   S    
O18   H18   S    
Cu2   O3    S    
Cu2   O7    S    
O11   H7    S    
C14   N1    A    
C23   O12   S    
Cu1   O8    S    
C9    C11   A    
C7    O15   S    
C13   N2    A    
Cu1   O1    S    
C16   O18   S    
C20   C26   A    
C2    O4    A    
C8    C11   A    
C15   O17   S    
Cu1   O4    S    
C10   C12   A    
C22   C24   A    
C1    O3    A    
C17   C19   S    
C17   O7    A    
Cu1   N1    S    
C13   H1    S    
C5    C29   A    
O17   H17   S    
C13   C15   A    
C21   C23   A    
C14   H2    S    
C3    C32   A    
C19   C25   A    
C14   C16   A    
C7    C12   A    
C4    C31   A    
C25   C27   A    
C25   O10   S    
C1    O1    A    
C27   C31   A    
O15   H13   S    
Cu1   O5    S    
C18   O8    A    
O13   H11   S    
Cu2   O6    S    
C18   C20   S    
C4    C6    A    
O9    H5    S    
C26   O9    S    
C6    H4    S    
C7    C9    A    
C20   C24   A    
C15   N1    A    
C2    C11   S    
C22   C30   A    
C6    C30   A    
C24   O11   S    
Cu2   N2    S    
C21   C29   A    
C4    O14   S    
C8    C10   A    
C1    C12   S    
Cu2   O2    S    
O10   H6    S    
C16   N2    A    
C28   C30   A    
C3    C5    A    
C3    O13   S    
