data_mof_unit_22391.cif
_audit_creation_date              2012-12-11T18:09:21-0500
_audit_creation_method            fapswitch 2.2
_symmetry_space_group_name_H-M    P1
_symmetry_Int_Tables_number       1
_space_group_crystal_system       triclinic
_cell_length_a                    8.276464
_cell_length_b                    12.771655
_cell_length_c                    19.035753
_cell_angle_alpha                 99.529415
_cell_angle_beta                  91.59432
_cell_angle_gamma                 98.181897
_cell_volume                      1961.4699516

loop_
_atom_site_label
_atom_site_type_symbol
_atom_type_description
_atom_site_fract_x
_atom_site_fract_y
_atom_site_fract_z
_atom_type_partial_charge
Ba1   Ba    Ba6+2 0.853180 0.547790 0.465300 1.650843
Ba2   Ba    Ba6+2 0.336650 0.452300 0.534710 1.658959
C1    C     C_3   0.685505 0.881556 0.205127 -0.355057
C2    C     C_R   0.022735 0.542146 0.728004 0.052181
C3    C     C_R   0.851767 0.402525 0.806596 -0.186645
C4    C     C_3   0.102772 0.744320 0.265354 0.351191
C5    C     C_R   0.781342 0.423729 0.744016 0.013741
C6    C     C_R   0.344945 0.574124 0.184137 -0.162439
C7    C     C_R   0.407755 0.571922 0.252641 -0.001252
C8    C     C_R   0.133878 0.429905 0.198102 -0.125072
C9    C     C_R   0.169598 0.453689 0.272625 0.050216
C10   C     C_R   0.986993 0.472470 0.842932 -0.003394
C11   C     C_R   0.872814 0.484776 0.702055 -0.242302
C12   C     C_3   0.637475 0.807626 0.258604 0.293149
C13   C     C_R   0.212657 0.496795 0.151853 -0.012245
C14   C     C_R   0.311724 0.521089 0.298702 -0.246276
C15   C     C_R   0.764291 0.396049 0.959855 -0.094293
C16   C     C_3   0.069918 0.755386 0.187023 -0.198263
C17   C     C_R   0.664738 0.360781 0.011513 -0.081533
C18   C     C_R   0.713991 0.393039 0.082483 -0.052428
C19   C     C_R   0.867490 0.451767 0.100468 -0.086022
C20   C     C_R   0.987107 0.458967 0.049518 0.019290
C21   C     C_R   0.931495 0.440263 0.975376 0.044383
C22   C     C_R   0.155766 0.488207 0.072352 0.004214
C23   C     C_3   0.458523 0.295153 0.318659 0.269272
C24   C     C_R   0.267229 0.505729 0.017818 0.055295
C25   C     C_R   0.210871 0.490613 0.944122 0.001455
C26   C     C_R   0.042045 0.466295 0.921318 -0.012703
C27   C     C_R   0.437650 0.536014 0.033316 -0.060416
C28   C     C_3   0.243819 0.788884 0.621332 0.302264
C29   C     C_R   0.541926 0.566994 0.982331 -0.061653
C30   C     C_R   0.490401 0.539109 0.911316 0.006215
C31   C     C_R   0.329539 0.492113 0.892926 -0.069166
C32   C     C_R   0.760591 0.179780 0.522051 -0.287688
C33   C     C_R   0.422968 0.807802 0.472162 -0.312521
C34   C     C_3   0.488706 0.285268 0.239123 -0.304830
C35   C     C_R   0.403273 0.978004 0.436003 0.127155
C36   C     C_R   0.333894 0.872805 0.439209 -0.019998
C37   C     C_R   0.573560 0.848852 0.509058 0.056333
C38   C     C_R   0.637689 0.959996 0.513314 -0.078430
C39   C     C_R   0.552073 0.025488 0.475696 -0.053232
C40   C     C_3   0.212634 0.904080 0.626570 -0.318006
C41   C     C_R   0.617107 0.136595 0.481048 0.052021
C42   C     C_R   0.850404 0.115683 0.554183 -0.012011
C43   C     C_R   0.786619 0.007230 0.552280 -0.081942
C44   C     C_3   0.952934 0.210364 0.377835 0.305188
C45   C     C_3   0.048815 0.214650 0.727576 0.317820
C46   C     C_3   0.896906 0.090555 0.354828 -0.382522
C47   C     C_3   0.720699 0.707294 0.680957 0.274180
C48   C     C_3   0.734405 0.743028 0.762024 -0.204406
C49   C     C_2   0.579432 0.779360 0.790008 0.907828
C50   C     C_2   0.384468 0.189690 0.194749 0.909512
C51   C     C_2   0.188650 0.838703 0.160713 0.860815
C52   C     C_3   0.637222 0.125998 0.860690 -0.203515
C53   C     C_3   0.379161 0.997403 0.314053 -0.134323
C54   C     C_3   0.084157 0.183714 0.799706 -0.367983
C55   C     C_3   0.516808 0.182464 0.699835 0.353373
C56   C     C_3   0.520038 0.086182 0.737265 -0.002936
C57   C     C_R   0.070132 0.547003 0.801439 -0.136836
H1    H     H_    0.664250 0.852950 0.313718 0.033985
H2    H     H_    0.837196 0.681373 0.663475 -0.007835
H3    H     H_    0.619590 0.639059 0.667298 0.063360
H4    H     H_    0.812657 0.923275 0.217686 0.150186
H5    H     H_    0.837527 0.809941 0.776438 0.056652
H6    H     H_    0.761722 0.675117 0.787835 0.005303
H7    H     H_    0.504486 0.780590 0.249840 -0.022304
H8    H     H_    0.602661 0.942849 0.206335 0.099225
H9    H     H_    0.327257 0.294980 0.327298 0.021855
H10   H     H_    0.528036 0.373241 0.344723 0.071792
H11   H     H_    0.460057 0.358042 0.219922 0.022538
H12   H     H_    0.242432 0.947813 0.681595 0.134449
H13   H     H_    0.620522 0.281471 0.231634 0.087285
H14   H     H_    0.676479 0.833990 0.150345 0.140984
H15   H     H_    0.109544 0.298417 0.728537 0.064655
H16   H     H_    0.914639 0.209744 0.718974 -0.018832
H17   H     H_    0.217752 0.195157 0.812105 0.142442
H18   H     H_    0.028382 0.234800 0.842427 0.078624
H19   H     H_    0.033295 0.098334 0.799274 0.119562
H20   H     H_    0.638985 0.199717 0.677452 -0.080432
H21   H     H_    0.424904 0.159955 0.654209 0.066311
H22   H     H_    0.524943 0.014690 0.695392 0.064649
H23   H     H_    0.286795 0.945468 0.588655 0.058748
H24   H     H_    0.020834 0.672280 0.275018 0.092798
H25   H     H_    0.405770 0.071222 0.765908 0.109924
H26   H     H_    0.174302 0.604871 0.824104 0.097378
H27   H     H_    0.801581 0.329487 0.824284 0.087110
H28   H     H_    0.403039 0.635636 0.157011 0.121087
H29   H     H_    0.039619 0.363301 0.177773 0.103403
H30   H     H_    0.824198 0.489960 0.649564 0.056731
H31   H     H_    0.353777 0.528168 0.353853 0.060660
H32   H     H_    0.698223 0.394302 0.911010 0.063040
H33   H     H_    0.540135 0.322537 0.997071 0.077632
H34   H     H_    0.081501 0.904767 0.614226 0.131072
H35   H     H_    0.628618 0.379910 0.123112 0.085269
H36   H     H_    0.230712 0.731503 0.273316 -0.116438
H37   H     H_    0.892698 0.490831 0.154696 0.116302
H38   H     H_    0.498567 0.529609 0.082320 0.066078
H39   H     H_    0.669430 0.597517 0.997000 0.079989
H40   H     H_    0.579154 0.547799 0.871377 0.121261
H41   H     H_    0.295569 0.454890 0.838847 0.125310
H42   H     H_    0.854872 0.960998 0.581018 0.097522
H43   H     H_    0.808481 0.264052 0.525830 0.057215
H44   H     H_    0.371650 0.724751 0.471075 0.072512
H45   H     H_    0.848980 0.248786 0.399277 0.004437
H46   H     H_    0.073222 0.676921 0.152601 0.019272
H47   H     H_    0.946075 0.774050 0.178066 0.113717
H48   H     H_    0.376938 0.787637 0.623506 0.029555
H49   H     H_    0.187462 0.744069 0.569410 0.040419
H50   H     H_    0.395858 0.761375 0.856388 0.304640
H51   H     H_    0.577711 0.119274 0.159018 0.263786
H52   H     H_    0.385849 0.870041 0.103207 0.333905
H53   H     H_    0.740748 0.045398 0.772775 0.222125
H54   H     H_    0.756181 0.138321 0.891663 0.105662
H55   H     H_    0.556404 0.058235 0.877178 0.138640
H56   H     H_    0.053320 0.222926 0.419461 0.063065
H57   H     H_    0.581320 0.200413 0.872714 0.123235
H58   H     H_    0.208336 0.031239 0.389825 0.207461
H59   H     H_    0.314986 0.037943 0.277434 0.193009
H60   H     H_    0.350585 0.910595 0.297224 0.065035
H61   H     H_    0.512020 0.019047 0.311079 0.091689
H62   H     H_    0.782322 0.077902 0.321239 0.105029
H63   H     H_    0.876097 0.050585 0.401814 0.083957
H64   H     H_    0.990088 0.053140 0.322743 0.165024
N1    N     N_2   0.664224 0.102289 0.785314 -0.425378
N2    N     N_2   0.331559 0.029819 0.385754 -0.405539
O1    O     O_2   0.875110 0.423180 0.326290 -0.457754
O2    O     O_2   0.182888 0.122434 0.542951 -0.478689
O3    O     O_3   0.109911 0.143628 0.674169 -0.608677
O4    O     O_3   0.123410 0.433040 0.414950 -0.505073
O5    O     O_3   0.577950 0.634370 0.536140 -0.499598
O6    O     O_2   0.341900 0.231310 0.465740 -0.450157
O7    O     O_3   0.510614 0.208620 0.344878 -0.650009
O8    O     O_2   0.470416 0.479200 0.751132 -0.494033
O9    O     O_3   0.472651 0.269724 0.747507 -0.611962
O10   O     O_3   0.661010 0.625070 0.369680 -0.460930
O11   O     O_2   0.713919 0.517464 0.247243 -0.504751
O12   O     O_3   0.693113 0.794239 0.648444 -0.629973
O13   O     O_3   0.007407 0.251999 0.318072 -0.600092
O14   O     O_3   0.728265 0.721952 0.247442 -0.592461
O15   O     O_2   0.847800 0.768730 0.534310 -0.465128
O16   O     O_3   0.082250 0.684470 0.405440 -0.488289
O17   O     O_2   0.996536 0.873451 0.446483 -0.473740
O18   O     O_2   0.527035 0.853962 0.768996 -0.619233
O19   O     O_R   0.497071 0.729026 0.841092 -0.766704
O20   O     O_2   0.235944 0.184279 0.193093 -0.550404
O21   O     O_R   0.454200 0.107796 0.153880 -0.718023
O22   O     O_2   0.164442 0.932164 0.170124 -0.559529
O23   O     O_3   0.072359 0.834997 0.313029 -0.598812
O24   O     O_R   0.317890 0.807437 0.120287 -0.779145
O25   O     O_2   0.314600 0.576860 0.673750 -0.455075
O26   O     O_3   0.066300 0.567050 0.585060 -0.498119
O27   O     O_3   0.528700 0.375020 0.630330 -0.466216
O28   O     O_3   0.177766 0.748245 0.679936 -0.618847
O29   O     O_3   0.611760 0.365720 0.463870 -0.486588
O30   O     O_3   0.107460 0.315620 0.594570 -0.483129
P1    P     P_3+3 0.042930 0.392230 0.337410 0.990736
P2    P     P_3+3 0.672230 0.754900 0.555730 0.972708
P3    P     P_3+3 0.123022 0.819150 0.400871 0.957673
P4    P     P_3+3 0.146790 0.607860 0.662600 0.992525
P5    P     P_3+3 0.059476 0.175304 0.591128 0.934542
P6    P     P_3+3 0.624893 0.611309 0.278396 0.934686
P7    P     P_3+3 0.520572 0.232874 0.438289 0.966712
P8    P     P_3+3 0.563719 0.387435 0.720723 0.935201

loop_
_geom_bond_atom_site_label_1
_geom_bond_atom_site_label_2
_ccdc_geom_bond_type
Ba2   O25   S    
C14   H31   S    
C50   O20   D    
C54   H17   S    
C47   O12   S    
C28   H48   S    
C40   H34   S    
C48   H5    S    
C55   H20   S    
C17   C18   A    
C40   H23   S    
C46   H64   S    
C16   H47   S    
C45   O3    S    
C53   H60   S    
C49   O19   S    
C25   C31   A    
C8    H29   S    
C24   C25   A    
Ba2   O30   S    
C44   H56   S    
C10   C26   S    
O5    P2    S    
C7    C14   A    
C22   C24   A    
H53   N1    S    
Ba1   O4    S    
C8    C13   A    
C46   H63   S    
C2    P4    S    
C52   H54   S    
H52   O24   S    
C51   O22   D    
Ba2   O4    S    
C54   H19   S    
O9    P8    S    
Ba1   Ba2   S    
C29   H39   S    
C2    C11   A    
C18   H35   S    
C17   H33   S    
C16   C51   S    
C15   C17   A    
C10   C57   A    
C28   O28   S    
C53   N2    S    
C6    C7    A    
C52   H57   S    
C15   H32   S    
C47   H3    S    
C27   H38   S    
C39   C41   A    
C34   C50   S    
C44   O13   S    
C28   H49   S    
Ba2   O29   S    
C19   C20   A    
C37   P2    S    
C51   O24   S    
O10   P6    S    
C55   H21   S    
C23   H9    S    
O17   P3    D    
O8    P8    D    
C34   H11   S    
Ba2   O6    S    
C35   N2    S    
C53   H61   S    
Ba2   O27   S    
C38   C43   A    
C4    C16   S    
C44   C46   S    
C47   H2    S    
O25   P4    D    
O14   P6    S    
C33   C36   A    
C32   C42   A    
Ba1   O1    S    
C36   P3    S    
C3    C10   A    
Ba1   O5    S    
C56   H22   S    
C37   C38   A    
C3    C5    A    
Ba2   P4    S    
O23   P3    S    
O6    P7    D    
C5    P8    S    
C54   H18   S    
O26   P4    S    
O28   P4    S    
Ba1   P1    S    
C33   C37   A    
C57   H26   S    
C35   C36   A    
C56   H25   S    
O15   P2    D    
C4    O23   S    
C9    C14   A    
C29   C30   A    
C15   C21   A    
C48   C49   S    
C12   H7    S    
C32   H43   S    
C21   C26   A    
C12   O14   S    
C7    P6    S    
Ba1   O15   S    
C1    C12   S    
C43   H42   S    
C9    P1    S    
C3    H27   S    
C38   C39   A    
C47   C48   S    
C6    C13   A    
C49   O18   D    
C42   P5    S    
C20   C22   A    
C55   O9    S    
C23   H10   S    
C46   H62   S    
C42   C43   A    
O3    P5    S    
O13   P1    S    
Ba2   O26   S    
C52   N1    S    
C13   C22   S    
C50   O21   S    
C4    H24   S    
C11   H30   S    
O30   P5    S    
C56   N1    S    
O29   P7    S    
C1    H8    S    
C32   C41   A    
C45   H15   S    
O4    P1    S    
C19   H37   S    
C1    H4    S    
C12   H1    S    
C33   H44   S    
C30   H40   S    
O12   P2    S    
C31   H41   S    
C30   C31   A    
C6    H28   S    
Ba1   P2    S    
C16   H46   S    
C45   H16   S    
C27   C29   A    
Ba1   O10   S    
C55   C56   S    
C44   H45   S    
C52   H55   S    
C2    C57   A    
C40   H12   S    
Ba2   O5    S    
Ba1   O26   S    
H50   O19   S    
O11   P6    D    
C35   C39   A    
Ba1   O29   S    
C1    H14   S    
C48   H6    S    
O7    P7    S    
O27   P8    S    
Ba1   O16   S    
C8    C9    A    
C23   C34   S    
C41   P7    S    
O16   P3    S    
C5    C11   A    
C18   C19   A    
C24   C27   A    
C4    H36   S    
C25   C26   A    
C20   C21   A    
C28   C40   S    
H51   O21   S    
C23   O7    S    
H58   N2    S    
O2    P5    D    
C34   H13   S    
C45   C54   S    
C53   H59   S    
O1    P1    D    
