data_mof_unit_43134.cif
_audit_creation_date              2012-12-10T18:15:18-0500
_audit_creation_method            fapswitch 2.2
_symmetry_space_group_name_H-M    P1
_symmetry_Int_Tables_number       1
_space_group_crystal_system       triclinic
_cell_length_a                    12.586165
_cell_length_b                    13.109808
_cell_length_c                    23.416446
_cell_angle_alpha                 90.505533
_cell_angle_beta                  102.878201
_cell_angle_gamma                 81.865548
_cell_volume                      3727.64698367

loop_
_atom_site_label
_atom_site_type_symbol
_atom_type_description
_atom_site_fract_x
_atom_site_fract_y
_atom_site_fract_z
_atom_type_partial_charge
C1    C     C_R   0.437633 0.691857 0.494005 0.879331
C2    C     C_R   0.515573 0.695500 0.033571 -0.029744
C3    C     C_R   0.525017 0.692624 0.975098 -0.125041
C4    C     C_R   0.519783 0.601733 0.943541 -0.062521
C5    C     C_R   0.505730 0.510933 0.970620 -0.019562
C6    C     C_R   0.497784 0.419789 0.938366 -0.034948
C7    C     C_R   0.483903 0.329185 0.965373 -0.148733
C8    C     C_R   0.477975 0.328708 0.023868 -0.148675
C9    C     C_R   0.524257 0.600316 0.884410 0.490761
C10   C     C_R   0.502000 0.422212 0.879308 0.551088
C11   C     C_R   0.602156 0.474036 0.771910 0.567824
C12   C     C_R   0.499802 0.503518 0.610216 0.942548
C13   C     C_R   0.596296 0.470445 0.712194 -0.327807
C14   C     C_R   0.500153 0.512063 0.672377 -0.164408
C15   C     C_R   0.406854 0.559104 0.692337 -0.077577
C16   C     C_R   0.410489 0.558075 0.753129 -0.100747
C17   C     C_R   0.508588 0.514407 0.792228 0.121236
C18   C     C_R   0.594175 0.503069 0.248799 -0.090700
C19   C     C_R   0.595612 0.501801 0.308184 -0.216477
C20   C     C_R   0.497665 0.498449 0.326973 -0.039075
C21   C     C_R   0.398587 0.495211 0.285588 -0.219642
C22   C     C_R   0.397387 0.496906 0.226124 -0.108078
C23   C     C_R   0.561684 0.308743 0.507382 0.857313
C24   C     C_R   0.495047 0.501414 0.207823 0.321807
C25   C     C_R   0.697107 0.066403 0.590092 -0.169623
C26   C     C_R   0.599581 0.200144 0.519996 -0.053963
C27   C     C_R   0.297531 0.841167 0.446658 -0.001184
C28   C     C_R   0.278492 0.944701 0.429555 -0.214844
C29   C     C_R   0.354524 0.009695 0.452094 -0.178725
C30   C     C_R   0.450791 0.973740 0.494936 0.085072
C31   C     C_R   0.464520 0.872141 0.517359 0.075434
C32   C     C_R   0.532986 0.036090 0.517037 0.091326
C33   C     C_R   0.619099 0.001960 0.566229 0.169596
C34   C     C_R   0.499207 0.499374 0.389470 0.849654
C35   C     C_R   0.623644 0.905810 0.592126 -0.247315
C36   C     C_R   0.547263 0.841745 0.568157 -0.156676
C37   C     C_R   0.530875 0.132571 0.492043 -0.242301
C38   C     C_R   0.685860 0.166560 0.567790 -0.183769
C39   C     C_R   0.395534 0.802708 0.488406 -0.109026
C40   C     C_R   0.088270 0.346529 0.418873 -0.294740
C41   C     C_R   0.799929 0.628138 0.570263 -0.085117
C42   C     C_R   0.904838 0.656888 0.585151 -0.062719
C43   C     C_R   0.985737 0.608966 0.557465 -0.162594
C44   C     C_R   0.962441 0.530997 0.516318 -0.028517
C45   C     C_R   0.481834 0.418469 0.115358 0.508156
C46   C     C_R   0.854637 0.504560 0.503483 0.241957
C47   C     C_R   0.041689 0.477819 0.487839 -0.012120
C48   C     C_R   0.011473 0.399780 0.447338 0.194444
C49   C     C_R   0.905222 0.374952 0.435969 -0.278049
C50   C     C_R   0.828284 0.426253 0.463948 -0.204176
C51   C     C_R   0.150667 0.498098 0.498039 0.014214
C52   C     C_R   0.194466 0.370565 0.430883 0.008712
C53   C     C_R   0.507587 0.595846 0.122609 0.489521
C54   C     C_R   0.506414 0.602712 0.062329 -0.105103
C55   C     C_R   0.499287 0.511048 0.029862 -0.010797
C56   C     C_R   0.485892 0.418813 0.056425 -0.012419
H1    H     H_    0.673241 0.503573 0.339228 0.170574
H2    H     H_    0.322061 0.492653 0.299056 0.165775
H3    H     H_    0.320706 0.495654 0.194221 0.143263
H4    H     H_    0.739595 0.219247 0.589962 0.160850
H5    H     H_    0.686191 0.880109 0.631002 0.143203
H6    H     H_    0.762652 0.041417 0.627894 0.155230
H7    H     H_    0.471814 0.160446 0.452585 0.136581
H8    H     H_    0.332867 0.088758 0.436730 0.137934
H9    H     H_    0.204408 0.975496 0.397766 0.143606
H10   H     H_    0.532192 0.763215 0.953387 0.224812
H11   H     H_    0.552215 0.768615 0.590400 0.166835
H12   H     H_    0.255395 0.330106 0.409530 0.129518
H13   H     H_    0.881504 0.315058 0.405510 0.160695
H14   H     H_    0.066491 0.286834 0.387927 0.148281
H15   H     H_    0.181774 0.555137 0.527963 0.165159
H16   H     H_    0.735782 0.663947 0.590935 0.131479
H17   H     H_    0.065650 0.633512 0.569118 0.189275
H18   H     H_    0.748858 0.402234 0.454066 0.212200
H19   H     H_    0.477397 0.258436 0.941421 0.202708
H20   H     H_    0.467547 0.257353 0.043524 0.203332
H21   H     H_    0.666957 0.433423 0.696775 0.173278
H22   H     H_    0.669787 0.506010 0.234461 0.146372
N1    N     N_R   0.493606 0.505604 0.146900 -0.350457
N2    N     N_R   0.513903 0.511812 0.853704 -0.347629
N3    N     N_R   0.222200 0.444670 0.469780 -0.104783
N4    N     N_R   0.776960 0.554790 0.529910 -0.122655
O1    O     O_R   0.366740 0.627150 0.485570 -0.543242
O2    O     O_2   0.525346 0.676881 0.157497 -0.577804
O3    O     O_2   0.536911 0.686840 0.857345 -0.553400
O4    O     O_2   0.492557 0.336451 0.847325 -0.534156
O5    O     O_R   0.544830 0.662520 0.504870 -0.622092
O6    O     O_R   0.410930 0.482340 0.574190 -0.605954
O7    O     O_R   0.589010 0.517710 0.593490 -0.632941
O8    O     O_R   0.455170 0.337480 0.495130 -0.612629
O9    O     O_R   0.633260 0.372850 0.514430 -0.640259
O10   O     O_R   0.410990 0.482290 0.406510 -0.624526
O11   O     O_R   0.589070 0.517660 0.425810 -0.632492
O12   O     O_2   0.468426 0.331269 0.141511 -0.552759
Zn1   Zn    Zn3+2 0.381090 0.476380 0.487110 0.989232
Zn2   Zn    Zn3+2 0.618910 0.523620 0.512890 0.934985
C57   C     C_2   0.507960 0.798212 0.060871 0.489120
H23   H     H_    0.455296 0.817151 0.091400 0.119746
O13   O     O_2   0.558027 0.864571 0.047868 -0.554599
C58   C     C_2   0.212760 0.777834 0.418668 0.435227
H24   H     H_    0.181850 0.782742 0.371501 0.042605
O14   O     O_2   0.170343 0.726566 0.448205 -0.532949
C59   C     C_2   0.928572 0.736122 0.629732 0.429012
H25   H     H_    0.865024 0.770009 0.651579 0.036671
O15   O     O_2   0.019176 0.764237 0.642831 -0.509431
O16   O     O_3   0.697359 0.430561 0.810575 -0.623409
C60   C     C_3   0.766525 0.506700 0.828604 0.082018
H26   H     H_    0.809651 0.488597 0.874952 0.181498
H27   H     H_    0.720974 0.586390 0.827905 0.163240
C61   C     C_3   0.852883 0.503683 0.791416 -0.390328
H28   H     H_    0.896900 0.423880 0.791797 0.249271
H29   H     H_    0.811836 0.527056 0.745446 0.215212
C62   C     C_3   0.936402 0.576426 0.814576 -0.884919
H30   H     H_    0.894223 0.656951 0.813825 0.272858
H31   H     H_    0.997179 0.572933 0.786490 0.274814
H32   H     H_    0.981084 0.553588 0.860120 0.266053
C63   C     C_2   0.306469 0.608449 0.650397 0.528169
H33   H     H_    0.225702 0.595130 0.655084 0.084893
O17   O     O_2   0.313222 0.666739 0.611383 -0.557635
C64   C     C_2   0.314638 0.602447 0.777609 0.438244
H34   H     H_    0.303844 0.571692 0.818484 0.058650
O18   O     O_2   0.249461 0.676008 0.754116 -0.523917

loop_
_geom_bond_atom_site_label_1
_geom_bond_atom_site_label_2
_ccdc_geom_bond_type
C43   H17   S    
C55   C56   A    
C1    O5    A    
C41   C42   A    
C35   C36   A    
C34   O11   A    
C42   C59   S    
C8    C56   A    
C57   H23   S    
C36   H11   S    
C7    C8    A    
C53   C54   A    
C19   H1    S    
C40   H14   S    
C53   O2    S    
C18   C24   A    
C28   C29   A    
C53   N1    A    
C16   C64   S    
C5    C6    A    
N3    Zn1   S    
O16   C60   S    
C15   C16   A    
C8    H20   S    
C18   C19   A    
C23   C26   S    
C61   H28   S    
C57   O13   D    
O9    Zn2   S    
C46   N4    A    
C10   O4    S    
C19   C20   A    
C2    C57   S    
C44   C46   A    
C16   C17   A    
C60   H26   S    
C51   N3    A    
C52   H12   S    
C44   C47   A    
C62   H32   S    
C20   C34   S    
C29   H8    S    
C49   H13   S    
C21   C22   A    
C60   H27   S    
C51   H15   S    
C45   O12   S    
C37   H7    S    
C64   O18   D    
C61   H29   S    
C13   H21   S    
C27   C58   S    
N4    Zn2   S    
C12   O6    A    
C12   O7    A    
O8    Zn1   S    
C45   C56   A    
C45   N1    A    
C2    C54   A    
C27   C39   A    
C22   H3    S    
C10   N2    A    
C26   C38   A    
C7    H19   S    
C40   C52   A    
C17   N2    S    
C15   C63   S    
C9    N2    A    
C43   C44   A    
C29   C30   A    
C25   C38   A    
C24   N1    S    
C47   C48   A    
C18   H22   S    
O1    Zn1   S    
O5    Zn2   S    
C11   O16   S    
C58   O14   D    
C23   O8    A    
C59   O15   D    
C32   C37   A    
C61   C62   S    
C41   H16   S    
C38   H4    S    
C48   C49   A    
C12   C14   S    
O11   Zn2   S    
C60   C61   S    
C23   O9    A    
C9    O3    S    
C3    H10   S    
C42   C43   A    
C3    C4    A    
C59   H25   S    
C64   H34   S    
C62   H30   S    
C40   C48   A    
C54   C55   A    
C11   C17   A    
C31   C36   A    
C5    C55   A    
C4    C5    A    
C6    C10   A    
C47   C51   A    
C26   C37   A    
C6    C7    A    
C1    O1    A    
C46   C50   A    
C32   C33   A    
O7    Zn2   S    
C63   O17   D    
C28   H9    S    
C21   H2    S    
C63   H33   S    
C30   C32   A    
C11   C13   A    
C50   H18   S    
C30   C31   A    
C35   H5    S    
C41   N4    A    
C58   H24   S    
C33   C35   A    
C31   C39   A    
C2    C3    A    
C22   C24   A    
C25   H6    S    
O10   Zn1   S    
C52   N3    A    
C34   O10   A    
O6    Zn1   S    
C1    C39   S    
C20   C21   A    
C49   C50   A    
C27   C28   A    
C14   C15   A    
C4    C9    A    
C13   C14   A    
C25   C33   A    
C62   H31   S    
