data_mof_unit_42708.cif
_audit_creation_date              2012-12-10T19:29:39-0500
_audit_creation_method            fapswitch 2.2
_symmetry_space_group_name_H-M    P1
_symmetry_Int_Tables_number       1
_space_group_crystal_system       triclinic
_cell_length_a                    22.247681
_cell_length_b                    22.275373
_cell_length_c                    14.969958
_cell_angle_alpha                 89.99828
_cell_angle_beta                  90.016965
_cell_angle_gamma                 90.000355
_cell_volume                      7418.74248526

loop_
_atom_site_label
_atom_site_type_symbol
_atom_type_description
_atom_site_fract_x
_atom_site_fract_y
_atom_site_fract_z
_atom_type_partial_charge
C1    C     C_R   0.418792 0.918793 0.499974 0.903163
C2    C     C_R   0.581206 0.081207 0.500025 0.903236
C3    C     C_R   0.581208 0.918794 0.500027 0.903246
C4    C     C_R   0.418794 0.081208 0.499973 0.903146
C5    C     C_R   0.918794 0.418793 0.499975 0.903236
C6    C     C_R   0.081208 0.581207 0.500026 0.903163
C7    C     C_R   0.081206 0.418792 0.500027 0.903146
C8    C     C_R   0.918792 0.581206 0.499973 0.903246
C9    C     C_1   0.336981 0.163305 0.499714 -0.070482
C10   C     C_1   0.663026 0.836702 0.500278 -0.070485
C11   C     C_1   0.663012 0.163311 0.500257 -0.070495
C12   C     C_1   0.336973 0.836703 0.499714 -0.070481
C13   C     C_1   0.836973 0.663297 0.499722 -0.070486
C14   C     C_1   0.163017 0.336693 0.500287 -0.070483
C15   C     C_1   0.163027 0.663297 0.500286 -0.070481
C16   C     C_1   0.836988 0.336688 0.499743 -0.070495
C17   C     C_1   0.500351 0.000002 0.189995 0.130134
C18   C     C_1   0.499670 0.000003 0.810004 0.130131
C19   C     C_1   0.000330 0.499997 0.189996 0.130131
C20   C     C_1   0.999649 0.499997 0.810005 0.130134
C21   C     C_3   0.471018 0.950564 0.970426 0.059506
C22   C     C_3   0.529030 0.049448 0.029573 0.059502
C23   C     C_3   0.528568 0.950298 0.029581 0.059508
C24   C     C_3   0.471480 0.049714 0.970417 0.059515
C25   C     C_3   0.970990 0.450541 0.970427 0.059501
C26   C     C_3   0.028963 0.549447 0.029574 0.059506
C27   C     C_3   0.028540 0.450298 0.029582 0.059516
C28   C     C_3   0.971413 0.549690 0.970419 0.059508
C29   C     C_3   0.697998 0.725579 0.473138 0.189944
C30   C     C_3   0.302544 0.274986 0.523118 0.189994
C31   C     C_3   0.302636 0.724930 0.522456 0.189962
C32   C     C_3   0.698526 0.273908 0.470051 0.189911
C33   C     C_3   0.197454 0.225012 0.476883 0.189995
C34   C     C_3   0.802002 0.774421 0.526862 0.189944
C35   C     C_3   0.801474 0.226091 0.529949 0.189911
C36   C     C_3   0.197363 0.775069 0.477544 0.189963
C37   C     C_3   0.254128 0.226740 0.417668 0.183149
C38   C     C_3   0.744054 0.771440 0.583175 0.183282
C39   C     C_3   0.742511 0.230085 0.583737 0.183507
C40   C     C_3   0.253809 0.773580 0.417831 0.183173
C41   C     C_3   0.755946 0.728560 0.416825 0.183284
C42   C     C_3   0.245869 0.273258 0.582333 0.183152
C43   C     C_3   0.246191 0.726420 0.582169 0.183171
C44   C     C_3   0.757489 0.269914 0.416263 0.183505
C45   C     C_1   0.374478 0.125647 0.499896 -0.185825
C46   C     C_1   0.625528 0.874360 0.500103 -0.185792
C47   C     C_1   0.625519 0.125649 0.500093 -0.185835
C48   C     C_1   0.374472 0.874359 0.499899 -0.185856
C49   C     C_1   0.874471 0.625640 0.499897 -0.185794
C50   C     C_1   0.125521 0.374352 0.500104 -0.185826
C51   C     C_1   0.125528 0.625641 0.500100 -0.185854
C52   C     C_1   0.874481 0.374351 0.499907 -0.185834
C53   C     C_3   0.235267 0.206404 0.559114 -0.257991
C54   C     C_3   0.766016 0.794859 0.443786 -0.258070
C55   C     C_3   0.767025 0.204134 0.446299 -0.258144
C56   C     C_3   0.235493 0.793361 0.559609 -0.257976
C57   C     C_3   0.733984 0.705141 0.556213 -0.258068
C58   C     C_3   0.264731 0.293594 0.440887 -0.257991
C59   C     C_3   0.264507 0.706639 0.440391 -0.257977
C60   C     C_3   0.732976 0.295866 0.553701 -0.258144
C61   C     C_3   0.291724 0.208845 0.499398 0.021558
C62   C     C_3   0.708275 0.791153 0.500576 0.021587
C63   C     C_3   0.708259 0.208862 0.500542 0.021604
C64   C     C_3   0.291718 0.791161 0.499391 0.021544
C65   C     C_3   0.791725 0.708846 0.499424 0.021587
C66   C     C_3   0.208274 0.291153 0.500603 0.021558
C67   C     C_3   0.208282 0.708839 0.500608 0.021543
C68   C     C_3   0.791741 0.291137 0.499458 0.021604
C69   C     C_3   0.444262 0.000265 0.030413 0.438747
C70   C     C_3   0.555785 0.999747 0.969583 0.438769
C71   C     C_3   0.944215 0.500231 0.030416 0.438768
C72   C     C_3   0.055739 0.499757 0.969586 0.438749
C73   C     C_3   0.500979 0.000003 0.090009 -0.151993
C74   C     C_3   0.499067 0.000008 0.909990 -0.151965
C75   C     C_3   0.000933 0.499992 0.090009 -0.151965
C76   C     C_3   0.999022 0.499996 0.909991 -0.151992
H1    H     H_    0.777716 0.832441 0.398284 0.152565
H2    H     H_    0.224606 0.169849 0.606971 0.152628
H3    H     H_    0.225012 0.829727 0.607868 0.152642
H4    H     H_    0.779540 0.165735 0.402833 0.152533
H5    H     H_    0.275392 0.330149 0.393030 0.152628
H6    H     H_    0.722283 0.667558 0.601715 0.152565
H7    H     H_    0.720460 0.334265 0.597167 0.152533
H8    H     H_    0.274988 0.670273 0.392132 0.152642
N1    N     N_1   0.500020 1.000000 0.268010 -0.096421
N2    N     N_1   0.499980 0.000000 0.731990 -0.096410
N3    N     N_1   0.000020 0.500000 0.268010 -0.096409
N4    N     N_1   0.999980 0.500000 0.731990 -0.096422
O1    O     O_R   0.438390 0.938390 0.574460 -0.616948
O2    O     O_R   0.561610 0.061610 0.425540 -0.617073
O3    O     O_R   0.561610 0.938390 0.425540 -0.617052
O4    O     O_R   0.438390 0.061610 0.574460 -0.617001
O5    O     O_R   0.938390 0.438390 0.574460 -0.617074
O6    O     O_R   0.061610 0.561610 0.425540 -0.616950
O7    O     O_R   0.061610 0.438390 0.425540 -0.617000
O8    O     O_R   0.938390 0.561610 0.574460 -0.617051
O9    O     O_R   0.438400 0.938390 0.425520 -0.607059
O10   O     O_R   0.561600 0.061610 0.574480 -0.606944
O11   O     O_R   0.561600 0.938390 0.574480 -0.606882
O12   O     O_R   0.438400 0.061610 0.425520 -0.606982
O13   O     O_R   0.938400 0.438390 0.425520 -0.606940
O14   O     O_R   0.061600 0.561610 0.574480 -0.607056
O15   O     O_R   0.061600 0.438390 0.574480 -0.606986
O16   O     O_R   0.938400 0.561610 0.425520 -0.606885
Zn1   Zn    Zn3+2 0.500000 1.000000 0.599450 0.975202
Zn2   Zn    Zn3+2 0.500000 0.000000 0.400550 0.975035
Zn3   Zn    Zn3+2 0.000000 0.500000 0.599450 0.975035
Zn4   Zn    Zn3+2 1.000000 0.500000 0.400550 0.975202
O17   O     O_3   0.614365 0.999474 0.935727 -0.766901
H9    H     H_    0.641001 0.999352 0.988803 0.325501
O18   O     O_3   0.385681 0.000538 0.064267 -0.766972
H10   H     H_    0.359046 0.000661 0.011190 0.325437
O19   O     O_3   0.114319 0.499507 0.935733 -0.766972
H11   H     H_    0.140954 0.499395 0.988810 0.325436
O20   O     O_3   0.885636 0.500481 0.064273 -0.766900
H12   H     H_    0.858999 0.500593 0.011197 0.325501
C77   C     C_3   0.264471 0.199908 0.324811 -0.385668
C78   C     C_3   0.223280 0.227762 0.254705 -0.876289
H13   H     H_    0.175676 0.216570 0.268708 0.261870
H14   H     H_    0.228775 0.277303 0.253295 0.257159
H15   H     H_    0.234962 0.209659 0.187824 0.252055
H16   H     H_    0.311918 0.208178 0.305230 0.206847
H17   H     H_    0.257433 0.150625 0.327086 0.211223
C79   C     C_3   0.731663 0.796232 0.676728 -0.385867
C80   C     C_3   0.771311 0.766838 0.747401 -0.876364
H18   H     H_    0.765835 0.717293 0.746119 0.257198
H19   H     H_    0.819189 0.778327 0.736284 0.261913
H20   H     H_    0.758141 0.783457 0.814523 0.251945
H21   H     H_    0.738720 0.845535 0.677181 0.211559
H22   H     H_    0.683816 0.787559 0.693584 0.206541
C81   C     C_3   0.728381 0.207005 0.677712 -0.386186
C82   C     C_3   0.766742 0.237668 0.748754 -0.876535
H23   H     H_    0.814794 0.225959 0.740069 0.261957
H24   H     H_    0.761348 0.287173 0.745233 0.257257
H25   H     H_    0.752314 0.222289 0.815959 0.251794
H26   H     H_    0.680248 0.215990 0.692257 0.206243
H27   H     H_    0.735382 0.157727 0.680438 0.211710
C83   C     C_3   0.263787 0.800775 0.325113 -0.385697
C84   C     C_3   0.222337 0.773181 0.255115 -0.876318
H28   H     H_    0.227842 0.723649 0.253229 0.257162
H29   H     H_    0.174784 0.784300 0.269616 0.261883
H30   H     H_    0.233755 0.791551 0.188290 0.252016
H31   H     H_    0.256744 0.850045 0.327864 0.211141
H32   H     H_    0.311159 0.792597 0.305058 0.206862
C85   C     C_3   0.768336 0.703768 0.323272 -0.385871
C86   C     C_3   0.728688 0.733161 0.252599 -0.876364
H33   H     H_    0.680811 0.721671 0.263716 0.261913
H34   H     H_    0.734164 0.782706 0.253882 0.257198
H35   H     H_    0.741859 0.716542 0.185477 0.251943
H36   H     H_    0.816184 0.712441 0.306416 0.206539
H37   H     H_    0.761280 0.654465 0.322819 0.211557
C87   C     C_3   0.235527 0.300091 0.675190 -0.385674
C88   C     C_3   0.276718 0.272236 0.745296 -0.876290
H38   H     H_    0.271222 0.222696 0.746707 0.257160
H39   H     H_    0.324322 0.283428 0.731293 0.261870
H40   H     H_    0.265036 0.290340 0.812177 0.252054
H41   H     H_    0.242565 0.349373 0.672915 0.211222
H42   H     H_    0.188080 0.291820 0.694771 0.206845
C89   C     C_3   0.236213 0.699225 0.674887 -0.385693
C90   C     C_3   0.277663 0.726819 0.744885 -0.876317
H43   H     H_    0.325216 0.715701 0.730383 0.261884
H44   H     H_    0.272157 0.776351 0.746771 0.257162
H45   H     H_    0.266245 0.708449 0.811710 0.252018
H46   H     H_    0.188841 0.707402 0.694942 0.206864
H47   H     H_    0.243257 0.649955 0.672136 0.211143
C91   C     C_3   0.771619 0.292994 0.322288 -0.386182
C92   C     C_3   0.733258 0.262331 0.251246 -0.876536
H48   H     H_    0.738652 0.212826 0.254767 0.257257
H49   H     H_    0.685206 0.274040 0.259931 0.261957
H50   H     H_    0.747685 0.277711 0.184041 0.251795
H51   H     H_    0.764618 0.342273 0.319561 0.211712
H52   H     H_    0.819752 0.284009 0.307743 0.206244
C93   C     C_3   0.635986 0.701001 0.448180 -0.399159
C94   C     C_3   0.637722 0.633883 0.428322 -0.873373
H53   H     H_    0.664925 0.624795 0.367822 0.263695
H54   H     H_    0.656850 0.608837 0.485828 0.257353
H55   H     H_    0.591331 0.617446 0.416098 0.249056
H56   H     H_    0.604861 0.708977 0.504976 0.202950
H57   H     H_    0.618247 0.725618 0.389388 0.206590
C95   C     C_3   0.365049 0.300094 0.543834 -0.399136
C96   C     C_3   0.363691 0.367612 0.560499 -0.873646
H58   H     H_    0.343263 0.391388 0.502788 0.257452
H59   H     H_    0.337850 0.378026 0.621840 0.263479
H60   H     H_    0.410312 0.384307 0.569619 0.249083
H61   H     H_    0.384102 0.276779 0.602894 0.206417
H62   H     H_    0.394911 0.290874 0.485969 0.203027
C97   C     C_3   0.365227 0.699754 0.542426 -0.399025
C98   C     C_3   0.363950 0.632171 0.558526 -0.873780
H63   H     H_    0.338355 0.621510 0.620001 0.263471
H64   H     H_    0.343304 0.608614 0.500791 0.257436
H65   H     H_    0.410610 0.615454 0.567099 0.249071
H66   H     H_    0.394864 0.709206 0.484388 0.203059
H67   H     H_    0.384504 0.722842 0.601521 0.206402
C99   C     C_3   0.637015 0.298008 0.441588 -0.399374
C100  C     C_3   0.639162 0.364739 0.419103 -0.872819
H68   H     H_    0.657224 0.390826 0.476343 0.257419
H69   H     H_    0.667494 0.372725 0.359407 0.263741
H70   H     H_    0.593028 0.380940 0.404307 0.249070
H71   H     H_    0.620357 0.272323 0.383111 0.206724
H72   H     H_    0.604848 0.291065 0.497394 0.202857
C101  C     C_3   0.134948 0.199904 0.456167 -0.399135
C102  C     C_3   0.136306 0.132386 0.439503 -0.873647
H73   H     H_    0.162148 0.121971 0.378163 0.263480
H74   H     H_    0.156734 0.108611 0.497216 0.257452
H75   H     H_    0.089685 0.115692 0.430383 0.249083
H76   H     H_    0.105086 0.209125 0.514033 0.203026
H77   H     H_    0.115896 0.223219 0.397107 0.206417
C103  C     C_3   0.864013 0.798999 0.551819 -0.399158
C104  C     C_3   0.862277 0.866116 0.571678 -0.873370
H78   H     H_    0.843148 0.891162 0.514174 0.257352
H79   H     H_    0.835075 0.875204 0.632179 0.263695
H80   H     H_    0.908668 0.882554 0.583901 0.249055
H81   H     H_    0.881753 0.774381 0.610612 0.206590
H82   H     H_    0.895138 0.791023 0.495023 0.202949
C105  C     C_3   0.862986 0.201991 0.558412 -0.399374
C106  C     C_3   0.860838 0.135261 0.580896 -0.872818
H83   H     H_    0.832506 0.127274 0.640592 0.263740
H84   H     H_    0.842776 0.109174 0.523657 0.257419
H85   H     H_    0.906972 0.119060 0.595693 0.249070
H86   H     H_    0.895153 0.208935 0.502606 0.202858
H87   H     H_    0.879643 0.227677 0.616889 0.206724
C107  C     C_3   0.134773 0.800246 0.457574 -0.399025
C108  C     C_3   0.136049 0.867829 0.441473 -0.873781
H88   H     H_    0.156696 0.891386 0.499209 0.257436
H89   H     H_    0.161645 0.878490 0.379999 0.263471
H90   H     H_    0.089389 0.884546 0.432901 0.249071
H91   H     H_    0.115496 0.777158 0.398479 0.206401
H92   H     H_    0.105136 0.790794 0.515612 0.203059
C109  C     C_3   0.564020 0.897113 0.067306 -0.383454
C110  C     C_3   0.587191 0.855333 0.994271 -0.834119
H93   H     H_    0.549323 0.833666 0.958626 0.256328
H94   H     H_    0.615295 0.880312 0.945619 0.287380
H95   H     H_    0.615126 0.819539 0.024949 0.238978
H96   H     H_    0.602912 0.914754 0.105748 0.194249
H97   H     H_    0.535155 0.871509 0.114223 0.207993
C111  C     C_3   0.436034 0.102902 0.932689 -0.383442
C112  C     C_3   0.412869 0.144685 0.005723 -0.834179
H98   H     H_    0.384766 0.119710 0.054379 0.287332
H99   H     H_    0.450742 0.166351 0.041363 0.256314
H100  H     H_    0.384938 0.180481 0.975044 0.239014
H101  H     H_    0.464902 0.128500 0.885771 0.208065
H102  H     H_    0.397138 0.085264 0.894250 0.194162
C113  C     C_3   0.435078 0.897705 0.932708 -0.383430
C114  C     C_3   0.411527 0.856140 0.005750 -0.834185
H103  H     H_    0.449197 0.834127 0.041393 0.256326
H104  H     H_    0.383657 0.881377 0.054401 0.287333
H105  H     H_    0.383264 0.820603 0.975077 0.239003
H106  H     H_    0.396348 0.915701 0.894267 0.194139
H107  H     H_    0.463706 0.871839 0.885793 0.208092
C115  C     C_3   0.564977 0.102305 0.067284 -0.383421
C116  C     C_3   0.588536 0.143864 0.994239 -0.834149
H108  H     H_    0.616402 0.118622 0.945589 0.287421
H109  H     H_    0.550871 0.165883 0.958593 0.256325
H110  H     H_    0.616807 0.179397 0.024908 0.238913
H111  H     H_    0.536352 0.128178 0.114197 0.207945
H112  H     H_    0.603704 0.084306 0.105729 0.194290
C117  C     C_3   0.064007 0.397123 0.067310 -0.383443
C118  C     C_3   0.087189 0.355350 0.994276 -0.834178
H113  H     H_    0.049326 0.333671 0.958632 0.256314
H114  H     H_    0.115285 0.380337 0.945623 0.287332
H115  H     H_    0.115133 0.319564 0.024955 0.239014
H116  H     H_    0.102895 0.414776 0.105751 0.194161
H117  H     H_    0.035148 0.371513 0.114227 0.208066
C119  C     C_3   0.935940 0.602862 0.932694 -0.383452
C120  C     C_3   0.912753 0.644633 0.005730 -0.834119
H118  H     H_    0.884659 0.619643 0.054381 0.287380
H119  H     H_    0.950613 0.666315 0.041375 0.256328
H120  H     H_    0.884804 0.680416 0.975051 0.238978
H121  H     H_    0.964795 0.628477 0.885777 0.207993
H122  H     H_    0.897054 0.585206 0.894252 0.194249
C121  C     C_3   0.935064 0.397669 0.932715 -0.383423
C122  C     C_3   0.911521 0.356101 0.005761 -0.834151
H123  H     H_    0.949196 0.334096 0.041404 0.256325
H124  H     H_    0.883646 0.381332 0.054413 0.287422
H125  H     H_    0.883264 0.320558 0.975092 0.238913
H126  H     H_    0.896329 0.415654 0.894272 0.194291
H127  H     H_    0.963698 0.371808 0.885803 0.207944
C123  C     C_3   0.064882 0.602320 0.067292 -0.383431
C124  C     C_3   0.088417 0.643894 0.994250 -0.834185
H128  H     H_    0.116296 0.618668 0.945599 0.287332
H129  H     H_    0.050738 0.665893 0.958608 0.256326
H130  H     H_    0.116666 0.679442 0.024923 0.239003
H131  H     H_    0.036244 0.628175 0.114207 0.208092
H132  H     H_    0.103619 0.584339 0.105733 0.194140

loop_
_geom_bond_atom_site_label_1
_geom_bond_atom_site_label_2
_ccdc_geom_bond_type
C9    C45   T    
C103  H81   S    
C113  H107  S    
C26   C72   S    
C101  C102  S    
C37   C58   S    
C11   C47   T    
C108  H88   S    
C8    O8    A    
C106  H85   S    
C26   C123  S    
C72   C76   S    
C78   H14   S    
C85   C86   S    
C108  H90   S    
C116  H108  S    
C92   H49   S    
C13   C65   S    
C96   H58   S    
C114  H103  S    
C4    O12   A    
C91   H52   S    
C29   C62   S    
O6    Zn4   S    
C119  H121  S    
C56   H3    S    
C102  H74   S    
C28   C71   S    
C98   H65   S    
C17   N1    T    
C35   C68   S    
C3    O3    A    
C84   H30   S    
C106  H84   S    
C86   H33   S    
C43   C89   S    
C83   H31   S    
C122  H125  S    
C42   C53   S    
C35   C39   S    
C12   C64   S    
C60   H7    S    
C116  H109  S    
C7    O15   A    
C93   H57   S    
C111  H102  S    
C113  C114  S    
C38   C57   S    
C30   C58   S    
C104  H80   S    
C111  C112  S    
C20   C76   S    
C110  H95   S    
C98   H64   S    
C117  C118  S    
C124  H130  S    
C31   C59   S    
C109  H96   S    
C2    O2    A    
C78   H13   S    
C59   C67   S    
C94   H53   S    
C53   C61   S    
C58   C66   S    
C99   H72   S    
N3    Zn4   S    
C99   H71   S    
C93   H56   S    
C82   H23   S    
C6    O6    A    
C102  H75   S    
C55   C63   S    
C70   C74   S    
C80   H20   S    
C1    O1    A    
C124  H128  S    
C56   C64   S    
C5    C52   S    
C69   C73   S    
C25   C71   S    
C15   C51   T    
C6    C51   S    
C88   H39   S    
C42   C87   S    
C120  H118  S    
O17   H9    S    
C85   H36   S    
C123  C124  S    
C12   C48   T    
C21   C113  S    
C54   H1    S    
C5    O5    A    
O13   Zn4   S    
C6    O14   A    
C99   C100  S    
C39   C60   S    
C91   H51   S    
C18   C74   S    
C40   C59   S    
C123  H132  S    
C112  H98   S    
C97   H67   S    
C17   C73   S    
C23   C70   S    
C10   C62   S    
C23   C73   S    
C27   C75   S    
C105  H87   S    
C34   C65   S    
C22   C70   S    
C33   C101  S    
O1    Zn1   S    
C24   C69   S    
C104  H78   S    
C92   H50   S    
C86   H34   S    
C4    C45   S    
C96   H59   S    
C21   C23   S    
C33   C53   S    
C121  H126  S    
O11   Zn1   S    
C87   H42   S    
C36   C67   S    
C102  H73   S    
C14   C50   T    
C35   C55   S    
C117  H116  S    
C90   H45   S    
C36   C40   S    
C106  H83   S    
O2    Zn2   S    
C32   C99   S    
C81   H26   S    
O7    Zn4   S    
C58   H5    S    
C1    O9    A    
C92   H48   S    
C72   O19   S    
N4    Zn3   S    
C119  C120  S    
C116  H110  S    
C41   C65   S    
C54   C62   S    
C34   C103  S    
C115  C116  S    
C28   C119  S    
C38   C62   S    
C21   C74   S    
C33   C37   S    
C89   H47   S    
C40   C83   S    
C98   H63   S    
C78   H15   S    
C90   H44   S    
C111  H101  S    
C109  H97   S    
C118  H114  S    
C77   H16   S    
C10   C46   T    
C109  C110  S    
C24   C111  S    
C70   O17   S    
C86   H35   S    
C120  H119  S    
C43   C56   S    
O10   Zn1   S    
C89   C90   S    
C89   H46   S    
C107  H92   S    
O18   H10   S    
C71   O20   S    
C15   C67   S    
C33   C66   S    
C26   C75   S    
C101  H77   S    
C79   H22   S    
O14   Zn3   S    
C18   N2    T    
C14   C66   S    
C88   H40   S    
C110  H94   S    
C8    O16   A    
C94   H55   S    
C103  C104  S    
C97   H66   S    
C85   H37   S    
C31   C43   S    
C82   H24   S    
C13   C49   T    
O9    Zn2   S    
C122  H124  S    
O8    Zn3   S    
C29   C57   S    
C34   C54   S    
C123  H131  S    
C112  H99   S    
C80   H18   S    
C27   C117  S    
C9    C61   S    
C44   C68   S    
N2    Zn1   S    
C25   C27   S    
C122  H123  S    
C117  H117  S    
C31   C97   S    
N1    Zn2   S    
C28   C76   S    
C36   C107  S    
O16   Zn4   S    
C7    O7    A    
C95   C96   S    
C119  H122  S    
C80   H19   S    
O19   H11   S    
C32   C44   S    
C25   C121  S    
C115  H111  S    
C121  C122  S    
C87   H41   S    
C103  H82   S    
C96   H60   S    
C115  H112  S    
C29   C41   S    
C34   C38   S    
C26   C28   S    
C31   C64   S    
C16   C52   T    
C7    C50   S    
C29   C93   S    
C95   H61   S    
C37   C61   S    
C84   H28   S    
C108  H89   S    
C1    C48   S    
C22   C115  S    
C2    C47   S    
C32   C63   S    
C39   C63   S    
C3    C46   S    
O12   Zn2   S    
C59   H8    S    
C40   C64   S    
C5    O13   A    
C95   H62   S    
C16   C68   S    
C90   H43   S    
C100  H70   S    
O3    Zn2   S    
C53   H2    S    
C77   H17   S    
C19   N3    T    
C97   C98   S    
C114  H105  S    
C83   H32   S    
C105  H86   S    
O5    Zn3   S    
C71   C75   S    
C55   H4    S    
C84   H29   S    
C44   C55   S    
C24   C74   S    
O20   H12   S    
C91   C92   S    
C39   C81   S    
C107  H91   S    
C82   H25   S    
C57   C65   S    
C20   N4    T    
C107  C108  S    
C19   C75   S    
C36   C56   S    
C104  H79   S    
C37   C77   S    
C114  H104  S    
C79   H21   S    
C118  H113  S    
C101  H76   S    
C22   C24   S    
C124  H129  S    
C105  C106  S    
C110  H93   S    
C69   O18   S    
C120  H120  S    
C94   H54   S    
C41   C54   S    
C60   C68   S    
C83   C84   S    
C44   C91   S    
C93   C94   S    
C100  H68   S    
C118  H115  S    
C112  H100  S    
C3    O11   A    
O4    Zn1   S    
C121  H127  S    
C41   C85   S    
C87   C88   S    
C2    O10   A    
C25   C76   S    
C43   C67   S    
C113  H106  S    
C30   C61   S    
C21   C69   S    
C42   C66   S    
C32   C60   S    
C57   H6    S    
C30   C42   S    
O15   Zn3   S    
C22   C73   S    
C100  H69   S    
C88   H38   S    
C77   C78   S    
C11   C63   S    
C35   C105  S    
C8    C49   S    
C30   C95   S    
C79   C80   S    
C38   C79   S    
C27   C72   S    
C81   C82   S    
C23   C109  S    
C81   H27   S    
C4    O4    A    
