data_mof_unit_53161.cif
_audit_creation_date              2012-12-10T18:59:14-0500
_audit_creation_method            fapswitch 2.2
_symmetry_space_group_name_H-M    P1
_symmetry_Int_Tables_number       1
_space_group_crystal_system       triclinic
_cell_length_a                    9.797343
_cell_length_b                    10.733419
_cell_length_c                    16.82356
_cell_angle_alpha                 89.766941
_cell_angle_beta                  94.473673
_cell_angle_gamma                 89.417064
_cell_volume                      1763.64618106

loop_
_atom_site_label
_atom_site_type_symbol
_atom_type_description
_atom_site_fract_x
_atom_site_fract_y
_atom_site_fract_z
_atom_type_partial_charge
C1    C     C_R   0.500610 0.259984 0.498198 0.874676
C2    C     C_R   0.499218 0.740112 0.501162 0.850904
C3    C     C_R   0.392002 0.940208 0.534361 -0.002030
C4    C     C_R   0.605809 0.060215 0.462536 -0.015608
C5    C     C_R   0.497108 0.872589 0.500897 -0.075717
C6    C     C_R   0.501991 0.127626 0.497266 -0.074169
C7    C     C_R   0.064542 0.577424 0.450096 -0.046271
C8    C     C_R   0.935462 0.422626 0.549930 -0.057268
C9    C     C_R   0.920357 0.577464 0.450165 -0.076923
C10   C     C_R   0.079662 0.422750 0.549975 -0.040238
C11   C     C_R   0.517710 0.497470 0.653975 0.956259
C12   C     C_R   0.482206 0.497509 0.346446 0.964372
C13   C     C_R   0.527249 0.484360 0.741079 -0.364691
C14   C     C_R   0.470183 0.474264 0.260875 -0.362264
C15   C     C_R   0.406971 0.494314 0.781909 0.443611
C16   C     C_R   0.577042 0.411069 0.225593 0.441420
C17   C     C_R   0.411757 0.465014 0.862157 -0.343704
C18   C     C_R   0.559332 0.378443 0.145714 -0.349879
C19   C     C_R   0.535790 0.431179 0.904519 0.076987
C20   C     C_R   0.439591 0.413250 0.099619 0.074049
C21   C     C_R   0.656499 0.425140 0.865397 0.421059
C22   C     C_R   0.330781 0.470245 0.135046 0.425347
C23   C     C_R   0.653785 0.454864 0.784052 0.330511
C24   C     C_R   0.347623 0.505787 0.214910 0.345509
C25   C     C_R   0.396115 0.067841 0.532577 -0.244316
C26   C     C_R   0.602643 0.932402 0.465137 -0.252885
H1    H     H_    0.640669 0.328452 0.119014 0.198147
H2    H     H_    0.317291 0.471814 0.891373 0.219052
H3    H     H_    0.317025 0.120866 0.559628 0.160919
H4    H     H_    0.681493 0.879294 0.437946 0.156167
H5    H     H_    0.113468 0.639178 0.410311 0.145978
H6    H     H_    0.886537 0.360916 0.589748 0.161781
H7    H     H_    0.859389 0.639236 0.410387 0.121518
H8    H     H_    0.140646 0.361156 0.589869 0.146952
N1    N     N_2   0.544816 0.415922 0.988059 -0.120847
N2    N     N_2   0.431329 0.406747 0.016009 -0.127262
N3    N     N_R   0.857210 0.499970 0.500020 -0.079386
N4    N     N_R   0.142790 0.500030 0.499980 -0.082901
O1    O     O_R   0.614620 0.316750 0.500010 -0.611977
O2    O     O_R   0.385380 0.683250 0.499990 -0.619176
O3    O     O_R   0.385290 0.316780 0.500000 -0.635644
O4    O     O_R   0.614710 0.683220 0.500000 -0.635657
O5    O     O_R   0.627460 0.498830 0.616130 -0.584592
O6    O     O_R   0.372540 0.501170 0.383870 -0.580381
O7    O     O_R   0.398130 0.498850 0.616130 -0.567733
O8    O     O_R   0.601870 0.501150 0.383870 -0.586177
Zn1   Zn    Zn3+2 0.653130 0.499980 0.500000 0.979875
Zn2   Zn    Zn3+2 0.346870 0.500020 0.500000 0.987082
O9    O     O_3   0.693560 0.371090 0.270772 -0.571350
C27   C     C_3   0.805442 0.443869 0.251188 -0.211835
H9    H     H_    0.784584 0.545187 0.258696 0.144218
H10   H     H_    0.833272 0.424721 0.189567 0.144201
H11   H     H_    0.895468 0.418738 0.292458 0.195322
O10   O     O_3   0.281621 0.525316 0.742868 -0.573747
C28   C     C_3   0.251998 0.651209 0.758620 -0.269331
H12   H     H_    0.332590 0.713647 0.738304 0.158089
H13   H     H_    0.238655 0.666330 0.822943 0.153722
H14   H     H_    0.153893 0.677095 0.725063 0.189077
O11   O     O_3   0.779686 0.397758 0.907946 -0.592477
C29   C     C_3   0.800162 0.267604 0.907570 -0.276003
H15   H     H_    0.806294 0.232135 0.845828 0.185081
H16   H     H_    0.718393 0.218484 0.937352 0.152323
H17   H     H_    0.899132 0.245513 0.941548 0.176618
O12   O     O_3   0.213646 0.505769 0.089073 -0.583248
C30   C     C_3   0.120249 0.406701 0.088363 -0.261935
H18   H     H_    0.091927 0.384280 0.149605 0.165033
H19   H     H_    0.161728 0.322321 0.059989 0.150362
H20   H     H_    0.025185 0.435326 0.052482 0.209627
O13   O     O_3   0.773278 0.444013 0.745820 -0.577039
C31   C     C_3   0.845123 0.556947 0.754490 -0.204462
H21   H     H_    0.880809 0.573942 0.817870 0.184065
H22   H     H_    0.782151 0.637322 0.730048 0.134410
H23   H     H_    0.937006 0.550400 0.720127 0.187861
O14   O     O_3   0.241110 0.567004 0.248189 -0.574723
C32   C     C_3   0.262189 0.696396 0.242633 -0.256295
H24   H     H_    0.262793 0.727168 0.179389 0.181079
H25   H     H_    0.358574 0.724449 0.277029 0.130765
H26   H     H_    0.176332 0.745589 0.268781 0.171758
C33   C     C_1   0.279738 0.882989 0.571383 0.172356
N5    N     N_1   0.189117 0.837808 0.600526 -0.227759
C34   C     C_1   0.714089 0.118211 0.422244 0.208196
N6    N     N_1   0.801014 0.164273 0.390144 -0.158440

loop_
_geom_bond_atom_site_label_1
_geom_bond_atom_site_label_2
_ccdc_geom_bond_type
C28   H12   S    
C23   O13   S    
N1    N2    D    
C3    C33   S    
C34   N6    T    
C29   H17   S    
C29   H16   S    
C19   C21   A    
C21   O11   S    
C6    C25   A    
C13   C23   A    
C18   C20   A    
C7    C9    A    
C14   C24   A    
O9    C27   S    
O2    Zn2   S    
O10   C28   S    
C7    N4    A    
C4    C34   S    
C30   H19   S    
C27   H10   S    
C11   O5    A    
C31   H21   S    
N3    Zn1   S    
N4    Zn2   S    
O11   C29   S    
C9    H7    S    
C21   C23   A    
C25   H3    S    
C27   H11   S    
C7    H5    S    
O14   C32   S    
C1    C6    S    
C8    H6    S    
C15   O10   S    
C3    C25   A    
C16   O9    S    
C4    C6    A    
C33   N5    T    
C29   H15   S    
C12   O8    A    
C32   H24   S    
C30   H20   S    
C31   H23   S    
C9    N3    A    
C27   H9    S    
C10   H8    S    
C32   H25   S    
C1    O3    A    
C12   C14   S    
C26   H4    S    
C13   C15   A    
C14   C16   A    
C11   O7    A    
C2    C5    S    
C8    N3    A    
O1    Zn1   S    
O7    Zn2   S    
C15   C17   A    
O8    Zn1   S    
C17   H2    S    
C8    C10   A    
C18   H1    S    
C20   C22   A    
C3    C5    A    
C4    C26   A    
C10   N4    A    
O12   C30   S    
C28   H13   S    
C12   O6    A    
C19   N1    S    
C11   C13   S    
C24   O14   S    
C2    O4    A    
C17   C19   A    
O3    Zn2   S    
C22   C24   A    
O4    Zn1   S    
O13   C31   S    
C32   H26   S    
C1    O1    A    
C22   O12   S    
C5    C26   A    
C20   N2    S    
C2    O2    A    
C16   C18   A    
C30   H18   S    
C28   H14   S    
C31   H22   S    
O5    Zn1   S    
O6    Zn2   S    
