data_mof_unit_63974.cif
_audit_creation_date              2012-12-10T16:39:39-0500
_audit_creation_method            fapswitch 2.2
_symmetry_space_group_name_H-M    P1
_symmetry_Int_Tables_number       1
_space_group_crystal_system       triclinic
_cell_length_a                    10.857778
_cell_length_b                    10.908603
_cell_length_c                    16.033678
_cell_angle_alpha                 90.686018
_cell_angle_beta                  97.644207
_cell_angle_gamma                 98.687736
_cell_volume                      1859.6104957

loop_
_atom_site_label
_atom_site_type_symbol
_atom_type_description
_atom_site_fract_x
_atom_site_fract_y
_atom_site_fract_z
_atom_type_partial_charge
C1    C     C_R   0.838771 0.524765 0.518487 0.497473
C2    C     C_R   0.527416 0.835505 0.517584 0.495893
C3    C     C_R   0.473619 0.163330 0.482187 0.502187
C4    C     C_R   0.484292 0.515758 0.275843 0.503724
C5    C     C_R   0.516023 0.484039 0.723965 0.500682
C6    C     C_1   0.478294 0.521996 0.186167 0.015897
C7    C     C_2   0.467591 0.533079 0.020720 -0.120839
C8    C     C_2   0.534128 0.465649 0.979105 -0.122019
C9    C     C_R   0.671870 0.028084 0.566196 0.063968
C10   C     C_R   0.703786 0.021499 0.653592 -0.083915
C11   C     C_R   0.822190 0.077188 0.692763 -0.108888
C12   C     C_1   0.528182 0.471721 0.889031 -0.045791
C13   C     C_R   0.909688 0.138590 0.644872 -0.091077
C14   C     C_R   0.879255 0.143796 0.557640 -0.092211
C15   C     C_R   0.761017 0.088251 0.518212 -0.050706
C16   C     C_1   0.473372 0.527103 0.110790 -0.043551
C17   C     C_1   0.522838 0.477152 0.813648 0.013599
C18   C     C_2   0.024602 0.464727 0.474983 -0.127937
C19   C     C_2   0.973227 0.534596 0.525349 -0.103845
C20   C     C_2   0.461097 0.028553 0.480081 -0.126293
C21   C     C_2   0.546192 0.968323 0.524717 -0.017673
C22   C     C_R   0.160663 0.475308 0.481712 0.505187
H1    H     H_    0.593568 0.405344 0.012489 0.136502
H2    H     H_    0.738476 0.092588 0.450553 0.100837
H3    H     H_    0.408157 0.593366 0.987305 0.137620
H4    H     H_    0.965882 0.399798 0.428746 0.098457
H5    H     H_    0.029820 0.600972 0.571443 0.125944
H6    H     H_    0.378107 0.976366 0.443028 0.097935
H7    H     H_    0.636689 0.974222 0.691290 0.110018
H8    H     H_    0.846131 0.072733 0.760260 0.111357
H9    H     H_    0.001218 0.181731 0.675307 0.112592
H10   H     H_    0.947332 0.190713 0.520586 0.106803
O1    O     O_3   0.500000 0.500000 0.500000 -0.440799
O2    O     O_R   0.566290 0.591070 0.323460 -0.536692
O3    O     O_R   0.580640 0.419420 0.684420 -0.536205
O4    O     O_R   0.407770 0.434760 0.307690 -0.535377
O5    O     O_R   0.445300 0.554750 0.684430 -0.538572
O6    O     O_R   0.452040 0.769470 0.559450 -0.539992
O7    O     O_R   0.554760 0.223750 0.537250 -0.529818
O8    O     O_R   0.782610 0.596300 0.470630 -0.531425
O9    O     O_R   0.210590 0.410470 0.432660 -0.537066
O10   O     O_R   0.777820 0.443700 0.559450 -0.532122
O11   O     O_R   0.228980 0.549520 0.537250 -0.540084
O12   O     O_R   0.592170 0.786730 0.470640 -0.539623
O13   O     O_R   0.401030 0.220040 0.432660 -0.537005
Zn1   Zn    Zn3+2 0.408180 0.591840 0.569080 0.937349
Zn2   Zn    Zn3+2 0.608390 0.616500 0.442190 0.945463
Zn3   Zn    Zn3+2 0.381900 0.393170 0.419650 0.944116
Zn4   Zn    Zn3+2 0.601540 0.398480 0.569080 0.945923

loop_
_geom_bond_atom_site_label_1
_geom_bond_atom_site_label_2
_ccdc_geom_bond_type
C12   C17   T    
O3    Zn4   S    
O8    Zn2   S    
C4    O4    A    
C5    O5    A    
C19   H5    S    
C9    C10   A    
C2    O6    A    
C22   O11   A    
C18   H4    S    
O12   Zn2   S    
C8    C12   S    
C2    C21   S    
C9    C15   A    
C3    O7    A    
C7    C8    D    
C13   C14   A    
O1    Zn1   S    
C11   C13   A    
C10   H7    S    
C9    C21   S    
C5    O3    A    
C7    C16   S    
O7    Zn4   S    
O9    Zn3   S    
C13   H9    S    
O4    Zn3   S    
O1    Zn2   S    
O11   Zn1   S    
C4    O2    A    
O6    Zn1   S    
C22   O9    A    
C1    C19   S    
C10   C11   A    
O10   Zn4   S    
O1    Zn4   S    
C1    O10   A    
C3    C20   S    
C8    H1    S    
C5    C17   S    
C20   C21   D    
C4    C6    S    
C18   C19   D    
O13   Zn3   S    
C14   H10   S    
O1    Zn3   S    
C14   C15   A    
C15   H2    S    
O2    Zn2   S    
C20   H6    S    
C1    O8    A    
O5    Zn1   S    
C18   C22   S    
C6    C16   T    
C3    O13   A    
C11   H8    S    
C2    O12   A    
C7    H3    S    
