data_mof_unit_63563.cif
_audit_creation_date              2012-12-10T16:54:34-0500
_audit_creation_method            fapswitch 2.2
_symmetry_space_group_name_H-M    P1
_symmetry_Int_Tables_number       1
_space_group_crystal_system       triclinic
_cell_length_a                    18.911657
_cell_length_b                    18.749808
_cell_length_c                    18.817196
_cell_angle_alpha                 109.266286
_cell_angle_beta                  109.908554
_cell_angle_gamma                 109.441581
_cell_volume                      5123.38467478

loop_
_atom_site_label
_atom_site_type_symbol
_atom_type_description
_atom_site_fract_x
_atom_site_fract_y
_atom_site_fract_z
_atom_type_partial_charge
C1    C     C_R   0.383262 0.380443 0.501920 0.926678
C2    C     C_2   0.184708 0.503376 0.181378 0.391667
C3    C     C_2   0.252920 0.518127 0.325477 -0.114189
C4    C     C_R   0.621998 0.502408 0.620525 0.861456
C5    C     C_2   0.298906 0.480355 0.310488 -0.253501
C6    C     C_2   0.740117 0.745394 0.418496 -0.113806
C7    C     C_2   0.819710 0.800489 0.488143 -0.251450
C8    C     C_2   0.680338 0.674267 0.421181 -0.264716
C9    C     C_2   0.671604 0.690086 0.491814 0.230416
C10   C     C_R   0.993447 0.380883 0.874267 0.922167
C11   C     C_R   0.874165 0.498155 0.872158 0.886178
C12   C     C_3   0.807097 0.499452 0.805849 0.092270
C13   C     C_R   0.995226 0.619170 0.114219 0.958141
C14   C     C_R   0.114904 0.500307 0.114502 0.800592
C15   C     C_R   0.996816 0.116487 0.618209 0.942007
C16   C     C_R   0.616190 0.619961 0.497658 0.866623
C17   C     C_R   0.118641 0.121200 0.501860 0.928693
C18   C     C_R   0.002928 0.883351 0.381707 0.924604
C19   C     C_R   0.881693 0.876850 0.496043 0.935426
C20   C     C_2   0.919060 0.177644 0.672541 -0.132818
C21   C     C_2   0.992136 0.175115 0.686223 -0.332078
C22   C     C_2   0.918409 0.239089 0.744176 -0.152795
C23   C     C_3   0.803360 0.583405 0.849178 0.394613
C24   C     C_2   0.990064 0.316787 0.803227 -0.349097
C25   C     C_2   0.076758 0.817416 0.324468 -0.148948
C26   C     C_2   0.005990 0.824091 0.312743 -0.335182
C27   C     C_2   0.074862 0.756792 0.249949 -0.161820
C28   C     C_R   0.375926 0.495425 0.379225 0.919095
C29   C     C_2   0.000385 0.682889 0.186912 -0.353256
C30   C     C_3   0.761847 0.505560 0.666340 -0.409978
C31   C     C_3   0.829862 0.500049 0.734137 -0.515702
C32   C     C_3   0.730380 0.583005 0.779461 -0.425576
C33   C     C_3   0.647644 0.418240 0.690901 -0.418756
C34   C     C_3   0.716686 0.417163 0.762113 -0.353226
C35   C     C_3   0.689278 0.502807 0.688209 0.110983
C36   C     C_3   0.828226 0.672549 0.985481 -0.340597
C37   C     C_3   0.250215 0.466519 0.103445 -0.331066
C38   C     C_2   0.258912 0.252843 0.578386 -0.156519
C39   C     C_2   0.182037 0.193357 0.505764 -0.331672
C40   C     C_2   0.320327 0.325180 0.578400 -0.159680
C41   C     C_2   0.324064 0.312019 0.505819 -0.336596
C42   C     C_2   0.180030 0.505549 0.251666 -0.280032
Cl1   Cl    Cl    0.712724 0.798061 0.574593 -0.601933
H1    H     H_    0.793343 0.567106 0.665849 0.166674
H2    H     H_    0.734540 0.450135 0.600496 0.202604
H3    H     H_    0.277398 0.433349 0.244493 0.177977
H4    H     H_    0.719721 0.751620 0.360534 0.165008
H5    H     H_    0.841497 0.787148 0.541275 0.179578
H6    H     H_    0.643750 0.608794 0.365220 0.149823
H7    H     H_    0.859281 0.132971 0.609864 0.172298
H8    H     H_    0.048857 0.212466 0.751364 0.153434
H9    H     H_    0.858575 0.222270 0.746161 0.168961
H10   H     H_    0.046510 0.337399 0.795356 0.156162
H11   H     H_    0.136603 0.858559 0.387326 0.168399
H12   H     H_    0.697257 0.415122 0.811307 0.219623
H13   H     H_    0.831730 0.439669 0.701771 0.187591
H14   H     H_    0.949824 0.790523 0.247784 0.152319
H15   H     H_    0.134912 0.770804 0.248836 0.169070
H16   H     H_    0.942937 0.663574 0.193257 0.160263
H17   H     H_    0.895109 0.556737 0.762742 0.193894
H18   H     H_    0.757693 0.644620 0.777822 0.138061
H19   H     H_    0.867006 0.640551 0.873052 0.067277
H20   H     H_    0.593919 0.414255 0.704415 0.166528
H21   H     H_    0.619264 0.359837 0.626728 0.185391
H22   H     H_    0.719616 0.356759 0.732851 0.158632
H23   H     H_    0.679477 0.581037 0.797105 0.211044
H24   H     H_    0.808174 0.712960 0.960746 0.164347
H25   H     H_    0.900099 0.702010 0.018456 0.167820
H26   H     H_    0.808992 0.672306 0.034932 0.196413
H27   H     H_    0.224080 0.481371 0.051103 0.189132
H28   H     H_    0.206961 0.397363 0.082442 0.133453
H29   H     H_    0.313967 0.473704 0.113190 0.195491
H30   H     H_    0.275294 0.250416 0.638448 0.164956
H31   H     H_    0.161752 0.201512 0.448935 0.157993
H32   H     H_    0.364320 0.387782 0.638405 0.164423
H33   H     H_    0.287365 0.246968 0.449087 0.157791
H34   H     H_    0.124020 0.502988 0.257304 0.128906
H35   H     H_    0.268301 0.558015 0.391388 0.164833
O1    O     O_R   0.410160 0.358490 0.449530 -0.625656
O2    O     O_R   0.947260 0.090430 0.537750 -0.614263
O3    O     O_R   0.142120 0.090460 0.551650 -0.619996
O4    O     O_R   0.408940 0.460590 0.550490 -0.620575
O5    O     O_R   0.038780 0.090460 0.448320 -0.623254
O6    O     O_R   0.052740 0.909570 0.462250 -0.617404
O7    O     O_R   0.949410 0.909570 0.358910 -0.631254
O8    O     O_R   0.961220 0.909540 0.551680 -0.624145
O9    O     O_R   0.857880 0.909540 0.448350 -0.614593
O10   O     O_R   0.592130 0.448950 0.541040 -0.631346
O11   O     O_R   0.590910 0.551050 0.642000 -0.631895
O12   O     O_R   0.046300 0.460610 0.904690 -0.629983
O13   O     O_R   0.591060 0.539410 0.449510 -0.646991
O14   O     O_R   0.589840 0.641510 0.550470 -0.561526
O15   O     O_R   0.409090 0.448950 0.358000 -0.628820
O16   O     O_R   0.407870 0.551050 0.458960 -0.613565
O17   O     O_R   0.944170 0.358540 0.904780 -0.614620
O18   O     O_3   0.786709 0.585663 0.917848 -0.605155
O19   O     O_3   0.263467 0.525926 0.182858 -0.580594
O20   O     O_R   0.851630 0.449030 0.902680 -0.613883
O21   O     O_R   0.953760 0.551100 0.902590 -0.646183
O22   O     O_R   0.942140 0.539520 0.083620 -0.609979
O23   O     O_R   0.044270 0.641590 0.083530 -0.619174
O24   O     O_R   0.034680 0.449030 0.085720 -0.643964
O25   O     O_R   0.136800 0.551100 0.085630 -0.597022
O26   O     O_R   0.050590 0.090430 0.641090 -0.623543
Zn1   Zn    Zn3+2 0.500810 0.431830 0.432590 0.943838
Zn2   Zn    Zn3+2 0.499190 0.568170 0.567410 0.988055
Zn3   Zn    Zn3+2 0.926030 0.431910 0.994210 0.963619
Zn4   Zn    Zn3+2 0.062410 0.568220 0.994100 0.954265
Zn5   Zn    Zn3+2 0.069000 0.000000 0.569000 0.957803
Zn6   Zn    Zn3+2 0.931000 0.000000 0.431000 0.959010

loop_
_geom_bond_atom_site_label_1
_geom_bond_atom_site_label_2
_ccdc_geom_bond_type
C3    C42   S    
C27   C29   D    
O13   Zn1   S    
C30   H2    S    
C18   C26   S    
C19   O8    A    
C37   O19   S    
C36   H24   S    
O9    Zn6   S    
O21   Zn4   S    
C12   C23   S    
C30   C35   S    
C11   O20   A    
C13   C29   S    
C9    C16   S    
C32   H18   S    
C19   O9    A    
C30   C31   S    
C14   O24   A    
C23   O18   S    
O1    Zn1   S    
C28   O16   A    
C17   C39   S    
C39   H31   S    
C20   H7    S    
O15   Zn1   S    
C23   H19   S    
C29   H16   S    
C2    O19   S    
C8    C9    D    
O11   Zn2   S    
C18   O6    A    
O25   Zn4   S    
C31   H13   S    
O23   Zn4   S    
C4    C35   S    
C34   H12   S    
C37   H27   S    
C30   H1    S    
C34   H22   S    
C38   C39   D    
C9    Cl1   S    
C18   O7    A    
C6    H4    S    
C32   C35   S    
O8    Zn5   S    
C25   H11   S    
O7    Zn6   S    
C6    C8    S    
C10   C24   S    
C24   H10   S    
O20   Zn3   S    
C28   O15   A    
C17   O5    A    
C31   H17   S    
C5    C28   S    
C36   O18   S    
C15   O2    A    
C33   H20   S    
C33   C34   S    
O5    Zn6   S    
O24   Zn3   S    
O17   Zn3   S    
C16   O13   A    
C1    C41   S    
C40   C41   D    
C20   C22   S    
C16   O14   A    
C7    C19   S    
C37   H28   S    
C12   C31   S    
C15   O26   A    
C22   C24   D    
C12   C34   S    
C21   H8    S    
C36   H26   S    
C32   H23   S    
C4    O11   A    
O14   Zn2   S    
O16   Zn2   S    
O22   Zn3   S    
O3    Zn5   S    
C3    C5    D    
C27   H15   S    
C11   C12   S    
C36   H25   S    
C6    C7    D    
C4    O10   A    
C25   C27   S    
C5    H3    S    
O6    Zn5   S    
C40   H32   S    
C7    H5    S    
C13   O22   A    
C25   C26   D    
O12   Zn4   S    
C23   C32   S    
C41   H33   S    
C38   C40   S    
O10   Zn1   S    
C1    O4    A    
C14   O25   A    
O26   Zn5   S    
C10   O17   A    
C2    C42   D    
C33   H21   S    
C1    O1    A    
C11   O21   A    
C33   C35   S    
C22   H9    S    
C17   O3    A    
O4    Zn2   S    
C2    C14   S    
C26   H14   S    
C15   C21   S    
C20   C21   D    
C10   O12   A    
C42   H34   S    
C37   H29   S    
O2    Zn6   S    
C3    H35   S    
C13   O23   A    
C8    H6    S    
C38   H30   S    
