data_mof_unit_30123.cif
_audit_creation_date              2012-12-11T19:49:37-0500
_audit_creation_method            fapswitch 2.2
_symmetry_space_group_name_H-M    P1
_symmetry_Int_Tables_number       1
_space_group_crystal_system       triclinic
_cell_length_a                    8.196549
_cell_length_b                    15.241222
_cell_length_c                    18.683212
_cell_angle_alpha                 101.300011
_cell_angle_beta                  91.750541
_cell_angle_gamma                 99.737253
_cell_volume                      2250.88687344

loop_
_atom_site_label
_atom_site_type_symbol
_atom_type_description
_atom_site_fract_x
_atom_site_fract_y
_atom_site_fract_z
_atom_type_partial_charge
Ba1   Ba    Ba6+2 0.853520 0.540910 0.466490 1.687751
Ba2   Ba    Ba6+2 0.336320 0.459170 0.533520 1.695531
C1    C     C_3   0.725537 0.864340 0.308248 -0.214983
C2    C     C_R   0.879538 0.428902 0.095201 0.034405
C3    C     C_R   0.712008 0.395407 0.072066 -0.086193
C4    C     C_3   0.139920 0.723625 0.269467 0.351601
C5    C     C_R   0.647001 0.408117 0.005421 -0.093699
C6    C     C_R   0.749309 0.452096 0.959377 0.032810
C7    C     C_R   0.917994 0.485244 0.981560 0.013728
C8    C     C_R   0.685813 0.461809 0.891176 -0.093585
C9    C     C_R   0.790394 0.498751 0.841731 -0.071905
C10   C     C_R   0.961384 0.531448 0.863789 0.001509
C11   C     C_R   0.022932 0.526755 0.934579 0.001136
C12   C     C_3   0.626516 0.768774 0.281886 0.958244
C13   C     C_R   0.732606 0.496935 0.768798 0.068074
C14   C     C_R   0.847228 0.526376 0.720567 -0.259053
C15   C     C_R   0.016277 0.555978 0.740179 -0.032066
C16   C     C_3   0.104080 0.738541 0.192063 0.326057
C17   C     C_R   0.073094 0.564437 0.814119 -0.037934
C18   C     C_R   0.149054 0.511439 0.074104 -0.018422
C19   C     C_R   0.210637 0.506575 0.144884 -0.026297
C20   C     C_R   0.105550 0.461976 0.191406 -0.044254
C21   C     C_R   0.944393 0.417863 0.162901 -0.035910
C22   C     C_R   0.238178 0.602963 0.839774 -0.056682
C23   C     C_3   0.454812 0.314064 0.309170 0.310114
C24   C     C_R   0.297911 0.600319 0.910288 0.023881
C25   C     C_R   0.191269 0.560264 0.957387 0.015367
C26   C     C_R   0.253489 0.553983 0.027427 0.005120
C27   C     C_R   0.464551 0.635370 0.933841 -0.099797
C28   C     C_3   0.181601 0.751371 0.632738 0.316229
C29   C     C_R   0.525380 0.630253 0.003291 -0.075449
C30   C     C_R   0.420973 0.589555 0.050332 0.037411
C31   C     C_R   0.377215 0.546756 0.168822 -0.041226
C32   C     C_R   0.481774 0.584901 0.120047 -0.030010
C33   C     C_R   0.433579 0.549126 0.241327 -0.010562
C34   C     C_3   0.425751 0.285525 0.226469 -0.398854
C35   C     C_R   0.325764 0.510952 0.288515 -0.297338
C36   C     C_R   0.164426 0.465249 0.265035 0.045905
C37   C     C_R   0.862813 0.167698 0.541153 0.033499
C38   C     C_R   0.799648 0.073359 0.529693 -0.046330
C39   C     C_R   0.659638 0.886050 0.517357 -0.047624
C40   C     C_3   0.287628 0.846060 0.648387 0.216634
C41   C     C_R   0.814225 0.924276 0.554978 -0.030940
C42   C     C_R   0.887188 0.013872 0.556139 -0.105986
C43   C     C_R   0.586586 0.792945 0.512579 0.041605
C44   C     C_R   0.432255 0.760336 0.474018 -0.249532
C45   C     C_3   0.010600 0.163059 0.709917 0.227857
C46   C     C_R   0.616540 0.190841 0.475156 0.012985
C47   C     C_R   0.552273 0.096507 0.463249 -0.031825
C48   C     C_R   0.642439 0.037883 0.492169 0.012679
C49   C     C_R   0.400280 0.059051 0.423541 -0.072456
C50   C     C_R   0.333927 0.967309 0.415625 -0.119853
C51   C     C_R   0.417456 0.908864 0.446524 -0.014183
C52   C     C_3   0.953358 0.254587 0.368919 0.307699
C53   C     C_R   0.574968 0.943569 0.483793 0.004914
C54   C     C_R   0.345201 0.817501 0.443317 0.028252
C55   C     C_R   0.768260 0.224831 0.515248 -0.189387
C56   C     C_3   0.042154 0.082384 0.741512 0.246652
C57   C     C_3   0.930806 0.151505 0.345881 -0.384186
C58   C     C_3   0.746670 0.698265 0.696055 0.945905
C59   C     C_3   0.820036 0.748325 0.771814 -0.337825
C60   C     C_3   0.332335 0.986097 0.617435 0.146513
C61   C     C_3   0.906596 0.978218 0.803816 0.153349
C62   C     C_3   0.825028 0.321905 0.701432 0.172219
C63   C     C_3   0.258753 0.881819 0.194489 0.220015
C64   C     C_3   0.553381 0.241716 0.707477 0.693231
C65   C     C_3   0.563399 0.166875 0.750083 -0.318738
C66   C     C_R   0.982174 0.475512 0.050441 0.004067
F1    F     F_    0.612003 0.634877 0.704082 -0.724777
F2    F     F_    0.530072 0.767743 0.219706 -0.788727
H1    H     H_    0.546178 0.753147 0.326292 -0.204128
H2    H     H_    0.798976 0.868179 0.360019 0.084334
H3    H     H_    0.940373 0.792110 0.767250 0.010844
H4    H     H_    0.842508 0.699349 0.806119 0.071982
H5    H     H_    0.732698 0.790109 0.799481 0.092670
H6    H     H_    0.639988 0.914054 0.318403 0.025120
H7    H     H_    0.339837 0.333585 0.332027 0.015284
H8    H     H_    0.557676 0.373486 0.321920 0.063365
H9    H     H_    0.319251 0.228197 0.211987 0.129243
H10   H     H_    0.398112 0.343289 0.203043 0.053356
H11   H     H_    0.538367 0.263816 0.202427 0.118977
H12   H     H_    0.419748 0.839014 0.642661 0.032284
H13   H     H_    0.810895 0.882773 0.266384 0.148760
H14   H     H_    0.194587 0.711288 0.154327 -0.005328
H15   H     H_    0.006052 0.217177 0.758778 0.062968
H16   H     H_    0.888097 0.143631 0.679271 0.038629
H17   H     H_    0.167653 0.098324 0.769813 0.049105
H18   H     H_    0.034062 0.022144 0.696264 0.005394
H19   H     H_    0.445179 0.218786 0.667254 0.081209
H20   H     H_    0.666361 0.189715 0.793299 0.136202
H21   H     H_    0.588116 0.104775 0.713305 0.072223
H22   H     H_    0.086857 0.652068 0.271339 -0.000203
H23   H     H_    0.272138 0.879045 0.705995 0.025819
H24   H     H_    0.446371 0.150719 0.776689 0.069257
H25   H     H_    0.630315 0.360590 0.106099 0.064096
H26   H     H_    0.516828 0.382407 0.989438 0.078149
H27   H     H_    0.805583 0.517127 0.663556 0.085459
H28   H     H_    0.554709 0.438565 0.876567 0.109622
H29   H     H_    0.864683 0.377756 0.193999 0.098820
H30   H     H_    0.322820 0.634616 0.805277 0.132247
H31   H     H_    0.548506 0.665952 0.898211 0.079823
H32   H     H_    0.654750 0.657553 0.020008 0.082697
H33   H     H_    0.611043 0.612518 0.135888 0.107898
H34   H     H_    0.835780 0.274112 0.387212 -0.010055
H35   H     H_    0.275642 0.734413 0.280919 -0.044440
H36   H     H_    0.370402 0.513854 0.344158 0.070222
H37   H     H_    0.883450 0.885940 0.583324 0.131367
H38   H     H_    0.011629 0.036898 0.580237 0.092188
H39   H     H_    0.214725 0.943590 0.385752 0.105113
H40   H     H_    0.328591 0.100258 0.399202 0.103599
H41   H     H_    0.374848 0.690399 0.471522 0.057979
H42   H     H_    0.816982 0.296887 0.523577 0.049954
H43   H     H_    0.980686 0.697746 0.170767 0.063306
H44   H     H_    0.200121 0.715028 0.576814 0.028951
H45   H     H_    0.050774 0.277718 0.414314 0.072667
H46   H     H_    0.052615 0.760706 0.639003 0.018709
H47   H     H_    0.300198 0.025426 0.576723 0.105089
H48   H     H_    0.467298 0.985094 0.616858 0.029615
H49   H     H_    0.305820 0.021989 0.672003 0.012889
H50   H     H_    0.028549 0.961245 0.818539 0.028869
H51   H     H_    0.845390 0.930212 0.753944 0.055637
H52   H     H_    0.825735 0.970837 0.849584 0.077092
H53   H     H_    0.821433 0.341732 0.761562 0.014702
H54   H     H_    0.831689 0.372399 0.667217 0.021675
H55   H     H_    0.947581 0.307663 0.695308 0.041612
H56   H     H_    0.826978 0.126008 0.303305 0.126468
H57   H     H_    0.328153 0.854961 0.147254 0.081187
H58   H     H_    0.328364 0.884679 0.247118 0.068790
H59   H     H_    0.248401 0.952655 0.191493 0.044762
H60   H     H_    0.902886 0.119058 0.393192 0.058289
H61   H     H_    0.046470 0.131760 0.323590 0.122905
H62   H     H_    0.842422 0.665369 0.667016 -0.136363
O1    O     O_2   0.871960 0.437280 0.322960 -0.466688
O2    O     O_2   0.195267 0.182573 0.533065 -0.490335
O3    O     O_3   0.141229 0.194697 0.668143 -0.643556
O4    O     O_3   0.121410 0.444460 0.412450 -0.499126
O5    O     O_3   0.580430 0.613240 0.540320 -0.452584
O6    O     O_2   0.337390 0.273050 0.457610 -0.457969
O7    O     O_3   0.495567 0.240878 0.336954 -0.647755
O8    O     O_2   0.376657 0.451854 0.749864 -0.469379
O9    O     O_3   0.527306 0.319482 0.758460 -0.647398
O10   O     O_3   0.661450 0.607570 0.372550 -0.474882
O11   O     O_2   0.770314 0.538933 0.247729 -0.502204
O12   O     O_3   0.694408 0.759345 0.658123 -0.677504
O13   O     O_3   0.997053 0.292109 0.308368 -0.640822
O14   O     O_3   0.736501 0.707644 0.264057 -0.589937
O15   O     O_2   0.852310 0.726980 0.542430 -0.495888
O16   O     O_3   0.084010 0.657370 0.410280 -0.482130
O17   O     O_2   0.007580 0.817721 0.458402 -0.456480
O18   O     O_3   0.237597 0.897587 0.599473 -0.668777
O19   O     O_3   0.923266 0.067968 0.793171 -0.657150
O20   O     O_3   0.697759 0.251079 0.667628 -0.721764
O21   O     O_3   0.097431 0.830669 0.191541 -0.626272
O22   O     O_3   0.069523 0.784178 0.320797 -0.582735
O23   O     O_2   0.317750 0.562750 0.677090 -0.360048
O24   O     O_3   0.068300 0.555620 0.587560 -0.505602
O25   O     O_3   0.528270 0.392500 0.627460 -0.447897
O26   O     O_3   0.227192 0.706616 0.686480 -0.659951
O27   O     O_3   0.609290 0.386840 0.459690 -0.480434
O28   O     O_3   0.105700 0.342700 0.589730 -0.476135
P1    P     P_3+3 0.039430 0.410940 0.333230 0.966745
P2    P     P_3+3 0.676770 0.715000 0.563590 1.004736
P3    P     P_3+3 0.128093 0.771536 0.408454 0.981982
P4    P     P_3+3 0.150290 0.589140 0.666780 1.008670
P5    P     P_3+3 0.072076 0.221998 0.585160 0.944375
P6    P     P_3+3 0.647751 0.600380 0.278940 0.966828
P7    P     P_3+3 0.518170 0.271475 0.432546 0.942462
P8    P     P_3+3 0.537995 0.419729 0.724068 1.050292

loop_
_geom_bond_atom_site_label_1
_geom_bond_atom_site_label_2
_ccdc_geom_bond_type
O8    P8    D    
C21   H29   S    
C57   H60   S    
Ba2   O23   S    
C40   H23   S    
C12   F2    S    
C12   H1    S    
C40   H12   S    
C43   P2    S    
C56   H17   S    
C58   H62   S    
C46   C55   A    
C64   O9    S    
C28   H46   S    
C43   C44   A    
C59   H5    S    
C57   H56   S    
C5    H26   S    
C54   P3    S    
C57   H61   S    
C24   C25   A    
C62   O20   S    
C23   H7    S    
C45   H15   S    
C52   H34   S    
C23   O7    S    
C22   C24   A    
O5    P2    S    
C31   C33   A    
C4    H22   S    
C14   H27   S    
C55   H42   S    
C19   C31   A    
C13   C14   A    
C20   C36   A    
C33   P6    S    
C16   H43   S    
Ba1   Ba2   S    
C8    H28   S    
C7    C11   A    
C39   C53   A    
C60   H47   S    
C63   O21   S    
Ba1   O10   S    
C3    H25   S    
C9    C13   A    
C36   P1    S    
C6    C7    A    
C47   C49   A    
C65   H24   S    
C16   H14   S    
O17   P3    D    
Ba1   O4    S    
O26   P4    S    
C52   C57   S    
C45   O3    S    
C51   C53   A    
C64   C65   S    
O14   P6    S    
Ba1   P1    S    
C44   H41   S    
C39   C41   A    
Ba1   O1    S    
O25   P8    S    
C61   H51   S    
C64   H19   S    
O4    P1    S    
C42   H38   S    
C4    C16   S    
C23   H8    S    
Ba2   O6    S    
C63   H58   S    
O22   P3    S    
Ba1   O27   S    
C34   H10   S    
Ba2   P4    S    
C37   C38   A    
C3    C5    A    
C2    C21   A    
C14   C15   A    
C18   C26   A    
C59   H3    S    
C62   H54   S    
O15   P2    D    
C65   H20   S    
Ba2   O4    S    
C49   C50   A    
O1    P1    D    
C58   C59   S    
C30   C32   A    
C37   P5    S    
Ba1   O24   S    
C41   C42   A    
C29   H32   S    
O11   P6    D    
C64   O20   S    
C35   C36   A    
C15   P4    S    
O10   P6    S    
C29   C30   A    
C26   C30   A    
C34   H11   S    
C52   H45   S    
C65   H21   S    
C31   C32   A    
O3    P5    S    
O2    P5    D    
C27   H31   S    
C41   H37   S    
O28   P5    S    
C10   C11   A    
O7    P7    S    
C1    H6    S    
C16   O21   S    
C61   O19   S    
C60   H49   S    
C4    O22   S    
C1    C12   S    
C52   O13   S    
C58   F1    S    
C46   C47   A    
Ba1   P2    S    
C47   C48   A    
C49   H40   S    
O6    P7    D    
C1    H13   S    
O23   P4    D    
C13   P8    S    
Ba1   O15   S    
Ba2   O27   S    
C63   H57   S    
C61   H52   S    
Ba1   O5    S    
C56   O19   S    
C33   C35   A    
C2    C66   A    
C28   H44   S    
C51   C54   A    
C28   O26   S    
O9    P8    S    
Ba2   O24   S    
C60   O18   S    
O12   P2    S    
C22   H30   S    
O16   P3    S    
C17   C22   A    
C18   C66   A    
C6    C8    A    
C28   C40   S    
C32   H33   S    
C2    C3    A    
C34   H9    S    
C56   H18   S    
C63   H59   S    
C9    C10   A    
C59   H4    S    
Ba2   O5    S    
C62   H53   S    
C12   O14   S    
C48   C53   A    
C45   H16   S    
C7    C66   A    
C35   H36   S    
C27   C29   A    
C58   O12   S    
C45   C56   S    
C61   H50   S    
C46   P7    S    
O13   P1    S    
C50   H39   S    
Ba2   O25   S    
C38   C48   A    
C10   C17   A    
C15   C17   A    
C4    H35   S    
O27   P7    S    
C1    H2    S    
C40   O18   S    
C60   H48   S    
C5    C6    A    
C8    C9    A    
C23   C34   S    
C38   C42   A    
C18   C19   A    
O24   P4    S    
C24   C27   A    
Ba2   O28   S    
C62   H55   S    
C44   C54   A    
C25   C26   A    
C39   C43   A    
C20   C21   A    
C11   C25   A    
Ba1   O16   S    
C19   C20   A    
C50   C51   A    
C37   C55   A    
