data_mof_unit_50942.cif
_audit_creation_date              2012-12-10T19:04:45-0500
_audit_creation_method            fapswitch 2.2
_symmetry_space_group_name_H-M    P1
_symmetry_Int_Tables_number       1
_space_group_crystal_system       triclinic
_cell_length_a                    15.84354
_cell_length_b                    10.804221
_cell_length_c                    9.651484
_cell_angle_alpha                 89.042518
_cell_angle_beta                  88.930924
_cell_angle_gamma                 92.010233
_cell_volume                      1650.55965351

loop_
_atom_site_label
_atom_site_type_symbol
_atom_type_description
_atom_site_fract_x
_atom_site_fract_y
_atom_site_fract_z
_atom_type_partial_charge
C1    C     C_R   0.499838 0.262506 0.500476 0.849471
C2    C     C_3   0.082844 0.493693 0.493991 -0.022197
C3    C     C_3   0.973960 0.591863 0.565674 0.161854
C4    C     C_3   0.916823 0.495980 0.493801 -0.014291
C5    C     C_3   0.031726 0.600183 0.434916 0.123974
C6    C     C_3   0.973468 0.504126 0.362902 0.105408
C7    C     C_1   0.174538 0.493106 0.498083 0.092568
C8    C     C_1   0.825145 0.497575 0.494925 0.070902
C9    C     C_R   0.427805 0.057187 0.525285 0.020297
C10   C     C_R   0.501711 0.128613 0.497738 -0.146359
C11   C     C_R   0.573210 0.068895 0.444786 0.154630
C12   C     C_R   0.340033 0.498021 0.500784 0.855944
C13   C     C_R   0.572877 0.939051 0.442348 -0.217201
C14   C     C_R   0.502484 0.869727 0.494464 -0.132317
C15   C     C_R   0.429234 0.929833 0.527824 0.057303
C16   C     C_3   0.372714 0.917409 0.652589 -0.034622
C17   C     C_3   0.365913 0.058070 0.643372 -0.003920
C18   C     C_R   0.560570 0.565482 0.069998 0.221354
C19   C     C_R   0.445133 0.424300 0.078092 0.218737
C20   C     C_R   0.442831 0.428592 0.930158 0.190135
C21   C     C_R   0.561060 0.564700 0.923661 0.228059
C22   C     C_3   0.579710 0.701094 0.915449 -0.462348
C23   C     C_R   0.502125 0.736922 0.498782 0.813247
C24   C     C_3   0.579294 0.701410 0.072838 -0.464960
C25   C     C_R   0.659904 0.500519 0.498909 0.815731
C26   C     C_3   0.967699 0.389128 0.552764 -0.203815
C27   C     C_3   0.025685 0.397820 0.421812 0.175273
C28   C     C_1   0.250152 0.494495 0.501082 -0.064257
C29   C     C_1   0.749597 0.499186 0.496431 -0.107465
C30   C     C_3   0.026073 0.485481 0.625166 -0.195775
Cu1   Cu    Cu3+1 0.500000 0.499980 0.640670 0.997933
Cu2   Cu    Cu3+1 0.500000 0.500020 0.359330 1.013221
H1    H     H_    0.408068 0.887556 0.745214 0.124424
H2    H     H_    0.642996 0.723720 0.868142 0.215723
H3    H     H_    0.527171 0.753450 0.870994 0.215524
N1    N     N_R   0.500530 0.500930 0.147930 -0.227559
N2    N     N_R   0.500530 0.500890 0.852020 -0.222838
O1    O     O_R   0.500000 0.319640 0.618810 -0.571703
O2    O     O_R   0.500010 0.319680 0.381230 -0.543258
O3    O     O_R   0.379070 0.499970 0.618770 -0.546554
O4    O     O_R   0.379080 0.500010 0.381190 -0.555801
O5    O     O_R   0.499990 0.680320 0.618770 -0.587633
O6    O     O_R   0.500000 0.680360 0.381190 -0.579187
O7    O     O_R   0.620920 0.499990 0.618810 -0.572136
O8    O     O_R   0.620930 0.500030 0.381230 -0.562654
I1    I     I_    0.066964 0.242616 0.307520 -0.138948
I2    I     I_    0.249293 0.129000 0.568243 -0.168660
H4    H     H_    0.393253 0.103370 0.735034 0.146700
I3    I     I_    0.360119 0.293407 0.186949 -0.194227
I4    I     I_    0.339714 0.330343 0.840047 -0.244569
H5    H     H_    0.642381 0.723720 0.116305 0.213748
H6    H     H_    0.526495 0.753620 0.118016 0.226223
H7    H     H_    0.940305 0.302352 0.600893 0.200179
I5    I     I_    0.928134 0.518238 0.155678 -0.221416
I6    I     I_    0.082425 0.766798 0.337483 -0.132980
I7    I     I_    0.931715 0.743882 0.684391 -0.214802
H8    H     H_    0.048724 0.478077 0.733062 0.206995
I8    I     I_    0.685210 0.167412 0.377688 -0.304725
H9    H     H_    0.628565 0.892718 0.406466 0.164940
I9    I     I_    0.262095 0.802156 0.621875 -0.221321

loop_
_geom_bond_atom_site_label_1
_geom_bond_atom_site_label_2
_ccdc_geom_bond_type
C14   C23   S    
C12   O3    A    
C3    C30   S    
C4    C26   S    
Cu2   O4    S    
C17   H4    S    
C24   H6    S    
C12   O4    A    
C13   H9    S    
Cu1   O5    S    
C20   N2    A    
C16   H1    S    
C11   I8    S    
C17   I2    S    
Cu2   O8    S    
C19   I3    S    
C6    C27   S    
Cu1   O1    S    
C2    C30   S    
C4    C8    S    
C10   C11   A    
C24   H5    S    
C9    C15   A    
C21   N2    A    
C21   C22   S    
C22   H3    S    
C11   C13   A    
C3    I7    S    
C26   C27   S    
C2    C27   S    
C23   O5    A    
C1    O1    A    
C12   C28   S    
C18   C24   S    
C8    C29   T    
Cu2   N1    S    
C27   I1    S    
C9    C17   S    
Cu2   O6    S    
C6    I5    S    
C26   C30   S    
C19   N1    A    
C25   C29   S    
C5    C6    S    
C22   H2    S    
C22   C24   S    
C2    C5    S    
Cu1   O7    S    
C1    O2    A    
C19   C20   A    
C15   C16   S    
C18   C21   A    
C30   H8    S    
C25   O8    A    
C26   H7    S    
C23   O6    A    
Cu1   O3    S    
C3    C4    S    
C4    C6    S    
C9    C10   A    
Cu2   O2    S    
C25   O7    A    
C14   C15   A    
C20   I4    S    
C13   C14   A    
C16   I9    S    
C18   N1    A    
C1    C10   S    
C5    I6    S    
Cu1   Cu2   S    
C7    C28   T    
C2    C7    S    
Cu1   N2    S    
C16   C17   S    
C3    C5    S    
