data_mof_unit_52771.cif
_audit_creation_date              2012-10-26T20:58:59-0400
_audit_creation_method            fapswitch 2.2
_symmetry_space_group_name_H-M    P1
_symmetry_Int_Tables_number       1
_space_group_crystal_system       triclinic
_cell_length_a                    27.898848
_cell_length_b                    10.605235
_cell_length_c                    9.466359
_cell_angle_alpha                 88.797371
_cell_angle_beta                  90.13949
_cell_angle_gamma                 90.661076
_cell_volume                      2800.03789395

loop_
_atom_site_label
_atom_site_type_symbol
_atom_type_description
_atom_site_fract_x
_atom_site_fract_y
_atom_site_fract_z
_atom_type_partial_charge
Br1   Br    Br    0.237696 0.316600 0.289595 -0.281463
Br2   Br    Br    0.761887 0.677296 0.718558 -0.284194
C1    C     C_R   0.500229 0.259579 0.501033 0.618844
C2    C     C_R   0.872963 0.407338 0.585884 0.027532
C3    C     C_R   0.354093 0.497832 0.500270 -0.038140
C4    C     C_R   0.645938 0.502147 0.499852 -0.042275
C5    C     C_R   0.974749 0.413344 0.591033 0.019181
C6    C     C_R   0.025316 0.584181 0.406821 0.018849
C7    C     C_R   0.974321 0.584009 0.409123 0.018718
C8    C     C_R   0.025688 0.419639 0.595688 0.018936
C9    C     C_R   0.949354 0.497214 0.499679 0.036730
C10   C     C_R   0.050682 0.503346 0.501685 0.036757
C11   C     C_R   0.948036 0.325080 0.674172 -0.133870
C12   C     C_R   0.499897 0.740434 0.498961 0.623794
C13   C     C_R   0.052128 0.662250 0.312083 -0.133770
C14   C     C_R   0.898250 0.322582 0.671687 -0.099393
C15   C     C_R   0.101917 0.663197 0.313001 -0.098186
C16   C     C_R   0.407454 0.498519 0.499999 0.617815
C17   C     C_R   0.592556 0.501365 0.500001 0.617708
C18   C     C_R   0.052790 0.345465 0.692220 -0.133745
C19   C     C_R   0.947119 0.668426 0.324211 -0.133468
C20   C     C_3   0.538149 0.040647 0.574398 -0.088892
C21   C     C_3   0.462027 0.959402 0.425577 -0.086002
C22   C     C_3   0.540752 0.961100 0.439684 -0.064783
C23   C     C_R   0.101698 0.506047 0.502373 -0.025103
C24   C     C_3   0.459421 0.038936 0.560291 -0.069780
C25   C     C_3   0.500021 0.877516 0.498197 0.035325
C26   C     C_3   0.500153 0.122519 0.501783 0.039210
C27   C     C_3   0.497417 0.954803 0.633148 -0.063222
C28   C     C_3   0.502759 0.045240 0.366832 -0.061605
C29   C     C_3   0.520384 0.599540 0.045452 0.336848
C30   C     C_3   0.479602 0.400469 0.954526 0.333398
C31   C     C_3   0.477240 0.596183 0.946239 -0.012028
C32   C     C_3   0.522732 0.403784 0.053746 -0.012073
C33   C     C_3   0.543410 0.504248 0.948935 -0.001511
C34   C     C_R   0.898338 0.494436 0.499094 -0.025462
C35   C     C_3   0.456576 0.495722 0.051075 -0.002892
C36   C     C_R   0.177747 0.431182 0.595096 0.434962
C37   C     C_R   0.822240 0.575890 0.414395 0.436578
C38   C     C_R   0.177488 0.586026 0.408862 0.434684
C39   C     C_R   0.822598 0.407287 0.584957 0.433493
C40   C     C_R   0.278980 0.587307 0.581058 -0.076223
C41   C     C_R   0.721163 0.413478 0.418763 -0.071053
C42   C     C_R   0.328951 0.587088 0.581817 0.173405
C43   C     C_R   0.671184 0.414040 0.416972 0.186740
C44   C     C_R   0.327033 0.409706 0.418691 0.150178
C45   C     C_R   0.127431 0.428415 0.597492 0.027158
C46   C     C_R   0.672905 0.588881 0.583510 0.196461
C47   C     C_R   0.276528 0.418962 0.413045 0.219652
C48   C     C_R   0.723357 0.578859 0.590421 0.234109
C49   C     C_R   0.252958 0.505659 0.496868 0.158180
C50   C     C_R   0.747061 0.493665 0.505023 0.153098
C51   C     C_R   0.872549 0.578968 0.411951 0.026196
C52   C     C_R   0.102557 0.349697 0.692577 -0.097192
C53   C     C_R   0.897351 0.665565 0.325630 -0.096987
C54   C     C_R   0.127132 0.586130 0.407718 0.027583
Cu1   Cu    Cu3+1 0.500010 0.499990 0.643150 1.151793
Cu2   Cu    Cu3+1 0.499990 0.500010 0.356850 1.156253
H1    H     H_    0.569196 0.076795 0.635648 0.176738
H2    H     H_    0.878339 0.732430 0.258669 0.180704
H3    H     H_    0.740687 0.349398 0.353217 0.174312
H4    H     H_    0.259591 0.652443 0.645697 0.187728
H5    H     H_    0.879608 0.253517 0.737966 0.177512
H6    H     H_    0.120619 0.724662 0.238121 0.179356
H7    H     H_    0.964390 0.254668 0.741434 0.117207
H8    H     H_    0.035900 0.722944 0.233530 0.117210
H9    H     H_    0.036767 0.283871 0.771043 0.117747
H10   H     H_    0.963017 0.739977 0.256442 0.117446
H11   H     H_    0.574060 0.926762 0.390318 0.221610
H12   H     H_    0.430983 0.923266 0.364314 0.188833
H13   H     H_    0.426100 0.073258 0.609606 0.203001
H14   H     H_    0.324584 0.133076 0.461217 0.345719
H15   H     H_    0.663278 0.911426 0.708835 0.377077
H16   H     H_    0.583780 0.898140 0.984336 0.378683
H17   H     H_    0.416120 0.102121 0.015727 0.389103
H18   H     H_    0.696181 0.216883 0.175084 0.363351
H19   H     H_    0.314505 0.863740 0.636979 0.350669
H20   H     H_    0.495194 0.915091 0.742453 0.205198
H21   H     H_    0.504980 0.084954 0.257526 0.204871
H22   H     H_    0.459875 0.680088 0.897607 0.195015
H23   H     H_    0.540006 0.319719 0.102321 0.194104
H24   H     H_    0.579955 0.507637 0.903194 0.198617
H25   H     H_    0.420019 0.491755 0.096832 0.197976
H26   H     H_    0.121512 0.290405 0.768177 0.181728
N1    N     N_R   0.201586 0.508358 0.500792 -0.383359
N2    N     N_R   0.798446 0.491643 0.500998 -0.383432
N3    N     N_3   0.500040 0.499970 0.858290 -0.303631
N4    N     N_3   0.499960 0.500030 0.141710 -0.302700
O1    O     O_R   0.500020 0.316850 0.620870 -0.456830
O2    O     O_2   0.797219 0.656814 0.331539 -0.433601
O3    O     O_2   0.797938 0.324576 0.668039 -0.452638
O4    O     O_2   0.202207 0.662001 0.318277 -0.445445
O5    O     O_2   0.352369 0.313817 0.172443 -0.157767
O6    O     O_2   0.404328 0.258940 0.372239 -0.299696
O7    O     O_3   0.322155 0.148926 0.357950 -0.436333
O8    O     O_2   0.596165 0.741233 0.626275 -0.298272
O9    O     O_2   0.646003 0.681346 0.830000 -0.207130
O10   O     O_3   0.678731 0.847971 0.649168 -0.439298
O11   O     O_2   0.508560 0.831042 0.147423 -0.325530
O12   O     O_R   0.499980 0.683150 0.379130 -0.456263
O13   O     O_2   0.584275 0.724521 0.207639 -0.237046
O14   O     O_3   0.572508 0.814524 0.952371 -0.471460
O15   O     O_2   0.415724 0.275767 0.791980 -0.250143
O16   O     O_2   0.491294 0.168818 0.852829 -0.328870
O17   O     O_3   0.427194 0.185999 0.047429 -0.454156
O18   O     O_2   0.600385 0.243169 0.380989 -0.297488
O19   O     O_2   0.626161 0.369100 0.174418 -0.290287
O20   O     O_3   0.680798 0.187554 0.264272 -0.471754
O21   O     O_2   0.373047 0.637266 0.823997 -0.229322
O22   O     O_2   0.400398 0.757359 0.614893 -0.339769
O23   O     O_R   0.500000 0.316860 0.379090 -0.471911
O24   O     O_3   0.319564 0.817179 0.727522 -0.469402
O25   O     O_R   0.500000 0.683140 0.620910 -0.470192
O26   O     O_R   0.430270 0.500020 0.620880 -0.427172
O27   O     O_R   0.569730 0.499980 0.379120 -0.424096
O28   O     O_R   0.430250 0.500030 0.379090 -0.492119
O29   O     O_R   0.569750 0.499970 0.620910 -0.495289
O30   O     O_2   0.202721 0.356755 0.685470 -0.440631
S1    S     S_3+6 0.353671 0.282932 0.327930 0.080469
S2    S     S_3+6 0.646200 0.714989 0.675091 0.076411
S3    S     S_3+6 0.546961 0.745735 0.095241 0.057033
S4    S     S_3+6 0.452932 0.254423 0.904655 0.053886
S5    S     S_3+6 0.642710 0.302592 0.307127 0.032224
S6    S     S_3+6 0.357498 0.700796 0.688569 0.034640

loop_
_geom_bond_atom_site_label_1
_geom_bond_atom_site_label_2
_ccdc_geom_bond_type
C5    C8    A    
C2    C34   A    
C20   C27   S    
C25   C27   S    
C38   C54   A    
C18   H9    S    
C22   C25   S    
O19   S5    D    
C16   O26   A    
C52   H26   S    
C46   S2    S    
C11   H7    S    
C43   S5    S    
C35   N4    S    
C5    C9    A    
C4    C17   S    
C44   C47   A    
Cu1   O1    S    
C9    C34   A    
C4    C43   A    
O24   S6    S    
C15   H6    S    
C41   C50   A    
O16   S4    D    
C2    C39   A    
C32   C33   S    
C21   C24   S    
C34   C51   A    
Br2   C48   S    
O22   S6    D    
H14   O7    S    
C33   N3    S    
C27   H20   S    
C8    C18   A    
C6    C7    A    
C47   C49   A    
O18   S5    D    
C44   S1    S    
C48   C50   A    
C23   C54   A    
C14   H5    S    
C21   C25   S    
C12   C25   S    
O14   S3    S    
C23   C45   A    
C37   O2    S    
C40   C49   A    
H16   O14   S    
C46   C48   A    
H18   O20   S    
C20   C26   S    
C53   H2    S    
Cu2   O28   S    
C24   H13   S    
C21   H12   S    
C49   N1    S    
C40   C42   A    
C8    C10   A    
C33   H24   S    
C22   H11   S    
C22   C28   S    
C51   C53   A    
H15   O10   S    
C36   N1    A    
Cu2   O23   S    
C21   C28   S    
C30   S4    S    
Cu2   O12   S    
C29   S3    S    
C18   C52   A    
C16   O28   A    
C20   H1    S    
C19   C53   A    
Cu1   O25   S    
C3    C16   S    
O7    S1    S    
C30   N3    S    
C42   S6    S    
C31   C35   S    
Cu1   N3    S    
C30   C32   S    
C38   N1    A    
C2    C14   A    
H19   O24   S    
C39   N2    A    
C41   C43   A    
O6    S1    D    
C17   O27   A    
C6    C10   A    
C29   C31   S    
O21   S6    D    
C32   N4    S    
C30   C35   S    
C38   O4    S    
O10   S2    S    
C7    C9    A    
C15   C54   A    
C36   C45   A    
C4    C46   A    
C45   C52   A    
C28   H21   S    
C32   H23   S    
C3    C42   A    
H17   O17   S    
C6    C13   A    
C19   H10   S    
Cu2   O27   S    
C20   C22   S    
O20   S5    S    
C41   H3    S    
Cu1   O29   S    
C13   C15   A    
C40   H4    S    
C1    C26   S    
C29   N4    S    
C39   O3    S    
O8    S2    D    
Cu2   N4    S    
C31   H22   S    
C12   O12   A    
Cu1   O26   S    
C12   O25   A    
C3    C44   A    
C24   C26   S    
O11   S3    D    
C10   C23   A    
C1    O1    A    
O9    S2    D    
C50   N2    S    
C31   N3    S    
C13   H8    S    
C7    C19   A    
Cu1   Cu2   S    
C37   C51   A    
C26   C28   S    
O17   S4    S    
C29   C33   S    
O13   S3    D    
C1    O23   A    
C36   O30   S    
C5    C11   A    
C17   O29   A    
C24   C27   S    
C11   C14   A    
C35   H25   S    
O5    S1    D    
C37   N2    A    
O15   S4    D    
Br1   C47   S    
