data_mof_unit_51293.cif
_audit_creation_date              2012-10-26T18:43:31-0400
_audit_creation_method            fapswitch 2.2
_symmetry_space_group_name_H-M    P1
_symmetry_Int_Tables_number       1
_space_group_crystal_system       triclinic
_cell_length_a                    10.737588
_cell_length_b                    10.812481
_cell_length_c                    9.563944
_cell_angle_alpha                 89.743106
_cell_angle_beta                  89.569044
_cell_angle_gamma                 90.516098
_cell_volume                      1110.28562001

loop_
_atom_site_label
_atom_site_type_symbol
_atom_type_description
_atom_site_fract_x
_atom_site_fract_y
_atom_site_fract_z
_atom_type_partial_charge
C1    C     C_R   0.497683 0.262377 0.500196 0.556584
C2    C     C_R   0.491024 0.935709 0.625496 0.026488
C3    C     C_3   0.584054 0.929580 0.740648 -0.278810
C4    C     C_R   0.259858 0.499865 0.500176 0.551403
C5    C     C_3   0.583556 0.069997 0.741057 -0.257212
C6    C     C_R   0.565911 0.587676 0.072407 0.144140
C7    C     C_R   0.425430 0.421776 0.076485 0.017314
C8    C     C_R   0.424853 0.421460 0.928214 0.320163
C9    C     C_R   0.565852 0.587742 0.925118 0.123927
C10   C     C_3   0.702917 0.609646 0.917819 -0.282234
C11   C     C_3   0.703119 0.608802 0.076213 -0.275082
C12   C     C_3   0.878203 0.500640 0.498924 0.049644
C13   C     C_R   0.498060 0.737597 0.499784 0.539238
C14   C     C_R   0.740154 0.500550 0.499522 0.536444
C15   C     C_3   0.069934 0.383744 0.576328 -0.226175
C16   C     C_3   0.926206 0.383143 0.574073 -0.241478
C17   C     C_3   0.072656 0.617138 0.574453 -0.236144
C18   C     C_3   0.072499 0.499777 0.347384 -0.229746
C19   C     C_3   0.121843 0.500125 0.499797 0.037462
C20   C     C_3   0.928826 0.616743 0.575352 -0.235563
C21   C     C_3   0.930070 0.502216 0.347062 -0.233758
C22   C     C_R   0.490639 0.062958 0.625811 0.064397
C23   C     C_R   0.485536 0.129135 0.500497 0.008501
C24   C     C_R   0.463433 0.064710 0.375517 -0.168552
C25   C     C_R   0.463834 0.935763 0.375222 -0.166728
C26   C     C_R   0.486209 0.870642 0.499919 0.000006
Cl1   Cl    Cl    0.325372 0.314462 0.847300 -0.658949
Cu1   Cu    Cu3+1 0.499990 0.499980 0.640670 0.995246
Cu2   Cu    Cu3+1 0.500010 0.500020 0.359330 0.923385
H1    H     H_    0.101710 0.382663 0.686723 0.184714
H2    H     H_    0.673644 0.112251 0.706847 0.124063
H3    H     H_    0.366995 0.357030 0.134130 0.141904
H4    H     H_    0.105457 0.298536 0.525379 0.125287
H5    H     H_    0.754335 0.530355 0.872634 0.147561
H6    H     H_    0.726884 0.701465 0.871890 0.115361
H7    H     H_    0.753345 0.528137 0.119389 0.145602
H8    H     H_    0.728092 0.699807 0.122318 0.121874
H9    H     H_    0.892026 0.298864 0.519446 0.110534
H10   H     H_    0.889863 0.378975 0.683326 0.126131
H11   H     H_    0.106819 0.620321 0.683998 0.137973
H12   H     H_    0.899337 0.587533 0.292317 0.118595
H13   H     H_    0.894658 0.617947 0.685338 0.120086
H14   H     H_    0.109099 0.581847 0.288880 0.132924
H15   H     H_    0.104898 0.415615 0.291608 0.132520
H16   H     H_    0.894367 0.420839 0.288185 0.125541
H17   H     H_    0.108113 0.701766 0.520056 0.112669
H18   H     H_    0.894580 0.702153 0.523461 0.107174
H19   H     H_    0.451640 0.113328 0.277295 0.140828
H20   H     H_    0.452322 0.887842 0.276882 0.139637
H21   H     H_    0.543889 0.887949 0.837655 0.143006
H22   H     H_    0.674418 0.890078 0.706044 0.125289
H23   H     H_    0.543025 0.109320 0.838290 0.175822
N1    N     N_R   0.500800 0.500930 0.147930 -0.261771
N2    N     N_R   0.500800 0.500890 0.852020 -0.221888
O1    O     O_R   0.500000 0.319640 0.618810 -0.442838
O2    O     O_R   0.500010 0.319680 0.381230 -0.521340
O3    O     O_R   0.317690 0.499960 0.618790 -0.454661
O4    O     O_R   0.317700 0.500000 0.381210 -0.519644
O5    O     O_R   0.499990 0.680320 0.618770 -0.501167
O6    O     O_R   0.500000 0.680360 0.381190 -0.505920
O7    O     O_R   0.682300 0.500000 0.618790 -0.519369
O8    O     O_R   0.682310 0.500040 0.381210 -0.510409

loop_
_geom_bond_atom_site_label_1
_geom_bond_atom_site_label_2
_ccdc_geom_bond_type
C4    O3    A    
C2    C22   A    
C20   H13   S    
C23   C24   A    
C5    H23   S    
C10   H6    S    
C13   O5    A    
Cu2   O2    S    
C18   H15   S    
C18   C21   S    
C9    C10   S    
Cu2   O6    S    
Cu1   O7    S    
C12   C20   S    
C6    C9    A    
C2    C3    S    
C1    O1    A    
C24   C25   A    
C7    C8    A    
C2    C26   A    
C13   O6    A    
Cu1   O3    S    
Cu2   O4    S    
C15   C19   S    
C10   H5    S    
Cu2   N1    S    
C21   H12   S    
C12   C21   S    
Cu1   Cu2   S    
C17   C19   S    
Cu1   O1    S    
C12   C14   S    
C1    C23   S    
C21   H16   S    
C22   C23   A    
C25   H20   S    
C13   C26   S    
C20   H18   S    
C10   C11   S    
C7    N1    A    
C16   H10   S    
C4    O4    A    
C15   C16   S    
C14   O8    A    
C3    C5    S    
C14   O7    A    
C17   C20   S    
C17   H17   S    
C15   H1    S    
C3    H21   S    
C18   C19   S    
Cu1   O5    S    
C8    N2    A    
C6    C11   S    
C11   H8    S    
C8    Cl1   S    
C3    H22   S    
Cu2   O8    S    
C11   H7    S    
Cu1   N2    S    
C7    H3    S    
C6    N1    A    
C16   H9    S    
C25   C26   A    
C18   H14   S    
C4    C19   S    
C9    N2    A    
C1    O2    A    
C5    C22   S    
C12   C16   S    
C15   H4    S    
C5    H2    S    
C17   H11   S    
C24   H19   S    
