data_mof_unit_35511.cif
_audit_creation_date              2012-12-10T20:27:53-0500
_audit_creation_method            fapswitch 2.2
_symmetry_space_group_name_H-M    P1
_symmetry_Int_Tables_number       1
_space_group_crystal_system       triclinic
_cell_length_a                    12.859033
_cell_length_b                    10.690011
_cell_length_c                    9.865517
_cell_angle_alpha                 90.138576
_cell_angle_beta                  97.191938
_cell_angle_gamma                 90.067001
_cell_volume                      1345.47045152

loop_
_atom_site_label
_atom_site_type_symbol
_atom_type_description
_atom_site_fract_x
_atom_site_fract_y
_atom_site_fract_z
_atom_type_partial_charge
C1    C     C_R   0.503389 0.260328 0.500307 0.967163
C2    C     C_R   0.559353 0.933118 0.403390 -0.265128
C3    C     C_R   0.511700 0.870903 0.504214 -0.104899
C4    C     C_R   0.298186 0.500247 0.473195 0.912752
C5    C     C_R   0.480857 0.936924 0.613658 0.044753
C6    C     C_3   0.386306 0.929446 0.689109 -0.158066
C7    C     C_3   0.385172 0.073186 0.686658 -0.208934
C8    C     C_R   0.443243 0.412868 0.061911 0.232973
C9    C     C_R   0.563203 0.578598 0.082499 -0.130560
C10   C     C_R   0.563224 0.578591 0.938514 -0.141354
C11   C     C_R   0.443054 0.412993 0.919276 0.215044
C12   C     C_R   0.028635 0.523616 0.560210 0.195488
C13   C     C_3   0.327023 0.396274 0.895590 -0.505785
C14   C     C_3   0.327529 0.395619 0.049338 -0.522002
C15   C     C_R   0.501389 0.739647 0.500476 0.879997
C16   C     C_R   0.701811 0.499426 0.526839 0.873242
C17   C     C_R   0.813958 0.500918 0.543287 -0.045374
C18   C     C_R   0.186046 0.497678 0.456966 -0.042448
C19   C     C_R   0.021903 0.438469 0.328937 -0.221424
C20   C     C_R   0.129698 0.449838 0.337490 -0.162711
C21   C     C_R   0.135524 0.536694 0.566667 -0.296487
C22   C     C_2   0.287423 0.130837 0.610252 0.460368
C23   C     C_R   0.971395 0.474256 0.440292 0.181019
C24   C     C_R   0.864347 0.462504 0.433197 -0.281778
C25   C     C_R   0.870473 0.546754 0.663698 -0.206656
C26   C     C_R   0.978266 0.558407 0.672052 -0.218399
C27   C     C_R   0.479635 0.063740 0.611140 0.036931
C28   C     C_R   0.513531 0.128531 0.502733 -0.057042
C29   C     C_R   0.561452 0.063276 0.402539 0.072959
H1    H     H_    0.820094 0.425152 0.341021 0.160800
H2    H     H_    0.831206 0.576752 0.749133 0.157417
H3    H     H_    0.978426 0.400546 0.236710 0.140336
H4    H     H_    0.021877 0.595568 0.764585 0.140393
H5    H     H_    0.168978 0.418245 0.252891 0.157581
H6    H     H_    0.179481 0.575988 0.657865 0.145205
H7    H     H_    0.591662 0.881629 0.323601 0.159552
H8    H     H_    0.218131 0.139980 0.661870 0.060324
H9    H     H_    0.571243 0.099764 0.203648 0.186438
H10   H     H_    0.687331 0.099409 0.305264 0.176279
H11   H     H_    0.303307 0.773260 0.619893 0.194003
H12   H     H_    0.404440 0.890063 0.793688 0.161340
H13   H     H_    0.292447 0.890924 0.506129 0.219117
H14   H     H_    0.406100 0.115087 0.789707 0.103472
H15   H     H_    0.612626 0.643858 0.145067 0.144551
H16   H     H_    0.612679 0.643787 0.892382 0.144362
H17   H     H_    0.286014 0.478771 0.846143 0.217016
H18   H     H_    0.303860 0.304977 0.847056 0.187294
H19   H     H_    0.286856 0.477770 0.087520 0.213804
H20   H     H_    0.305469 0.303660 0.089778 0.210963
N1    N     N_R   0.499290 0.499140 0.142710 -0.108524
N2    N     N_R   0.499290 0.499180 0.857070 -0.108747
N3    N     N_3   0.609088 0.127765 0.298914 -0.440422
N4    N     N_3   0.294852 0.870135 0.610097 -0.445931
O1    O     O_R   0.500010 0.316790 0.614690 -0.631982
O2    O     O_R   0.500000 0.316760 0.385350 -0.589668
O3    O     O_R   0.346360 0.499990 0.595720 -0.628781
O4    O     O_R   0.346350 0.499960 0.366370 -0.623516
O5    O     O_R   0.500000 0.683240 0.614650 -0.627788
O6    O     O_R   0.499990 0.683210 0.385310 -0.624716
O7    O     O_R   0.653650 0.500040 0.633630 -0.628938
O8    O     O_R   0.653640 0.500010 0.404280 -0.626261
O9    O     O_2   0.283951 0.165703 0.492010 -0.595704
Zn1   Zn    Zn3+2 0.500010 0.500020 0.653130 0.939958
Zn2   Zn    Zn3+2 0.499990 0.499980 0.346870 0.957131

loop_
_geom_bond_atom_site_label_1
_geom_bond_atom_site_label_2
_ccdc_geom_bond_type
C4    O4    A    
C25   H2    S    
O8    Zn2   S    
C19   C23   A    
C1    O1    A    
C6    C7    S    
C21   H6    S    
C7    H14   S    
C17   C24   A    
C1    C28   S    
C7    C22   S    
N1    Zn2   S    
C9    C10   A    
C26   H4    S    
C19   C20   A    
C7    C27   S    
C23   C24   A    
C4    C18   S    
O2    Zn2   S    
C10   H16   S    
H10   N3    S    
C1    O2    A    
O3    Zn1   S    
C20   H5    S    
H13   N4    S    
C13   C14   S    
C4    O3    A    
C11   C13   S    
C12   C23   A    
O6    Zn2   S    
C13   H17   S    
C2    C29   A    
C10   N2    A    
H9    N3    S    
C28   C29   A    
C2    C3    A    
C18   C20   A    
C8    C11   A    
C11   N2    A    
C16   O7    A    
C5    C6    S    
C15   O5    A    
C24   H1    S    
C14   H20   S    
C22   O9    D    
C16   O8    A    
C19   H3    S    
C6    N4    S    
C18   C21   A    
O7    Zn1   S    
C8    N1    A    
O5    Zn1   S    
N2    Zn1   S    
O4    Zn2   S    
H11   N4    S    
O1    Zn1   S    
C2    H7    S    
C27   C28   A    
C13   H18   S    
C16   C17   S    
C3    C15   S    
C14   H19   S    
C8    C14   S    
C3    C5    A    
C25   C26   A    
C5    C27   A    
C22   H8    S    
C15   O6    A    
C12   C21   A    
C6    H12   S    
C9    N1    A    
C12   C26   A    
C17   C25   A    
C9    H15   S    
C29   N3    S    
