data_mof_unit_23408.cif
_audit_creation_date              2013-03-05T16:24:19-0500
_audit_creation_method            fapswitch 2.2
_symmetry_space_group_name_H-M    P1
_symmetry_Int_Tables_number       1
_space_group_crystal_system       triclinic
_cell_length_a                    23.257634
_cell_length_b                    15.694076
_cell_length_c                    14.96025
_cell_angle_alpha                 89.554176
_cell_angle_beta                  89.736627
_cell_angle_gamma                 89.565284
_cell_volume                      5460.21840741

loop_
_atom_site_label
_atom_site_type_symbol
_atom_site_description
_atom_site_fract_x
_atom_site_fract_y
_atom_site_fract_z
_atom_type_partial_charge
O1    O     O_R   0.500000 0.376780 0.574460 -0.609458
O2    O     O_R   0.500000 0.623220 0.425540 -0.606882
O3    O     O_R   0.500010 0.376780 0.425520 -0.616310
O4    O     O_R   0.499990 0.623220 0.574480 -0.620506
C1    C     C_R   0.499747 0.337555 0.500257 0.909742
C2    C     C_R   0.499196 0.662442 0.499688 0.882800
O5    O     O_R   0.416150 0.499970 0.574490 -0.614362
O6    O     O_R   0.583850 0.500030 0.425510 -0.610021
O7    O     O_R   0.416160 0.499980 0.425550 -0.614079
O8    O     O_R   0.583840 0.500020 0.574450 -0.618093
C3    C     C_R   0.389104 0.500739 0.500334 0.878358
C4    C     C_R   0.610847 0.501077 0.499877 0.883553
Zn1   Zn    Zn3+2 0.499990 0.500000 0.599450 0.951925
Zn2   Zn    Zn3+2 0.500010 0.500000 0.400550 0.963404
C5    C     C_R   0.879280 0.593042 0.440587 0.511189
C6    C     C_R   0.118884 0.517900 0.581183 0.548323
N1    N     N_R   0.850888 0.558252 0.511302 -0.329952
N2    N     N_R   0.146501 0.538049 0.503794 -0.335854
C7    C     C_R   0.878110 0.533626 0.587718 0.528250
C8    C     C_R   0.119308 0.574558 0.432707 0.504205
C9    C     C_R   0.938459 0.541847 0.595438 -0.061682
C10   C     C_R   0.059503 0.592116 0.436412 -0.070300
C11   C     C_R   0.969003 0.571826 0.518937 -0.076552
C12   C     C_R   0.029423 0.566782 0.515561 -0.088436
C13   C     C_R   0.938870 0.605245 0.444678 -0.075827
C14   C     C_R   0.059484 0.532773 0.589938 -0.040442
C15   C     C_R   0.969298 0.521089 0.675308 0.054768
C16   C     C_R   0.028807 0.635003 0.366068 0.066907
C17   C     C_R   0.030071 0.515753 0.671164 0.089858
C18   C     C_R   0.968840 0.648255 0.375721 0.110044
O9    O     O_2   0.849840 0.611815 0.365300 -0.552099
O10   O     O_2   0.149490 0.482646 0.648612 -0.558068
O11   O     O_2   0.846345 0.498289 0.653470 -0.601005
O12   O     O_2   0.151039 0.592748 0.359650 -0.592270
C19   C     C_R   0.241151 0.593713 0.534662 0.111170
C20   C     C_R   0.770529 0.465682 0.477374 0.121560
C21   C     C_R   0.301329 0.584752 0.537911 -0.002115
C22   C     C_R   0.711064 0.449100 0.476042 -0.005636
C23   C     C_R   0.326838 0.510359 0.501275 -0.142349
C24   C     C_R   0.672546 0.515169 0.499971 -0.133732
C25   C     C_R   0.292823 0.445119 0.465057 0.009202
C26   C     C_R   0.692748 0.596097 0.525559 0.019269
C27   C     C_R   0.232714 0.453104 0.465931 0.108807
C28   C     C_R   0.751925 0.611041 0.529562 0.097792
C29   C     C_R   0.207578 0.527966 0.500439 0.243043
C30   C     C_R   0.790302 0.545551 0.504676 0.243464
C31   C     C_3   0.545078 0.969979 0.510825 0.073738
C32   C     C_3   0.437175 0.030337 0.486033 0.073241
C33   C     C_3   0.525935 0.026969 0.431490 0.077246
C34   C     C_3   0.456315 0.973022 0.565405 0.077948
C35   C     C_1   0.497103 0.248846 0.500575 -0.201912
C36   C     C_1   0.494787 0.751092 0.498924 -0.205076
C37   C     C_3   0.511535 0.025792 0.578227 0.076668
C38   C     C_3   0.470736 0.974129 0.418687 0.072862
C39   C     C_3   0.492455 0.082650 0.498928 0.005943
C40   C     C_3   0.489900 0.917376 0.498077 0.002528
C41   C     C_1   0.494710 0.173691 0.499951 -0.090406
C42   C     C_1   0.491302 0.826231 0.498324 -0.081910
C43   C     C_3   0.544264 0.454790 0.970258 0.101074
C44   C     C_3   0.455450 0.545680 0.029653 0.100986
C45   C     C_3   0.548273 0.534266 0.029179 0.099586
C46   C     C_3   0.451446 0.466212 0.970716 0.100392
N3    N     N_1   0.500020 0.500000 0.268010 -0.093807
N4    N     N_1   0.499980 0.500000 0.731990 -0.096237
C47   C     C_3   0.495706 0.418780 0.030735 0.026466
C48   C     C_3   0.504016 0.581682 0.969166 0.026320
C49   C     C_3   0.499783 0.499508 0.090443 -0.044350
C50   C     C_3   0.499945 0.500959 0.909488 -0.042441
C51   C     C_1   0.499917 0.500006 0.190095 0.072710
C52   C     C_1   0.499944 0.500237 0.809883 0.069018
C53   C     C_3   0.939040 0.509071 0.765788 -0.358863
C54   C     C_3   0.912361 0.593245 0.798338 -0.318967
C55   C     C_3   0.875044 0.579524 0.881244 -0.846256
H1    H     H_    0.838870 0.536310 0.865792 0.277615
H2    H     H_    0.901035 0.551565 0.936406 0.257032
H3    H     H_    0.857012 0.641597 0.903478 0.246942
H4    H     H_    0.947341 0.638387 0.814594 0.204642
H5    H     H_    0.885618 0.623317 0.745570 0.244338
H6    H     H_    0.907509 0.456716 0.763285 0.252242
H7    H     H_    0.968117 0.486658 0.819369 0.162799
C56   C     C_3   0.057488 0.665268 0.279460 -0.337098
C57   C     C_3   0.090758 0.748593 0.292821 -0.309618
C58   C     C_3   0.125784 0.771583 0.209734 -0.852873
H8    H     H_    0.158110 0.720916 0.195645 0.282361
H9    H     H_    0.097087 0.779549 0.151060 0.251749
H10   H     H_    0.148680 0.832398 0.220842 0.242962
H11   H     H_    0.060146 0.801472 0.306986 0.192034
H12   H     H_    0.120173 0.743547 0.350851 0.255168
H13   H     H_    0.084496 0.614075 0.250214 0.242434
H14   H     H_    0.025457 0.675866 0.225639 0.185028
N5    N     N_3   0.602554 0.567930 0.061134 -0.440593
H15   H     H_    0.622286 0.599417 0.007533 0.194047
H16   H     H_    0.593127 0.613586 0.109554 0.173905
N6    N     N_3   0.397118 0.432790 0.938659 -0.445009
H17   H     H_    0.377608 0.400471 0.991909 0.195041
H18   H     H_    0.406433 0.387937 0.889372 0.170818
N7    N     N_3   0.594526 0.408385 0.937726 -0.444402
H19   H     H_    0.610604 0.372046 0.990959 0.194025
H20   H     H_    0.580742 0.366010 0.888948 0.171719
N8    N     N_3   0.405101 0.591949 0.062076 -0.442385
H21   H     H_    0.389282 0.628756 0.008997 0.192150
H22   H     H_    0.418691 0.633828 0.111457 0.172806
C59   C     C_3   0.508823 0.671267 0.928413 -0.418351
C60   C     C_3   0.510987 0.741625 0.998731 -0.350742
C61   C     C_3   0.515029 0.829360 0.954357 -0.888392
H23   H     H_    0.554517 0.833483 0.912530 0.261706
H24   H     H_    0.476801 0.841692 0.911752 0.261715
H25   H     H_    0.516828 0.879264 0.006464 0.249802
H26   H     H_    0.471677 0.740222 0.040892 0.218446
H27   H     H_    0.548939 0.732154 0.042395 0.218964
H28   H     H_    0.548338 0.673566 0.886441 0.205114
H29   H     H_    0.471225 0.682292 0.884279 0.204943
C62   C     C_3   0.491146 0.329124 0.071445 -0.416270
C63   C     C_3   0.487353 0.259030 0.001006 -0.351630
C64   C     C_3   0.482442 0.171329 0.045237 -0.887213
H30   H     H_    0.520949 0.157601 0.086714 0.259605
H31   H     H_    0.443377 0.168361 0.088136 0.261422
H32   H     H_    0.479245 0.121655 0.993099 0.249596
H33   H     H_    0.449117 0.269674 0.958252 0.218496
H34   H     H_    0.526279 0.259457 0.957928 0.218902
H35   H     H_    0.529456 0.317491 0.114091 0.205669
H36   H     H_    0.452289 0.327206 0.114910 0.205449
N9    N     N_3   0.062741 0.494796 0.749757 -0.387819
H37   H     H_    0.055342 0.540728 0.798817 0.180407
H38   H     H_    0.051398 0.434130 0.772828 0.186143
N10   N     N_3   0.938467 0.707041 0.317394 -0.398270
H39   H     H_    0.965189 0.757873 0.300733 0.154540
H40   H     H_    0.907085 0.738712 0.355124 0.204091
N11   N     N_3   0.212364 0.669598 0.564862 -0.457489
H41   H     H_    0.225719 0.721215 0.525631 0.178145
H42   H     H_    0.222466 0.680480 0.631670 0.192966
N12   N     N_3   0.812293 0.401902 0.453511 -0.443557
H43   H     H_    0.806121 0.385084 0.386808 0.186897
H44   H     H_    0.806777 0.348334 0.494479 0.193682
C65   C     C_3   0.337585 0.654060 0.580260 -0.403827
C66   C     C_3   0.343638 0.639186 0.681483 -0.278262
C67   C     C_3   0.381253 0.706837 0.723806 -0.916984
H45   H     H_    0.425443 0.704325 0.695475 0.279541
H46   H     H_    0.362436 0.770966 0.711805 0.264449
H47   H     H_    0.383539 0.695559 0.797028 0.245291
H48   H     H_    0.300739 0.640928 0.714206 0.213244
H49   H     H_    0.362844 0.575562 0.695388 0.251199
H50   H     H_    0.380699 0.657023 0.548620 0.202122
H51   H     H_    0.318641 0.718098 0.567725 0.181334
C68   C     C_3   0.689133 0.360042 0.456894 -0.433011
C69   C     C_3   0.680235 0.310557 0.544643 -0.315559
C70   C     C_3   0.660863 0.219696 0.527409 -0.929578
H52   H     H_    0.619100 0.220423 0.492046 0.263887
H53   H     H_    0.693360 0.185147 0.486542 0.262619
H54   H     H_    0.655576 0.185606 0.592126 0.247695
H55   H     H_    0.721067 0.308270 0.582936 0.230116
H56   H     H_    0.647152 0.343065 0.586295 0.231702
H57   H     H_    0.648207 0.363134 0.419040 0.212905
H58   H     H_    0.719362 0.324359 0.413255 0.200466
N13   N     N_3   0.318823 0.369366 0.428995 -0.470047
H59   H     H_    0.344570 0.386299 0.374369 0.209832
H60   H     H_    0.344740 0.341028 0.478003 0.171201
N14   N     N_3   0.653478 0.664202 0.546877 -0.473244
H61   H     H_    0.626514 0.675005 0.492180 0.180132
H62   H     H_    0.628558 0.646263 0.602073 0.205510
C71   C     C_3   0.195867 0.381723 0.430020 -0.364695
C72   C     C_3   0.191530 0.308156 0.497783 -0.331736
C73   C     C_3   0.155180 0.235805 0.461471 -0.900427
H63   H     H_    0.110831 0.258762 0.447270 0.266644
H64   H     H_    0.174716 0.210275 0.399198 0.267366
H65   H     H_    0.152910 0.183526 0.511776 0.254784
H66   H     H_    0.235034 0.282730 0.513698 0.235180
H67   H     H_    0.171578 0.331588 0.560676 0.253416
H68   H     H_    0.151855 0.404674 0.413851 0.197276
H69   H     H_    0.214497 0.358373 0.366081 0.216644
C74   C     C_3   0.773976 0.695826 0.563284 -0.375512
C75   C     C_3   0.769182 0.700547 0.665549 -0.329490
C76   C     C_3   0.804577 0.773651 0.702651 -0.918985
H70   H     H_    0.850865 0.764067 0.686774 0.256200
H71   H     H_    0.790135 0.835421 0.673762 0.269159
H72   H     H_    0.799401 0.775909 0.776418 0.257355
H73   H     H_    0.723474 0.709699 0.685405 0.230183
H74   H     H_    0.784783 0.640059 0.696294 0.255613
H75   H     H_    0.819335 0.705973 0.542924 0.191922
H76   H     H_    0.749258 0.749014 0.532172 0.212205
C77   C     C_3   0.563437 0.069411 0.359250 -0.406369
C78   C     C_3   0.593190 0.005341 0.297221 -0.356498
C79   C     C_3   0.630187 0.051053 0.227672 -0.883076
H77   H     H_    0.603222 0.094351 0.186024 0.257669
H78   H     H_    0.664137 0.088606 0.260980 0.262146
H79   H     H_    0.651143 0.003463 0.183413 0.252707
H80   H     H_    0.621159 0.961559 0.336266 0.227992
H81   H     H_    0.560896 0.966877 0.261721 0.228060
H82   H     H_    0.536189 0.113716 0.319321 0.198225
H83   H     H_    0.596326 0.108736 0.392360 0.198986
C80   C     C_3   0.418333 0.930674 0.636981 -0.412529
C81   C     C_3   0.388833 0.995177 0.698926 -0.353547
C82   C     C_3   0.350954 0.950437 0.767969 -0.898915
H84   H     H_    0.316312 0.914670 0.734237 0.260137
H85   H     H_    0.377106 0.905860 0.809449 0.262759
H86   H     H_    0.330800 0.998516 0.812522 0.255108
H87   H     H_    0.421337 0.032688 0.735043 0.228144
H88   H     H_    0.361626 0.039878 0.659720 0.227731
H89   H     H_    0.385417 0.891771 0.603043 0.194991
H90   H     H_    0.445253 0.886068 0.677091 0.200656
C83   C     C_3   0.602944 0.923871 0.524025 -0.397634
C84   C     C_3   0.653331 0.984981 0.535603 -0.356068
C85   C     C_3   0.709460 0.935750 0.548017 -0.898129
H91   H     H_    0.705976 0.892378 0.606722 0.267966
H92   H     H_    0.719410 0.897903 0.487379 0.262550
H93   H     H_    0.745129 0.980965 0.559407 0.253036
H94   H     H_    0.657753 0.026835 0.476106 0.232231
H95   H     H_    0.646277 0.025381 0.595041 0.228927
H96   H     H_    0.599583 0.881512 0.583589 0.199543
H97   H     H_    0.611142 0.882205 0.465630 0.199236
C86   C     C_3   0.379777 0.077619 0.472346 -0.400823
C87   C     C_3   0.328564 0.017750 0.461603 -0.360308
C88   C     C_3   0.272988 0.068393 0.447867 -0.886206
H98   H     H_    0.264272 0.109659 0.506467 0.265951
H99   H     H_    0.276108 0.108733 0.386707 0.264951
H100  H     H_    0.236493 0.023888 0.440118 0.250523
H101  H     H_    0.335263 0.975747 0.403239 0.225951
H102  H     H_    0.323477 0.977135 0.521955 0.225998
H103  H     H_    0.372121 0.120107 0.530261 0.195238
H104  H     H_    0.383603 0.119210 0.412260 0.198443
C89   C     C_3   0.448525 0.932369 0.333099 -0.398990
C90   C     C_3   0.431416 0.997140 0.260471 -0.360916
C91   C     C_3   0.413016 0.952192 0.175290 -0.886915
H105  H     H_    0.448942 0.912667 0.148674 0.261376
H106  H     H_    0.375351 0.910899 0.188945 0.263698
H107  H     H_    0.400884 0.000339 0.123814 0.252789
H108  H     H_    0.395185 0.037469 0.284043 0.226753
H109  H     H_    0.467986 0.039204 0.243790 0.229346
H110  H     H_    0.482462 0.888950 0.307036 0.199069
H111  H     H_    0.410949 0.892205 0.350507 0.195747
C92   C     C_3   0.533511 0.067002 0.664284 -0.399415
C93   C     C_3   0.550652 0.001821 0.736473 -0.361680
C94   C     C_3   0.570220 0.046412 0.821212 -0.888448
H112  H     H_    0.608283 0.086673 0.806783 0.262811
H113  H     H_    0.534979 0.086963 0.848274 0.261504
H114  H     H_    0.582157 0.998100 0.872611 0.254004
H115  H     H_    0.513815 0.960474 0.753818 0.229412
H116  H     H_    0.586320 0.960793 0.712222 0.227108
H117  H     H_    0.570943 0.107499 0.647405 0.197868
H118  H     H_    0.499506 0.110152 0.690588 0.198332

loop_
_geom_bond_atom_site_label_1
_geom_bond_atom_site_label_2
_geom_bond_distance
_ccdc_geom_bond_type
C75   H73   1.111022 S    
C32   C39   1.544351 S    
C48   C50   1.559242 S    
C85   H91   1.109998 S    
C18   N10   1.447354 S    
N10   H39   1.042973 S    
C15   C17   1.416365 A    
C55   H2    1.110814 S    
C55   H1    1.110902 S    
C91   H105  1.111040 S    
C74   C75   1.535780 S    
C53   H6    1.106434 S    
C63   C64   1.527378 S    
C91   H107  1.110545 S    
C65   C66   1.537343 S    
C23   C25   1.411611 A    
C26   N14   1.437403 S    
C76   H70   1.110727 S    
C32   C38   1.548757 S    
C86   H104  1.110420 S    
C67   H46   1.108111 S    
C89   C90   1.533888 S    
C87   H102  1.107544 S    
C58   H8    1.110882 S    
O1    C1    1.273591 A    
C92   H117  1.108829 S    
C70   H53   1.110717 S    
C12   C14   1.415628 A    
C72   C73   1.525626 S    
C20   N12   1.435438 S    
C60   H26   1.108579 S    
C57   H12   1.109749 S    
C85   H92   1.110701 S    
N13   H60   1.045756 S    
C87   H101  1.107853 S    
C64   H30   1.110685 S    
N7    H19   1.044855 S    
C13   C18   1.412589 A    
C31   C83   1.535995 S    
C44   C46   1.536616 S    
C83   C84   1.531213 S    
O4    Zn1   1.966718 S    
C78   C79   1.525499 S    
C53   H7    1.104808 S    
N6    H18   1.044243 S    
C54   H5    1.107729 S    
O5    Zn1   1.987041 S    
N9    H38   1.045494 S    
C77   H82   1.110055 S    
C45   C48   1.551054 S    
N14   H62   1.044739 S    
C62   H36   1.111374 S    
C70   H52   1.108117 S    
C44   C49   1.549924 S    
N12   H43   1.045021 S    
C82   H85   1.111173 S    
C89   H111  1.110224 S    
C66   H49   1.109367 S    
C11   C12   1.407556 A    
C21   C65   1.524844 S    
C20   C30   1.402834 A    
C35   C41   1.181337 T    
C81   H88   1.107624 S    
C94   H112  1.110917 S    
C19   N11   1.436735 S    
C63   H33   1.108666 S    
C31   C37   1.545571 S    
C8    O12   1.345962 S    
C82   H86   1.110365 S    
C24   C26   1.413757 A    
C9    C15   1.430586 A    
C44   C48   1.551207 S    
C56   H13   1.107610 S    
C33   C38   1.547073 S    
C84   H95   1.107002 S    
C93   H116  1.107769 S    
C25   C27   1.402652 A    
C74   H75   1.108988 S    
O2    C2    1.272799 A    
C26   C28   1.399543 A    
O2    Zn2   1.972483 S    
C83   H96   1.110421 S    
C60   C61   1.527281 S    
N7    H20   1.044281 S    
C28   C30   1.407340 A    
C68   C69   1.534071 S    
C37   C39   1.543664 S    
C6    C14   1.405043 A    
C36   C42   1.181360 T    
C67   H47   1.109722 S    
C38   C40   1.544352 S    
C43   C45   1.536589 S    
C34   C37   1.546908 S    
C84   C85   1.523254 S    
C69   C70   1.522967 S    
C80   C81   1.533784 S    
N3    C51   1.165647 T    
C85   H93   1.110345 S    
N9    H37   1.045528 S    
C70   H54   1.109326 S    
C80   H90   1.110136 S    
O4    C2    1.272988 A    
C7    O11   1.346106 S    
C79   H79   1.110393 S    
N5    H15   1.044855 S    
N10   H40   1.045680 S    
C38   C89   1.536270 S    
C47   C49   1.559566 S    
C77   C78   1.532676 S    
C65   H50   1.108005 S    
C56   C57   1.539365 S    
C69   H55   1.111519 S    
C59   H29   1.109836 S    
C49   C51   1.490908 S    
C4    C24   1.453597 S    
O5    C3    1.277756 A    
O7    Zn2   1.984003 S    
C79   H77   1.110778 S    
C54   H4    1.111816 S    
C43   C50   1.549521 S    
N5    H16   1.044230 S    
C79   H78   1.111032 S    
C61   H24   1.111253 S    
C77   H83   1.107597 S    
C45   C49   1.549691 S    
C86   C87   1.532466 S    
C92   C93   1.533709 S    
C32   C86   1.536151 S    
C90   H109  1.107005 S    
C25   N13   1.437430 S    
O6    C4    1.280283 A    
C64   H32   1.110208 S    
C73   H65   1.110410 S    
N8    H22   1.044264 S    
C39   C41   1.430375 S    
C78   H81   1.107309 S    
C61   H25   1.110466 S    
N1    C30   1.428615 S    
C3    C23   1.454881 S    
C34   C80   1.535524 S    
O7    C3    1.281174 A    
O3    Zn2   1.966719 S    
O8    C4    1.277833 A    
C37   C92   1.536561 S    
C69   H56   1.111391 S    
C68   H58   1.108878 S    
C27   C71   1.518607 S    
N12   H44   1.044884 S    
C65   H51   1.109257 S    
C58   H9    1.110868 S    
C8    C10   1.416826 A    
C57   C58   1.525442 S    
N4    C52   1.165329 T    
C84   H94   1.106972 S    
C46   N6    1.456431 S    
N14   H61   1.045256 S    
C43   N7    1.456421 S    
C55   H3    1.110451 S    
C10   C12   1.427878 A    
C74   H76   1.110429 S    
O1    Zn1   1.972484 S    
C71   H69   1.111862 S    
C89   H110  1.110185 S    
C20   C22   1.409484 A    
C19   C29   1.400230 A    
N2    C29   1.428803 S    
O3    C1    1.272166 A    
C83   H97   1.110228 S    
N13   H59   1.044789 S    
C15   C53   1.533746 S    
C75   C76   1.526596 S    
C60   H27   1.108927 S    
C62   C63   1.532558 S    
C67   H45   1.110453 S    
C76   H72   1.110375 S    
C75   H74   1.110805 S    
C68   H57   1.110345 S    
C5    N1    1.357706 A    
C64   H31   1.111017 S    
O6    Zn2   1.987044 S    
C46   C47   1.551269 S    
C19   C21   1.406602 A    
C16   C56   1.528602 S    
C22   C68   1.521223 S    
C47   C62   1.533074 S    
C48   C59   1.532762 S    
C1    C35   1.393999 S    
C80   H89   1.110012 S    
C54   C55   1.525371 S    
C44   N8    1.456429 S    
O8    Zn1   1.984003 S    
C91   H106  1.110865 S    
C5    O9    1.350215 S    
C88   H100  1.110352 S    
C59   H28   1.111328 S    
C6    O10   1.349931 S    
C86   H103  1.110320 S    
C61   H23   1.110945 S    
C46   C50   1.549443 S    
C81   C82   1.525053 S    
C9    C11   1.423049 A    
N11   H41   1.044960 S    
C88   H99   1.110995 S    
C71   H68   1.109671 S    
C16   C18   1.415440 A    
C21   C23   1.418443 A    
C33   C39   1.544004 S    
C31   C33   1.545677 S    
C81   H87   1.107014 S    
C22   C24   1.412284 A    
C76   H71   1.108726 S    
C93   H115  1.107327 S    
Zn1   N4    1.982830 S    
C71   C72   1.534122 S    
C90   H108  1.108001 S    
C88   H98   1.110984 S    
Zn2   N3    1.982829 S    
C17   N9    1.437490 S    
C32   C34   1.548995 S    
C93   C94   1.525746 S    
N1    C7    1.361323 A    
C66   H48   1.109590 S    
C40   C42   1.430545 S    
C10   C16   1.434833 A    
N2    C8    1.360312 A    
C78   H80   1.107669 S    
C11   C13   1.411708 A    
N6    H17   1.044836 S    
C90   C91   1.525864 S    
C94   H114  1.110379 S    
C34   C40   1.543840 S    
C28   C74   1.520278 S    
C73   H63   1.110874 S    
C5    C13   1.402215 A    
C72   H67   1.111143 S    
C72   H66   1.110970 S    
C56   H14   1.110174 S    
C45   N5    1.456371 S    
N11   H42   1.043416 S    
C53   C54   1.536892 S    
C58   H10   1.110462 S    
C62   H35   1.111391 S    
C87   C88   1.526100 S    
C14   C17   1.416337 A    
C6    N2    1.357759 A    
C82   H84   1.110814 S    
C94   H113  1.110733 S    
C59   C60   1.532271 S    
C50   C52   1.490244 S    
C63   H34   1.108897 S    
C92   H118  1.110002 S    
C73   H64   1.110876 S    
N8    H21   1.044948 S    
C2    C36   1.394240 S    
C27   C29   1.408855 A    
C33   C77   1.536660 S    
C43   C47   1.551040 S    
C66   C67   1.524180 S    
C57   H11   1.110357 S    
C31   C40   1.544529 S    
C7    C9    1.415790 A    
