data_mof_unit_15294.cif
_audit_creation_date              2012-12-10T19:01:50-0500
_audit_creation_method            fapswitch 2.2
_symmetry_space_group_name_H-M    P1
_symmetry_Int_Tables_number       1
_space_group_crystal_system       triclinic
_cell_length_a                    11.697979
_cell_length_b                    10.818169
_cell_length_c                    9.558085
_cell_angle_alpha                 89.89652
_cell_angle_beta                  90.211095
_cell_angle_gamma                 90.150602
_cell_volume                      1209.56813949

loop_
_atom_site_label
_atom_site_type_symbol
_atom_type_description
_atom_site_fract_x
_atom_site_fract_y
_atom_site_fract_z
_atom_type_partial_charge
C1    C     C_R   0.497415 0.262358 0.500031 0.799106
C2    C     C_R   0.485239 0.129275 0.499700 -0.102971
C3    C     C_R   0.471613 0.064633 0.373129 -0.224370
C4    C     C_R   0.472179 0.935763 0.372995 -0.220596
C5    C     C_R   0.486279 0.870792 0.499423 -0.093294
C6    C     C_R   0.483200 0.936181 0.625118 0.122460
C7    C     C_3   0.560992 0.930136 0.749215 -0.510740
C8    C     C_3   0.559628 0.070471 0.749877 -0.425127
C9    C     C_R   0.552673 0.592914 0.073937 0.166120
C10   C     C_R   0.437505 0.416375 0.074736 -0.163675
C11   C     C_R   0.434405 0.417921 0.924893 0.538918
C12   C     C_R   0.284013 0.499856 0.499787 0.816887
C13   C     C_R   0.555710 0.590647 0.926999 0.101838
C14   C     C_3   0.680715 0.621411 0.926113 0.266361
C15   C     C_3   0.674979 0.629638 0.084895 -0.520537
C16   C     C_R   0.497983 0.737683 0.499847 0.785683
C17   C     C_R   0.715972 0.500114 0.500075 0.818862
C18   C     C_1   0.162332 0.499924 0.499308 -0.201244
C19   C     C_1   0.059856 0.500071 0.498994 -0.013610
C20   C     C_1   0.940101 0.500242 0.498947 -0.020789
C21   C     C_1   0.837622 0.500222 0.499649 -0.189253
C22   C     C_R   0.482408 0.063396 0.625311 0.153543
Cu1   Cu    Cu3+1 0.499990 0.499980 0.640670 1.001439
Cu2   Cu    Cu3+1 0.500010 0.500020 0.359330 0.944250
H1    H     H_    0.466372 0.112915 0.273931 0.165342
H2    H     H_    0.698942 0.710351 0.871519 0.052098
H3    H     H_    0.728422 0.559630 0.139361 0.237831
H4    H     H_    0.685098 0.725573 0.124562 0.148292
H5    H     H_    0.467296 0.887819 0.273749 0.164845
H6    H     H_    0.518487 0.888491 0.841927 0.195083
H7    H     H_    0.646105 0.890945 0.723387 0.191295
H8    H     H_    0.515794 0.109688 0.842699 0.227024
H9    H     H_    0.644015 0.112684 0.725313 0.195500
H10   H     H_    0.391032 0.346193 0.131801 0.151047
N1    N     N_R   0.500710 0.500930 0.147930 -0.187097
N2    N     N_R   0.500710 0.500890 0.852020 -0.202019
O1    O     O_R   0.500000 0.319640 0.618810 -0.524992
O2    O     O_R   0.500010 0.319680 0.381230 -0.592694
O3    O     O_R   0.337190 0.499990 0.618790 -0.567791
O4    O     O_R   0.337200 0.500030 0.381210 -0.576699
O5    O     O_R   0.499990 0.680320 0.618770 -0.591711
O6    O     O_R   0.500000 0.680360 0.381190 -0.581874
O7    O     O_R   0.662800 0.499970 0.618790 -0.528186
O8    O     O_R   0.662810 0.500010 0.381210 -0.578802
O9    O     O_3   0.375411 0.327843 0.851188 -0.563038
C23   C     C_3   0.258395 0.323605 0.888461 0.048636
H11   H     H_    0.206942 0.339869 0.792336 0.179577
H12   H     H_    0.231193 0.394886 0.965713 0.110037
C24   C     C_3   0.228897 0.195448 0.943839 -0.842500
H13   H     H_    0.278380 0.175625 0.040571 0.234198
H14   H     H_    0.136218 0.190362 0.968002 0.214766
H15   H     H_    0.249462 0.124496 0.863967 0.255649
O10   O     O_3   0.747153 0.519492 0.883170 -0.526064
C25   C     C_3   0.862957 0.555674 0.873813 0.093426
H16   H     H_    0.891637 0.608438 0.967768 0.126534
H17   H     H_    0.875891 0.613811 0.779063 0.142290
C26   C     C_3   0.937288 0.440964 0.862819 -0.781958
H18   H     H_    0.909203 0.383127 0.773186 0.256436
H19   H     H_    0.027769 0.468690 0.847098 0.186333
H20   H     H_    0.930867 0.385586 0.960446 0.239927

loop_
_geom_bond_atom_site_label_1
_geom_bond_atom_site_label_2
_ccdc_geom_bond_type
C26   H19   S    
C2    C22   A    
C8    C22   S    
Cu1   Cu2   S    
C17   O7    A    
C12   O4    A    
C6    C7    S    
Cu2   O6    S    
C25   H16   S    
Cu2   O2    S    
C19   C20   S    
Cu1   O5    S    
C1    O1    A    
C24   H15   S    
C12   O3    A    
C2    C3    A    
C26   H18   S    
C17   O8    A    
C7    C8    S    
C10   H10   S    
C7    H6    S    
Cu1   O1    S    
C13   C14   S    
C14   H2    S    
C23   C24   S    
C15   H4    S    
C10   N1    A    
C1    O2    A    
Cu1   O3    S    
C11   N2    A    
Cu2   O4    S    
Cu1   N2    S    
C25   H17   S    
C8    H9    S    
C9    C15   S    
C5    C6    A    
Cu2   O8    S    
C23   H12   S    
C11   O9    S    
Cu2   N1    S    
C7    H7    S    
C10   C11   A    
C3    C4    A    
C8    H8    S    
C16   O6    A    
C3    H1    S    
C14   O10   S    
Cu1   O7    S    
C20   C21   T    
C13   N2    A    
C9    N1    A    
C1    C2    S    
C23   H11   S    
C12   C18   S    
C24   H13   S    
C9    C13   A    
C14   C15   S    
C18   C19   T    
C5    C16   S    
C24   H14   S    
O9    C23   S    
C15   H3    S    
C16   O5    A    
C17   C21   S    
C4    H5    S    
O10   C25   S    
C4    C5    A    
C26   H20   S    
C25   C26   S    
C6    C22   A    
