data_mof_unit_38335.cif
_audit_creation_date              2012-12-11T17:06:33-0500
_audit_creation_method            fapswitch 2.2
_symmetry_space_group_name_H-M    P1
_symmetry_Int_Tables_number       1
_space_group_crystal_system       triclinic
_cell_length_a                    6.962702
_cell_length_b                    14.508058
_cell_length_c                    15.96535
_cell_angle_alpha                 90.408889
_cell_angle_beta                  89.947453
_cell_angle_gamma                 89.980302
_cell_volume                      1612.70252684

loop_
_atom_site_label
_atom_site_type_symbol
_atom_type_description
_atom_site_fract_x
_atom_site_fract_y
_atom_site_fract_z
_atom_type_partial_charge
O1    O     O_R   0.494400 0.415450 0.412630 -0.515778
O2    O     O_R   0.823940 0.405730 0.586760 -0.527643
O3    O     O_R   0.994240 0.584550 0.587370 -0.528773
C1    C     C_R   0.655135 0.383697 0.615269 0.765166
O4    O     O_R   0.824110 0.404430 0.413240 -0.553910
O5    O     O_R   0.994420 0.583240 0.412620 -0.547248
C2    C     C_R   0.655396 0.382213 0.384240 0.729606
O6    O     O_R   0.494230 0.416760 0.587380 -0.518825
O7    O     O_3   0.660800 0.558670 0.500000 -0.375564
V1    V     V_3+5 0.935650 0.489120 0.500000 1.631250
O8    O     O_R   0.324140 0.594270 0.413240 -0.517233
C3    C     C_R   0.155213 0.615848 0.384176 0.767225
O9    O     O_R   0.323960 0.595570 0.586760 -0.553343
C4    C     C_R   0.155059 0.617744 0.615311 0.812680
V2    V     V_3+5 0.435660 0.510880 0.500000 1.645021
O10   O     O_3   0.160640 0.441330 0.500000 -0.354678
C5    C     C_3   0.068341 0.667230 0.773602 0.556933
C6    C     C_3   0.240514 0.718971 0.812980 -0.170394
C7    C     C_3   0.121859 0.809146 0.810538 -0.276826
C8    C     C_3   0.951036 0.756801 0.772156 0.546507
C9    C     C_3   0.027634 0.777119 0.683997 0.531399
C10   C     C_3   0.199141 0.830733 0.721866 -0.242800
C11   C     C_3   0.317487 0.739682 0.723456 -0.161027
C12   C     C_3   0.144586 0.687303 0.685238 -0.334409
H1    H     H_    0.468462 0.732286 0.702191 0.238501
C13   C     C_R   0.246260 0.825751 0.248550 -0.152708
C14   C     C_R   0.117891 0.813673 0.181735 -0.169488
C15   C     C_R   0.987614 0.739217 0.187100 0.704713
C16   C     C_R   0.998635 0.675981 0.253793 -0.136918
C17   C     C_R   0.141434 0.684285 0.316062 -0.113261
C18   C     C_R   0.258406 0.762671 0.313481 -0.113442
C19   C     C_3   0.470529 0.774460 0.321209 0.499083
C20   C     C_3   0.457100 0.844247 0.250459 0.524042
C21   C     C_R   0.517715 0.239888 0.678272 -0.095862
C22   C     C_R   0.647466 0.313505 0.681683 -0.164593
C23   C     C_R   0.779561 0.315070 0.748523 -0.112606
C24   C     C_R   0.767122 0.250367 0.813928 0.694654
C25   C     C_R   0.624365 0.181146 0.812983 -0.149926
C26   C     C_R   0.507095 0.175135 0.741926 -0.237470
C27   C     C_3   0.294574 0.165478 0.733268 0.445774
C28   C     C_3   0.306089 0.236887 0.663975 1.063073
C29   C     C_R   0.490014 0.251619 0.308666 -0.032162
C30   C     C_R   0.647079 0.311240 0.317041 -0.049623
C31   C     C_R   0.797901 0.301155 0.259064 -0.143641
C32   C     C_R   0.786619 0.236697 0.192842 -0.046309
C33   C     C_R   0.622968 0.180832 0.182209 -0.133262
C34   C     C_R   0.478621 0.187472 0.243102 0.002070
C35   C     C_3   0.269817 0.204964 0.231111 0.381735
C36   C     C_3   0.282637 0.275341 0.301656 0.380214
O11   O     O_R   0.771650 0.079500 0.908680 -0.527422
O12   O     O_R   0.441690 0.091800 0.082800 -0.545031
O13   O     O_R   0.271460 0.912980 0.083410 -0.523895
C37   C     C_R   0.610579 0.114137 0.111679 0.706106
O14   O     O_R   0.441930 0.090510 0.909280 -0.522048
O15   O     O_R   0.271690 0.911670 0.908660 -0.544242
C38   C     C_R   0.611033 0.113018 0.881136 0.761250
O16   O     O_R   0.771410 0.080810 0.083440 -0.539873
O17   O     O_3   0.605100 0.937580 0.996050 -0.347282
V3    V     V_3+5 0.330220 0.007110 0.996030 1.645107
O18   O     O_R   0.941980 0.900620 0.909250 -0.519983
C39   C     C_R   0.110891 0.878546 0.880614 0.769576
O19   O     O_R   0.941740 0.901920 0.082770 -0.509912
C40   C     C_R   0.110501 0.879817 0.111456 0.785686
V4    V     V_3+5 0.830220 0.985300 0.996000 1.702614
O20   O     O_3   0.105210 0.054870 0.996020 -0.367190
H2    H     H_    0.327807 0.694657 0.866614 0.208416
H3    H     H_    0.515378 0.804448 0.382363 0.004550
F1    F     F_    0.547263 0.814957 0.177771 -0.579465
H4    H     H_    0.492741 0.916081 0.269437 -0.006279
H5    H     H_    0.885561 0.369510 0.752650 0.227554
F2    F     F_    0.885014 0.259851 0.881090 -0.609301
F3    F     F_    0.199036 0.197533 0.803578 -0.605891
H6    H     H_    0.249215 0.095659 0.712116 0.029123
F4    F     F_    0.215087 0.319254 0.683075 -0.649780
F5    F     F_    0.258776 0.202125 0.585748 -0.712757
H7    H     H_    0.918846 0.347293 0.261921 0.188955
F6    F     F_    0.999336 0.582943 0.800030 -0.620231
H8    H     H_    0.901396 0.233943 0.147239 0.150415
F7    F     F_    0.161559 0.128725 0.252713 -0.696913
H9    H     H_    0.235031 0.233979 0.168704 0.097538
H10   H     H_    0.197952 0.258242 0.358517 0.123064
F8    F     F_    0.258387 0.364750 0.273612 -0.699607
F9    F     F_    0.761974 0.765072 0.797514 -0.655181
F10   F     F_    0.916581 0.806796 0.617703 -0.656503
H11   H     H_    0.252380 0.898722 0.700415 0.169561
F11   F     F_    0.859561 0.723172 0.124678 -0.588686
H12   H     H_    0.901579 0.617660 0.254240 0.195013
F12   F     F_    0.568787 0.695209 0.298388 -0.626977

loop_
_geom_bond_atom_site_label_1
_geom_bond_atom_site_label_2
_ccdc_geom_bond_type
C27   C28   S    
O15   V3    S    
O11   V4    S    
C7    C8    S    
C1    O6    A    
C32   C33   A    
C13   C14   A    
O19   C40   A    
C35   F7    S    
C15   C16   A    
C24   C25   A    
C21   C22   A    
O5    C3    A    
C17   C18   A    
C4    C12   S    
V2    O10   S    
C19   F12   S    
C5    C8    S    
C27   H6    S    
C6    C7    S    
C10   H11   S    
C36   H10   S    
C31   H7    S    
O19   V4    S    
C28   F4    S    
O8    V2    S    
C18   C19   S    
C11   C12   S    
C32   H8    S    
O1    V2    S    
C2    C30   S    
O7    V1    S    
C20   H4    S    
C1    C22   S    
C13   C18   A    
O9    C4    A    
C21   C28   S    
C23   H5    S    
O14   V3    S    
O17   V4    S    
O14   C38   A    
C5    C12   S    
C6    C11   S    
C7    C10   S    
C26   C27   S    
O4    C2    A    
C37   O16   A    
O17   V3    S    
O11   C38   A    
C21   C26   A    
O18   C39   A    
O12   C37   A    
C22   C23   A    
C36   F8    S    
O2    C1    A    
C30   C31   A    
C16   C17   A    
O13   V3    S    
C28   F5    S    
C13   C20   S    
C34   C35   S    
C9    F10   S    
C5    F6    S    
C5    C6    S    
O3    C4    A    
C14   C40   S    
C19   H3    S    
C35   C36   S    
O6    V2    S    
O9    V2    S    
C15   F11   S    
C9    C12   S    
O12   V3    S    
C29   C30   A    
O2    V1    S    
C31   C32   A    
O16   V4    S    
C33   C34   A    
C23   C24   A    
C27   F3    S    
C3    C17   S    
O1    C2    A    
O13   C40   A    
O5    V1    S    
O8    C3    A    
C6    H2    S    
O18   V4    S    
V4    O20   S    
C35   H9    S    
C24   F2    S    
O7    V2    S    
O4    V1    S    
O3    V1    S    
V1    O10   S    
C19   C20   S    
C25   C26   A    
C7    C39   S    
O15   C39   A    
C33   C37   S    
C29   C34   A    
C11   H1    S    
C16   H12   S    
C29   C36   S    
C25   C38   S    
C8    C9    S    
C8    F9    S    
C14   C15   A    
C10   C11   S    
C9    C10   S    
V3    O20   S    
C20   F1    S    
