data_mof_unit_22371.cif
_audit_creation_date              2012-10-26T19:35:17-0400
_audit_creation_method            fapswitch 2.2
_symmetry_space_group_name_H-M    P1
_symmetry_Int_Tables_number       1
_space_group_crystal_system       triclinic
_cell_length_a                    10.856882
_cell_length_b                    10.797492
_cell_length_c                    9.543457
_cell_angle_alpha                 90.14492
_cell_angle_beta                  90.262429
_cell_angle_gamma                 90.484318
_cell_volume                      1118.69636292

loop_
_atom_site_label
_atom_site_type_symbol
_atom_type_description
_atom_site_fract_x
_atom_site_fract_y
_atom_site_fract_z
_atom_type_partial_charge
C1    C     C_R   0.496440 0.262618 0.499799 0.607134
C2    C     C_R   0.422115 0.932776 0.401748 -0.142806
C3    C     C_R   0.493832 0.870764 0.501756 -0.001235
C4    C     C_R   0.262645 0.510047 0.500388 0.540452
C5    C     C_R   0.550984 0.938207 0.608860 -0.027913
C6    C     C_3   0.682691 0.936206 0.656569 -0.257605
C7    C     C_3   0.679113 0.077054 0.657131 -0.040651
C8    C     C_R   0.590354 0.561052 0.073880 0.202915
C9    C     C_R   0.419487 0.428357 0.074483 -0.027785
C10   C     C_R   0.419433 0.427568 0.925204 0.188814
C11   C     C_R   0.591806 0.558857 0.926530 0.073583
C12   C     C_R   0.063739 0.534414 0.630862 0.028320
C13   C     C_3   0.629327 0.691060 0.914333 -0.265591
C14   C     C_3   0.621566 0.697102 0.073762 0.191236
C15   C     C_R   0.500599 0.737603 0.500236 0.553720
C16   C     C_R   0.737881 0.492597 0.501436 0.558905
C17   C     C_R   0.118707 0.582549 0.754815 -0.091489
C18   C     C_R   0.061129 0.568705 0.884055 -0.142692
C19   C     C_R   0.948975 0.506515 0.891765 -0.146139
C20   C     C_R   0.888272 0.470484 0.769108 -0.094608
C21   C     C_R   0.939388 0.496716 0.635627 0.028207
C22   C     C_R   0.128409 0.520584 0.502893 -0.009683
C23   C     C_R   0.063207 0.499598 0.378113 -0.163283
C24   C     C_R   0.936366 0.488601 0.379563 -0.153572
C25   C     C_R   0.872699 0.487234 0.506836 0.002605
C26   C     C_R   0.548350 0.065784 0.607900 0.014294
C27   C     C_R   0.488488 0.129385 0.500983 0.065256
C28   C     C_R   0.419246 0.062527 0.400343 0.057435
Cu1   Cu    Cu3+1 0.499990 0.499980 0.640670 0.960476
Cu2   Cu    Cu3+1 0.500010 0.500020 0.359330 0.988908
H1    H     H_    0.110163 0.491581 0.278595 0.131229
H2    H     H_    0.804349 0.417679 0.781975 0.151274
H3    H     H_    0.888282 0.479106 0.280342 0.133577
H4    H     H_    0.370258 0.881027 0.323619 0.136797
H5    H     H_    0.693578 0.898756 0.763717 0.107468
H6    H     H_    0.751827 0.089001 0.456757 0.240529
H7    H     H_    0.851265 0.122851 0.587547 0.231026
H8    H     H_    0.351602 0.257910 0.880456 0.199384
H9    H     H_    0.245466 0.370968 0.884719 0.210748
H10   H     H_    0.765956 0.814861 0.115960 0.216772
H11   H     H_    0.806857 0.665370 0.108630 0.199135
H12   H     H_    0.745151 0.894873 0.577392 0.144240
H13   H     H_    0.438869 0.751275 0.073644 0.203676
H14   H     H_    0.541536 0.867570 0.094161 0.208669
H15   H     H_    0.379590 0.098126 0.197585 0.220483
H16   H     H_    0.256466 0.096097 0.305318 0.221431
H17   H     H_    0.687564 0.119864 0.762923 0.148503
H18   H     H_    0.353207 0.372251 0.130750 0.134101
H19   H     H_    0.724274 0.700385 0.872312 0.115187
H20   H     H_    0.558860 0.747815 0.860411 0.145010
H21   H     H_    0.205297 0.632609 0.753461 0.139682
H22   H     H_    0.105740 0.602231 0.978670 0.104901
H23   H     H_    0.907869 0.487770 0.992702 0.096765
N1    N     N_R   0.500790 0.500930 0.147930 -0.248434
N2    N     N_R   0.500790 0.500890 0.852020 -0.212609
N3    N     N_3   0.760508 0.134538 0.553327 -0.637541
N4    N     N_3   0.334300 0.349431 0.851335 -0.551137
N5    N     N_3   0.738609 0.725330 0.144403 -0.573039
N6    N     N_3   0.521665 0.776254 0.123226 -0.554949
N7    N     N_3   0.348072 0.125497 0.296206 -0.625985
O1    O     O_R   0.500000 0.319640 0.618810 -0.479070
O2    O     O_R   0.500010 0.319680 0.381230 -0.479069
O3    O     O_R   0.319640 0.499980 0.618820 -0.480837
O4    O     O_R   0.319650 0.500020 0.381230 -0.516838
O5    O     O_R   0.499990 0.680320 0.618770 -0.523121
O6    O     O_R   0.500000 0.680360 0.381190 -0.449529
O7    O     O_R   0.680350 0.499980 0.618770 -0.517294
O8    O     O_R   0.680360 0.500020 0.381180 -0.488342

loop_
_geom_bond_atom_site_label_1
_geom_bond_atom_site_label_2
_ccdc_geom_bond_type
C12   C17   A    
C2    C28   A    
C23   C24   A    
Cu1   O3    S    
H15   N7    S    
C6    C7    S    
C16   O8    A    
Cu2   O4    S    
H8    N4    S    
C11   C13   S    
C9    C10   A    
C4    O4    A    
C24   H3    S    
H13   N6    S    
C1    O2    A    
C19   H23   S    
C19   C20   A    
C28   N7    S    
C2    C3    A    
C15   O6    A    
C18   H22   S    
C16   O7    A    
Cu2   O8    S    
C13   C14   S    
C24   C25   A    
C14   N6    S    
Cu2   N1    S    
C4    O3    A    
C17   H21   S    
C26   C27   A    
Cu2   O6    S    
C7    C26   S    
C7    N3    S    
C8    C11   A    
C13   H19   S    
H6    N3    S    
C20   H2    S    
H11   N5    S    
C17   C18   A    
Cu1   O1    S    
Cu2   O2    S    
C10   N2    A    
C5    C6    S    
C14   N5    S    
Cu1   O5    S    
H10   N5    S    
H14   N6    S    
Cu1   Cu2   S    
C13   H20   S    
C15   O5    A    
C12   C22   A    
C27   C28   A    
C10   N4    S    
C11   N2    A    
C20   C21   A    
C9    H18   S    
C18   C19   A    
C6    H12   S    
C8    N1    A    
C16   C25   S    
C1    C27   S    
C4    C22   S    
C21   C25   A    
C22   C23   A    
C3    C15   S    
C8    C14   S    
C9    N1    A    
Cu1   N2    S    
H16   N7    S    
C2    H4    S    
Cu1   O7    S    
H7    N3    S    
C12   C21   A    
H9    N4    S    
C6    H5    S    
C5    C26   A    
C7    H17   S    
C3    C5    A    
C23   H1    S    
C1    O1    A    
