data_mof_unit_9724.cif
_audit_creation_date              2012-12-10T18:23:51-0500
_audit_creation_method            fapswitch 2.2
_symmetry_space_group_name_H-M    P1
_symmetry_Int_Tables_number       1
_space_group_crystal_system       triclinic
_cell_length_a                    22.467488
_cell_length_b                    22.461477
_cell_length_c                    14.636537
_cell_angle_alpha                 89.990911
_cell_angle_beta                  90.084888
_cell_angle_gamma                 89.997286
_cell_volume                      7386.36358571

loop_
_atom_site_label
_atom_site_type_symbol
_atom_type_description
_atom_site_fract_x
_atom_site_fract_y
_atom_site_fract_z
_atom_type_partial_charge
C1    C     C_R   0.419741 0.919723 0.499950 0.823749
C2    C     C_R   0.580258 0.080277 0.500050 0.823748
C3    C     C_R   0.580262 0.919730 0.500058 0.823799
C4    C     C_R   0.419738 0.080270 0.499942 0.823799
C5    C     C_R   0.919737 0.419729 0.499951 0.823782
C6    C     C_R   0.080263 0.580271 0.500049 0.823782
C7    C     C_R   0.080259 0.419723 0.500059 0.823784
C8    C     C_R   0.919741 0.580277 0.499941 0.823784
C9    C     C_1   0.337366 0.162849 0.499938 -0.067513
C10   C     C_1   0.662634 0.837151 0.500062 -0.067513
C11   C     C_1   0.662598 0.162896 0.500061 -0.067512
C12   C     C_1   0.337402 0.837104 0.499939 -0.067513
C13   C     C_1   0.837401 0.662896 0.499900 -0.067490
C14   C     C_1   0.162599 0.337104 0.500100 -0.067490
C15   C     C_1   0.162636 0.662849 0.500032 -0.067530
C16   C     C_1   0.837364 0.337151 0.499968 -0.067531
C17   C     C_1   0.499927 0.000011 0.194199 0.111049
C18   C     C_1   0.500073 0.999989 0.805801 0.111049
C19   C     C_1   0.999919 0.499999 0.194204 0.111057
C20   C     C_1   0.000081 0.500000 0.805796 0.111056
C21   C     C_3   0.536858 0.042912 0.969145 -0.187468
C22   C     C_3   0.463141 0.957088 0.030855 -0.187471
C23   C     C_3   0.481466 0.053454 0.030877 -0.187410
C24   C     C_3   0.518534 0.946546 0.969123 -0.187413
C25   C     C_3   0.027772 0.549287 0.969129 -0.187453
C26   C     C_3   0.972228 0.450713 0.030870 -0.187452
C27   C     C_3   0.971379 0.548802 0.030844 -0.187461
C28   C     C_3   0.028621 0.451198 0.969156 -0.187461
C29   C     C_3   0.701031 0.728371 0.540024 0.177251
C30   C     C_3   0.298969 0.271630 0.459976 0.177247
C31   C     C_3   0.299061 0.728279 0.460084 0.177210
C32   C     C_3   0.700939 0.271721 0.539917 0.177206
C33   C     C_3   0.200986 0.228307 0.540096 0.177185
C34   C     C_3   0.799014 0.771693 0.459904 0.177182
C35   C     C_3   0.799012 0.228342 0.460138 0.177269
C36   C     C_3   0.200987 0.771658 0.539862 0.177266
C37   C     C_3   0.230329 0.201736 0.453500 -0.243245
C38   C     C_3   0.769671 0.798264 0.546500 -0.243257
C39   C     C_3   0.769576 0.201829 0.546712 -0.243374
C40   C     C_3   0.230424 0.798171 0.453288 -0.243386
C41   C     C_3   0.730373 0.701800 0.453427 -0.243354
C42   C     C_3   0.269627 0.298200 0.546573 -0.243365
C43   C     C_3   0.269624 0.701766 0.546657 -0.243292
C44   C     C_3   0.730376 0.298234 0.453343 -0.243303
C45   C     C_1   0.375007 0.125082 0.499869 -0.182994
C46   C     C_1   0.624992 0.874918 0.500131 -0.182994
C47   C     C_1   0.624972 0.125111 0.500114 -0.182946
C48   C     C_1   0.375028 0.874889 0.499886 -0.182945
C49   C     C_1   0.875027 0.625111 0.499856 -0.182979
C50   C     C_1   0.124973 0.374889 0.500144 -0.182979
C51   C     C_1   0.124994 0.625083 0.500104 -0.182975
C52   C     C_1   0.875006 0.374917 0.499896 -0.182974
C53   C     C_3   0.262432 0.234715 0.586442 0.175877
C54   C     C_3   0.737568 0.765285 0.413558 0.175880
C55   C     C_3   0.737619 0.234723 0.413621 0.175817
C56   C     C_3   0.262381 0.765277 0.586379 0.175820
C57   C     C_3   0.762474 0.734781 0.586371 0.175856
C58   C     C_3   0.237526 0.265219 0.413628 0.175860
C59   C     C_3   0.237666 0.734659 0.413567 0.175884
C60   C     C_3   0.762334 0.265341 0.586433 0.175887
C61   C     C_3   0.291712 0.208789 0.500240 0.020748
C62   C     C_3   0.708288 0.791211 0.499759 0.020747
C63   C     C_3   0.708242 0.208852 0.499795 0.020716
C64   C     C_3   0.291757 0.791149 0.500205 0.020715
C65   C     C_3   0.791757 0.708851 0.500173 0.020730
C66   C     C_3   0.208243 0.291149 0.499826 0.020729
C67   C     C_3   0.208291 0.708790 0.499744 0.020736
C68   C     C_3   0.791709 0.291210 0.500257 0.020735
C69   C     C_3   0.554659 0.989596 0.030442 0.228751
C70   C     C_3   0.445341 0.010404 0.969558 0.228751
C71   C     C_3   0.055630 0.500479 0.030460 0.228789
C72   C     C_3   0.944370 0.499521 0.969540 0.228789
C73   C     C_3   0.499891 0.000021 0.091524 0.006353
C74   C     C_3   0.500108 0.999979 0.908476 0.006353
C75   C     C_3   0.999878 0.499999 0.091526 0.006355
C76   C     C_3   0.000122 0.500001 0.908473 0.006355
Cu1   Cu    Cu3+1 0.500000 0.000000 0.590220 0.968145
Cu2   Cu    Cu3+1 0.500000 0.000000 0.409780 0.968145
Cu3   Cu    Cu3+1 0.000000 0.500000 0.590220 0.968160
Cu4   Cu    Cu3+1 0.000000 0.500000 0.409780 0.968160
H1    H     H_    0.215182 0.161670 0.415634 0.147142
H2    H     H_    0.784818 0.838330 0.584366 0.147143
H3    H     H_    0.784687 0.161791 0.584703 0.147013
H4    H     H_    0.215313 0.838209 0.415297 0.147014
H5    H     H_    0.715225 0.661736 0.415556 0.147095
H6    H     H_    0.284775 0.338264 0.584444 0.147096
H7    H     H_    0.284734 0.661725 0.584644 0.147089
H8    H     H_    0.715265 0.338275 0.415357 0.147090
H9    H     H_    0.465811 0.097412 0.055799 0.134440
H10   H     H_    0.534189 0.902587 0.944201 0.134440
H11   H     H_    0.567553 0.078054 0.944240 0.134768
H12   H     H_    0.432447 0.921946 0.055760 0.134768
H13   H     H_    0.947438 0.588855 0.055745 0.134618
H14   H     H_    0.052562 0.411144 0.944255 0.134617
H15   H     H_    0.051016 0.589747 0.944207 0.134598
H16   H     H_    0.948983 0.410253 0.055793 0.134598
N1    N     N_1   0.499980 1.000000 0.274190 -0.154970
N2    N     N_1   0.500020 0.000000 0.725810 -0.154969
N3    N     N_1   0.999980 0.500000 0.274190 -0.154976
N4    N     N_1   0.000020 0.500000 0.725810 -0.154975
O1    O     O_R   0.439540 0.939530 0.576170 -0.573990
O2    O     O_R   0.560460 0.060470 0.423830 -0.573990
O3    O     O_R   0.560460 0.939530 0.423830 -0.574524
O4    O     O_R   0.439540 0.060470 0.576170 -0.574524
O5    O     O_R   0.939540 0.439530 0.576170 -0.574287
O6    O     O_R   0.060460 0.560470 0.423830 -0.574287
O7    O     O_R   0.060460 0.439530 0.423830 -0.574247
O8    O     O_R   0.939540 0.560470 0.576170 -0.574247
O9    O     O_R   0.439530 0.939530 0.423800 -0.570535
O10   O     O_R   0.560470 0.060470 0.576200 -0.570534
O11   O     O_R   0.560470 0.939530 0.576200 -0.570172
O12   O     O_R   0.439530 0.060470 0.423800 -0.570172
O13   O     O_R   0.939530 0.439530 0.423800 -0.570330
O14   O     O_R   0.060470 0.560470 0.576200 -0.570331
O15   O     O_R   0.060470 0.439530 0.576200 -0.570355
O16   O     O_R   0.939530 0.560470 0.423800 -0.570355
C77   C     C_3   0.382669 0.022326 0.933393 -0.417173
C78   C     C_3   0.338318 0.030842 0.011090 -0.837016
H17   H     H_    0.336308 0.990232 0.054274 0.250055
H18   H     H_    0.351334 0.069471 0.054060 0.250263
H19   H     H_    0.293363 0.039341 0.982314 0.241875
H20   H     H_    0.383405 0.063011 0.890251 0.201834
H21   H     H_    0.368389 0.984149 0.890393 0.201694
C79   C     C_3   0.617331 0.977674 0.066607 -0.417173
C80   C     C_3   0.661682 0.969162 0.988910 -0.837017
H22   H     H_    0.648666 0.930535 0.945934 0.250264
H23   H     H_    0.663694 0.009773 0.945732 0.250054
H24   H     H_    0.706637 0.960660 0.017686 0.241875
H25   H     H_    0.631610 0.015849 0.109610 0.201694
H26   H     H_    0.616595 0.936987 0.109745 0.201834
C81   C     C_3   0.880581 0.498972 0.933371 -0.417168
C82   C     C_3   0.835447 0.498580 0.011095 -0.836988
H27   H     H_    0.841403 0.458302 0.054174 0.250142
H28   H     H_    0.840704 0.538950 0.054161 0.250146
H29   H     H_    0.789688 0.498186 0.982359 0.241853
H30   H     H_    0.873346 0.539052 0.890296 0.201768
H31   H     H_    0.874042 0.458776 0.890310 0.201764
C83   C     C_3   0.119418 0.501028 0.066629 -0.417168
C84   C     C_3   0.164553 0.501420 0.988905 -0.836988
H32   H     H_    0.159296 0.461049 0.945839 0.250146
H33   H     H_    0.158597 0.541698 0.945826 0.250143
H34   H     H_    0.210312 0.501814 0.017641 0.241853
H35   H     H_    0.125958 0.541224 0.109690 0.201764
H36   H     H_    0.126654 0.460948 0.109704 0.201768
C85   C     C_3   0.642245 0.705987 0.579988 -0.389667
C86   C     C_3   0.646208 0.641243 0.610765 -0.846017
H37   H     H_    0.660850 0.612363 0.553474 0.249427
H38   H     H_    0.677717 0.636587 0.668635 0.254299
H39   H     H_    0.601703 0.626004 0.633887 0.240121
H40   H     H_    0.629007 0.734525 0.638380 0.202326
H41   H     H_    0.607198 0.709798 0.526684 0.197554
C87   C     C_3   0.357755 0.294013 0.420012 -0.389667
C88   C     C_3   0.353792 0.358755 0.389226 -0.846016
H42   H     H_    0.322289 0.363406 0.331348 0.254298
H43   H     H_    0.339142 0.387636 0.446511 0.249429
H44   H     H_    0.398299 0.373995 0.366113 0.240121
H45   H     H_    0.392801 0.290205 0.473319 0.197554
H46   H     H_    0.370996 0.265472 0.361624 0.202323
C89   C     C_3   0.357890 0.705865 0.420314 -0.389656
C90   C     C_3   0.353965 0.641098 0.389674 -0.845996
H47   H     H_    0.339276 0.612261 0.446999 0.249407
H48   H     H_    0.322509 0.636396 0.331748 0.254307
H49   H     H_    0.398494 0.625844 0.366681 0.240136
H50   H     H_    0.371186 0.734359 0.361890 0.202359
H51   H     H_    0.392882 0.709716 0.473694 0.197559
C91   C     C_3   0.642110 0.294134 0.579686 -0.389657
C92   C     C_3   0.646035 0.358900 0.610335 -0.845994
H52   H     H_    0.677485 0.363597 0.668269 0.254306
H53   H     H_    0.660731 0.387739 0.553017 0.249409
H54   H     H_    0.601505 0.374155 0.633319 0.240136
H55   H     H_    0.607118 0.290287 0.526303 0.197560
H56   H     H_    0.628811 0.265637 0.638106 0.202357
C93   C     C_3   0.142204 0.205924 0.580069 -0.389650
C94   C     C_3   0.146167 0.141178 0.610837 -0.846064
H57   H     H_    0.160798 0.112300 0.553536 0.249431
H58   H     H_    0.177685 0.136516 0.668694 0.254296
H59   H     H_    0.101664 0.125941 0.633974 0.240118
H60   H     H_    0.128973 0.234460 0.638468 0.202325
H61   H     H_    0.107151 0.209739 0.526772 0.197566
C95   C     C_3   0.857797 0.794076 0.419932 -0.389652
C96   C     C_3   0.853833 0.858820 0.389155 -0.846063
H62   H     H_    0.822321 0.863477 0.331290 0.254296
H63   H     H_    0.839195 0.887700 0.446449 0.249433
H64   H     H_    0.898337 0.874058 0.366027 0.240118
H65   H     H_    0.892848 0.790264 0.473231 0.197566
H66   H     H_    0.871030 0.765537 0.361537 0.202324
C97   C     C_3   0.857843 0.205928 0.420373 -0.389657
C98   C     C_3   0.853920 0.141160 0.389734 -0.846033
H67   H     H_    0.839226 0.112323 0.447056 0.249399
H68   H     H_    0.822468 0.136459 0.331802 0.254278
H69   H     H_    0.898450 0.125905 0.366749 0.240139
H70   H     H_    0.871142 0.234421 0.361951 0.202329
H71   H     H_    0.892833 0.209778 0.473757 0.197555
C99   C     C_3   0.142156 0.794072 0.579625 -0.389658
C100  C     C_3   0.146080 0.858838 0.610273 -0.846032
H72   H     H_    0.177526 0.863534 0.668213 0.254277
H73   H     H_    0.160781 0.887677 0.552958 0.249402
H74   H     H_    0.101548 0.874094 0.633250 0.240139
H75   H     H_    0.107167 0.790225 0.526239 0.197555
H76   H     H_    0.128854 0.765576 0.638044 0.202327
C101  C     C_3   0.718191 0.782797 0.316936 -0.386535
C102  C     C_3   0.752241 0.748538 0.243819 -0.846993
H77   H     H_    0.800012 0.760772 0.244821 0.254062
H78   H     H_    0.747654 0.699812 0.254547 0.250154
H79   H     H_    0.733956 0.759831 0.175468 0.240508
H80   H     H_    0.669948 0.773087 0.309415 0.199390
H81   H     H_    0.724551 0.831344 0.306972 0.202590
C103  C     C_3   0.281809 0.217204 0.683064 -0.386535
C104  C     C_3   0.247755 0.251458 0.756181 -0.846993
H82   H     H_    0.252330 0.300185 0.745446 0.250158
H83   H     H_    0.199988 0.239213 0.755187 0.254059
H84   H     H_    0.266047 0.240174 0.824531 0.240508
H85   H     H_    0.275454 0.168656 0.693026 0.202589
H86   H     H_    0.330052 0.226918 0.690586 0.199389
C105  C     C_3   0.281630 0.782814 0.683035 -0.386246
C106  C     C_3   0.247498 0.748558 0.756080 -0.847367
H87   H     H_    0.199726 0.760789 0.754936 0.254119
H88   H     H_    0.252104 0.699831 0.745402 0.250221
H89   H     H_    0.265699 0.759855 0.824475 0.240160
H90   H     H_    0.329867 0.773115 0.690706 0.199547
H91   H     H_    0.275239 0.831361 0.692928 0.202532
C107  C     C_3   0.718369 0.217187 0.316966 -0.386246
C108  C     C_3   0.752505 0.251439 0.243920 -0.847366
H92   H     H_    0.747912 0.300166 0.254604 0.250224
H93   H     H_    0.800274 0.239196 0.245056 0.254116
H94   H     H_    0.734297 0.240150 0.175526 0.240160
H95   H     H_    0.724756 0.168640 0.307073 0.202531
H96   H     H_    0.670133 0.226890 0.309293 0.199546
C109  C     C_3   0.218170 0.282695 0.316984 -0.386615
C110  C     C_3   0.252224 0.248391 0.243917 -0.846692
H97   H     H_    0.299997 0.260613 0.244919 0.254060
H98   H     H_    0.247625 0.199670 0.254695 0.250345
H99   H     H_    0.233951 0.259651 0.175545 0.240312
H100  H     H_    0.169925 0.272995 0.309456 0.199502
H101  H     H_    0.224547 0.331235 0.306976 0.202535
C111  C     C_3   0.781830 0.717306 0.683015 -0.386614
C112  C     C_3   0.747773 0.751606 0.756083 -0.846691
H102  H     H_    0.752359 0.800327 0.745299 0.250348
H103  H     H_    0.700002 0.739372 0.755089 0.254057
H104  H     H_    0.766051 0.740353 0.824454 0.240311
H105  H     H_    0.775457 0.668765 0.693023 0.202534
H106  H     H_    0.830074 0.727010 0.690545 0.199501
C113  C     C_3   0.781597 0.282903 0.683073 -0.386355
C114  C     C_3   0.747463 0.248682 0.756152 -0.847380
H107  H     H_    0.699695 0.260926 0.755008 0.254178
H108  H     H_    0.752056 0.199951 0.745509 0.250069
H109  H     H_    0.765674 0.259998 0.824534 0.240267
H110  H     H_    0.829832 0.273195 0.690743 0.199463
H111  H     H_    0.775221 0.331455 0.692933 0.202524
C115  C     C_3   0.218403 0.717098 0.316927 -0.386354
C116  C     C_3   0.252541 0.751314 0.243848 -0.847379
H112  H     H_    0.247961 0.800046 0.254498 0.250072
H113  H     H_    0.300306 0.739058 0.244984 0.254175
H114  H     H_    0.234323 0.740006 0.175467 0.240267
H115  H     H_    0.224774 0.668544 0.307068 0.202523
H116  H     H_    0.170168 0.726810 0.309256 0.199462

loop_
_geom_bond_atom_site_label_1
_geom_bond_atom_site_label_2
_ccdc_geom_bond_type
Cu1   Cu2   S    
C9    C45   T    
C103  H85   S    
C113  H111  S    
C4    O4    A    
C32   C91   S    
Cu2   O2    S    
C26   C72   S    
C101  C102  S    
C40   H4    S    
C37   C58   S    
C11   C47   T    
C108  H92   S    
C101  H81   S    
C106  H89   S    
C72   C76   S    
C104  H84   S    
C85   C86   S    
C36   C67   S    
C116  H112  S    
C92   H53   S    
C13   C65   S    
C96   H62   S    
C114  H107  S    
C91   H56   S    
Cu4   O7    S    
Cu3   O5    S    
C102  H78   S    
C98   H69   S    
C9    C61   S    
C93   H60   S    
C28   H14   S    
C106  H88   S    
Cu3   O15   S    
C83   H35   S    
C42   C53   S    
C29   C85   S    
C12   C64   S    
C84   H34   S    
C116  H113  S    
C93   H61   S    
C70   C77   S    
C111  H106  S    
C113  C114  S    
C86   H39   S    
Cu4   O6    S    
C53   C103  S    
C111  C112  S    
C20   C76   S    
C110  H99   S    
C98   H68   S    
C5    O13   A    
C31   C59   S    
C109  H100  S    
Cu1   O11   S    
C78   H17   S    
C6    O14   A    
C56   C105  S    
C107  H95   S    
C59   C67   S    
C94   H57   S    
Cu1   O1    S    
C58   C66   S    
C99   H76   S    
Cu4   O16   S    
C3    O11   A    
C103  C104  S    
C102  H79   S    
C55   C63   S    
C70   C74   S    
C80   H24   S    
C101  H80   S    
C56   C64   S    
C5    C52   S    
C69   C73   S    
C16   C68   S    
C15   C51   T    
C6    C51   S    
C88   H43   S    
C33   C93   S    
C85   H40   S    
C12   C48   T    
C100  H74   S    
C1    O9    A    
C99   C100  S    
C4    O12   A    
Cu2   N1    S    
C91   H55   S    
C18   C74   S    
C40   C59   S    
C112  H102  S    
C38   H2    S    
C7    O7    A    
C17   C73   S    
C23   C70   S    
C37   H1    S    
C10   C62   S    
C53   C61   S    
C23   C73   S    
C27   C75   S    
C8    O8    A    
C34   C65   S    
C8    C49   S    
C24   C69   S    
C104  H82   S    
C71   C83   S    
C86   H38   S    
C4    C45   S    
C96   H63   S    
C33   C53   S    
C87   H46   S    
C108  H94   S    
C102  H77   S    
C14   C50   T    
C35   C55   S    
C90   H49   S    
Cu3   N4    S    
C36   C40   S    
C106  H87   S    
C7    C50   S    
C81   H30   S    
C95   H65   S    
C92   H52   S    
C19   N3    T    
C82   H27   S    
C116  H114  S    
C5    O5    A    
C100  H72   S    
C54   C62   S    
C69   C79   S    
C44   H8    S    
C115  C116  S    
C93   C94   S    
C21   C74   S    
C33   C37   S    
C89   H51   S    
C21   C69   S    
C98   H67   S    
C78   H19   S    
C90   H48   S    
C111  H105  S    
C109  H101  S    
C35   C39   S    
C77   H20   S    
C10   C46   T    
C109  C110  S    
C36   C56   S    
C38   C57   S    
C30   C87   S    
C89   C90   S    
C20   N4    T    
C107  H96   S    
C89   H50   S    
C113  H110  S    
C15   C67   S    
C33   C66   S    
C59   C115  S    
C23   H9    S    
C26   C75   S    
C14   C66   S    
C79   H26   S    
Cu1   N2    S    
C25   C71   S    
C87   C88   S    
C88   H44   S    
C110  H98   S    
C6    O6    A    
C94   H59   S    
C60   C68   S    
C97   H70   S    
C85   H41   S    
C31   C43   S    
C55   C107  S    
C42   H6    S    
C92   H54   S    
C35   C97   S    
C29   C57   S    
C25   H15   S    
C112  H103  S    
Cu4   N3    S    
C91   C92   S    
C13   C49   T    
C112  H104  S    
C28   C71   S    
C32   C60   S    
C81   C82   S    
C28   C76   S    
C1    O1    A    
C97   H71   S    
C57   C111  S    
C41   H5    S    
C95   C96   S    
C72   C81   S    
C42   C66   S    
C86   H37   S    
C21   H11   S    
C96   H64   S    
C3    O3    A    
C115  H115  S    
Cu3   O14   S    
C29   C62   S    
C2    O10   A    
C60   C113  S    
C103  H86   S    
C37   C61   S    
C115  H116  S    
C29   C41   S    
Cu2   O3    S    
C34   C38   S    
C31   C64   S    
C7    O15   A    
C22   H12   S    
C16   C52   T    
C32   C63   S    
C57   C65   S    
C24   H10   S    
C41   C65   S    
C84   H32   S    
C108  H93   S    
C1    C48   S    
C34   C54   S    
C2    C47   S    
C25   C27   S    
C54   C101  S    
C39   C63   S    
C3    C46   S    
C26   C28   S    
C40   C64   S    
C114  H109  S    
C95   H66   S    
C25   C76   S    
C43   H7    S    
C90   H47   S    
C26   H16   S    
C36   C99   S    
C21   C23   S    
C77   H21   S    
C39   H3    S    
C97   C98   S    
C58   C109  S    
C83   H36   S    
C105  H90   S    
C71   C75   S    
C84   H33   S    
C44   C55   S    
C24   C74   S    
C80   H22   S    
C35   C68   S    
C82   H29   S    
C82   H28   S    
C39   C60   S    
C30   C58   S    
C19   C75   S    
C104  H83   S    
C94   H58   S    
C114  H108  S    
C79   H25   S    
C87   H45   S    
Cu2   O9    S    
C22   C24   S    
C105  C106  S    
C110  H97   S    
C107  C108  S    
Cu3   O8    S    
C78   H18   S    
C41   C54   S    
C27   H13   S    
C83   C84   S    
C8    O16   A    
Cu3   Cu4   S    
C99   H75   S    
C43   C56   S    
C79   C80   S    
Cu4   O13   S    
C32   C44   S    
C43   C67   S    
C34   C95   S    
C30   C61   S    
C80   H23   S    
C2    O2    A    
C44   C68   S    
C30   C42   S    
Cu1   O4    S    
Cu2   O12   S    
C18   N2    T    
C22   C73   S    
C38   C62   S    
C88   H42   S    
C77   C78   S    
C11   C63   S    
C17   N1    T    
Cu1   O10   S    
C22   C70   S    
C31   C89   S    
C27   C72   S    
C105  H91   S    
C81   H31   S    
C100  H73   S    
