data_mof_unit_49755.cif
_audit_creation_date              2012-10-26T20:13:50-0400
_audit_creation_method            fapswitch 2.2
_symmetry_space_group_name_H-M    P1
_symmetry_Int_Tables_number       1
_space_group_crystal_system       triclinic
_cell_length_a                    8.720503
_cell_length_b                    10.910412
_cell_length_c                    9.58734
_cell_angle_alpha                 91.501206
_cell_angle_beta                  97.410487
_cell_angle_gamma                 91.283641
_cell_volume                      903.945324234

loop_
_atom_site_label
_atom_site_type_symbol
_atom_type_description
_atom_site_fract_x
_atom_site_fract_y
_atom_site_fract_z
_atom_type_partial_charge
C1    C     C_R   0.496086 0.262847 0.497215 0.544864
C2    C     C_R   0.620582 0.552200 0.941881 0.133610
C3    C     C_3   0.672184 0.682292 0.943873 -0.265155
C4    C     C_R   0.204122 0.499141 0.464148 0.544427
C5    C     C_3   0.670836 0.685419 0.102184 -0.147099
C6    C     C_R   0.497887 0.737309 0.501122 0.549328
C7    C     C_R   0.795834 0.500775 0.535817 0.545570
C8    C     C_2   0.038388 0.496176 0.444369 -0.164344
C9    C     C_2   0.961507 0.503679 0.555491 -0.166049
C10   C     C_R   0.529834 0.067924 0.613781 0.020429
C11   C     C_R   0.489701 0.130029 0.491049 0.015688
C12   C     C_R   0.443373 0.928641 0.372116 -0.140705
C13   C     C_R   0.441891 0.057860 0.365777 -0.030471
C14   C     C_3   0.267145 0.350778 0.834153 -0.356240
C15   C     C_3   0.831134 0.707420 0.185628 -0.406251
C16   C     C_3   0.387257 0.113424 0.226080 -0.385016
C17   C     C_3   0.754911 0.144006 0.789118 -0.403626
C18   C     C_R   0.488606 0.869907 0.499922 -0.010626
C19   C     C_R   0.525868 0.944552 0.619434 -0.003080
C20   C     C_3   0.584692 0.947635 0.772813 -0.256885
C21   C     C_3   0.590590 0.088122 0.765185 -0.121808
C22   C     C_R   0.620287 0.553213 0.089216 0.171991
C23   C     C_R   0.391871 0.435475 0.061948 -0.002343
C24   C     C_R   0.391954 0.432474 0.913897 0.101653
Cu1   Cu    Cu3+1 0.499990 0.499980 0.640670 0.918291
Cu2   Cu    Cu3+1 0.500010 0.500020 0.359330 0.919874
H1    H     H_    0.979326 0.486799 0.337554 0.123748
H2    H     H_    0.303619 0.385121 0.108183 0.116662
H3    H     H_    0.152986 0.392555 0.838357 0.100153
H4    H     H_    0.280875 0.328924 0.724855 0.200100
H5    H     H_    0.265386 0.260626 0.885388 0.066445
H6    H     H_    0.823890 0.700025 0.299731 0.170101
H7    H     H_    0.915066 0.640375 0.153583 0.132407
H8    H     H_    0.873899 0.801436 0.167035 0.126161
H9    H     H_    0.291164 0.176415 0.237596 0.137324
H10   H     H_    0.484424 0.163514 0.186628 0.156461
H11   H     H_    0.343236 0.042384 0.144729 0.101507
H12   H     H_    0.788030 0.693741 0.908394 0.127460
H13   H     H_    0.831130 0.098268 0.720347 0.136323
H14   H     H_    0.752465 0.243241 0.766745 0.173219
H15   H     H_    0.804296 0.133628 0.900701 0.122769
H16   H     H_    0.579418 0.736007 0.888504 0.140352
H17   H     H_    0.581530 0.746480 0.136429 0.152716
H18   H     H_    0.020424 0.513318 0.662218 0.123568
H19   H     H_    0.408906 0.873999 0.276768 0.128344
H20   H     H_    0.494450 0.916568 0.836769 0.113363
H21   H     H_    0.699942 0.905584 0.794942 0.135252
H22   H     H_    0.507473 0.134838 0.826125 0.145222
N1    N     N_R   0.500980 0.500930 0.148050 -0.251077
N2    N     N_R   0.500990 0.500890 0.852140 -0.226750
O1    O     O_R   0.500000 0.319640 0.618810 -0.523272
O2    O     O_R   0.500020 0.319680 0.381230 -0.506313
O3    O     O_R   0.274830 0.499980 0.591380 -0.510042
O4    O     O_R   0.274850 0.500020 0.353800 -0.508068
O5    O     O_R   0.499980 0.680320 0.618770 -0.497692
O6    O     O_R   0.500000 0.680360 0.381190 -0.512606
O7    O     O_R   0.725150 0.499980 0.646200 -0.503241
O8    O     O_R   0.725170 0.500020 0.408620 -0.496622

loop_
_geom_bond_atom_site_label_1
_geom_bond_atom_site_label_2
_ccdc_geom_bond_type
C16   H11   S    
C2    C22   A    
C23   C24   A    
Cu1   O1    S    
C3    H16   S    
Cu2   O2    S    
C4    O3    A    
C1    O1    A    
C6    O5    A    
C15   H8    S    
C19   C20   S    
C1    C11   S    
C14   H5    S    
C4    C8    S    
C21   H22   S    
C13   C16   S    
C2    C3    S    
C5    H17   S    
C15   H6    S    
C16   H9    S    
C23   H2    S    
C16   H10   S    
C7    O7    A    
C12   C13   A    
C11   C13   A    
Cu1   O7    S    
C14   H4    S    
C22   N1    A    
Cu2   O4    S    
C10   C19   A    
Cu1   O3    S    
C6    O6    A    
C10   C21   S    
C24   N2    A    
C6    C18   S    
C1    O2    A    
C17   H15   S    
C23   N1    A    
C20   H21   S    
C5    C15   S    
C10   C11   A    
C14   H3    S    
C12   C18   A    
C7    O8    A    
C20   H20   S    
C20   C21   S    
C18   C19   A    
C17   H13   S    
Cu2   N1    S    
C14   C24   S    
C7    C9    S    
C8    H1    S    
Cu1   N2    S    
C12   H19   S    
C9    H18   S    
C2    N2    A    
C4    O4    A    
Cu1   Cu2   S    
Cu2   O8    S    
C17   C21   S    
C5    C22   S    
Cu1   O5    S    
C3    H12   S    
C15   H7    S    
C8    C9    D    
C3    C5    S    
C17   H14   S    
Cu2   O6    S    
