data_mof_unit_36483.cif
_audit_creation_date              2012-12-10T17:43:39-0500
_audit_creation_method            fapswitch 2.2
_symmetry_space_group_name_H-M    P1
_symmetry_Int_Tables_number       1
_space_group_crystal_system       triclinic
_cell_length_a                    14.988777
_cell_length_b                    10.647489
_cell_length_c                    9.962747
_cell_angle_alpha                 88.750906
_cell_angle_beta                  90.389158
_cell_angle_gamma                 92.42398
_cell_volume                      1588.15546804

loop_
_atom_site_label
_atom_site_type_symbol
_atom_type_description
_atom_site_fract_x
_atom_site_fract_y
_atom_site_fract_z
_atom_type_partial_charge
C1    C     C_R   0.505090 0.261211 0.501144 0.913409
C2    C     C_R   0.186098 0.516863 0.621208 -0.246344
C3    C     C_R   0.230867 0.502778 0.499955 -0.090853
C4    C     C_R   0.326826 0.500296 0.499807 0.912466
C5    C     C_R   0.184022 0.492866 0.378787 -0.247720
C6    C     C_R   0.642812 0.132850 0.656369 -0.311203
C7    C     C_R   0.708560 0.067651 0.728986 0.607522
C8    C     C_R   0.707530 0.937059 0.722823 -0.200001
C9    C     C_R   0.644519 0.871916 0.644886 -0.253995
C10   C     C_R   0.577392 0.935881 0.574171 0.052412
C11   C     C_R   0.577105 0.067332 0.578796 0.020839
C12   C     C_R   0.906557 0.497257 0.377483 0.112065
C13   C     C_R   0.512019 0.129031 0.501750 -0.152229
C14   C     C_R   0.452322 0.064663 0.417951 -0.306375
C15   C     C_R   0.449877 0.936204 0.416638 0.461745
C16   C     C_R   0.503490 0.739353 0.498694 0.891436
C17   C     C_R   0.511333 0.872296 0.495887 -0.202979
C18   C     C_R   0.366008 0.364458 0.145553 -0.301813
C19   C     C_R   0.286428 0.324126 0.082344 0.463335
C20   C     C_R   0.281746 0.333713 0.944419 -0.384234
C21   C     C_R   0.359893 0.360750 0.870684 0.438282
C22   C     C_R   0.432202 0.432618 0.930254 0.056130
C23   C     C_R   0.955985 0.540208 0.741892 -0.231775
C24   C     C_R   0.433332 0.433406 0.074420 0.067165
C25   C     C_R   0.563872 0.563750 0.070259 -0.077240
C26   C     C_R   0.563933 0.563632 0.927576 -0.114926
C27   C     C_R   0.673211 0.502391 0.500201 0.851071
C28   C     C_R   0.814321 0.495020 0.378802 -0.244685
C29   C     C_R   0.769333 0.508415 0.499914 -0.065470
C30   C     C_R   0.816171 0.527804 0.620043 -0.303910
C31   C     C_R   0.908510 0.527340 0.621106 0.121764
C32   C     C_R   0.953904 0.511696 0.499371 0.064965
C33   C     C_3   0.800492 0.245721 0.767622 -0.308372
C34   C     C_R   0.048578 0.536404 0.742361 -0.212274
C35   C     C_3   0.306599 0.859756 0.393533 0.080629
C36   C     C_3   0.239588 0.803321 0.294198 -0.797863
C37   C     C_3   0.233506 0.181006 0.243748 -0.326829
C38   C     C_3   0.355551 0.170619 0.760867 0.125554
C39   C     C_3   0.282591 0.125282 0.664523 -0.886164
C40   C     C_R   0.093975 0.521020 0.621828 0.109861
C41   C     C_R   0.046614 0.509471 0.499601 0.051447
C42   C     C_R   0.091943 0.495154 0.377623 0.117222
C43   C     C_R   0.044633 0.483252 0.256662 -0.175724
C44   C     C_R   0.951998 0.483674 0.256679 -0.226872
H1    H     H_    0.777760 0.481474 0.285545 0.164228
H2    H     H_    0.921490 0.551732 0.835813 0.142850
H3    H     H_    0.084616 0.545319 0.836610 0.148251
H4    H     H_    0.222715 0.525695 0.715007 0.168224
H5    H     H_    0.219107 0.484362 0.285123 0.196234
H6    H     H_    0.079170 0.472633 0.162599 0.173931
H7    H     H_    0.915942 0.473039 0.162648 0.146357
H8    H     H_    0.405448 0.114413 0.355624 0.149382
H9    H     H_    0.751765 0.315833 0.796763 0.171638
H10   H     H_    0.812812 0.249432 0.657417 0.167629
H11   H     H_    0.864715 0.271680 0.817856 0.203389
H12   H     H_    0.643473 0.233872 0.660242 0.162041
H13   H     H_    0.281954 0.951957 0.424384 0.125958
H14   H     H_    0.310003 0.795546 0.483017 0.133430
H15   H     H_    0.264270 0.714373 0.255293 0.267894
H16   H     H_    0.174359 0.783760 0.344316 0.212521
H17   H     H_    0.230148 0.869996 0.208510 0.243671
H18   H     H_    0.259628 0.222632 0.338008 0.154594
H19   H     H_    0.281109 0.114911 0.201496 0.169818
H20   H     H_    0.171658 0.125162 0.269786 0.204542
H21   H     H_    0.339967 0.132507 0.863600 0.122873
H22   H     H_    0.418694 0.127535 0.733758 0.170926
H23   H     H_    0.757216 0.885277 0.777682 0.157809
H24   H     H_    0.276482 0.020976 0.668081 0.209144
H25   H     H_    0.217687 0.163425 0.692635 0.259381
H26   H     H_    0.299321 0.157546 0.560864 0.240716
H27   H     H_    0.650232 0.771311 0.639670 0.169986
H28   H     H_    0.616164 0.616275 0.122702 0.136986
H29   H     H_    0.374097 0.340973 0.248769 0.220267
H30   H     H_    0.222506 0.295671 0.894360 0.194324
H31   H     H_    0.780906 0.540735 0.713106 0.155148
H32   H     H_    0.616217 0.616034 0.873571 0.133354
N1    N     N_R   0.499150 0.498800 0.142780 -0.092825
N2    N     N_R   0.499120 0.498720 0.857170 -0.100694
O1    O     O_R   0.500000 0.316780 0.614690 -0.570398
O2    O     O_3   0.390850 0.873480 0.331288 -0.588511
O3    O     O_3   0.211454 0.276394 0.150543 -0.601501
O4    O     O_3   0.367233 0.303953 0.748804 -0.553347
O5    O     O_R   0.499990 0.316750 0.385360 -0.638245
O6    O     O_R   0.367850 0.499980 0.614680 -0.571022
O7    O     O_R   0.367840 0.499960 0.385350 -0.648014
O8    O     O_R   0.500010 0.683250 0.614640 -0.637168
O9    O     O_R   0.500000 0.683220 0.385310 -0.564620
O10   O     O_R   0.632160 0.500040 0.614650 -0.653090
O11   O     O_R   0.632150 0.500020 0.385320 -0.628438
O12   O     O_3   0.771973 0.124511 0.813428 -0.611200
Zn1   Zn    Zn3+2 0.500010 0.500020 0.653130 0.969140
Zn2   Zn    Zn3+2 0.499990 0.499980 0.346870 0.962963

loop_
_geom_bond_atom_site_label_1
_geom_bond_atom_site_label_2
_ccdc_geom_bond_type
C33   H11   S    
C5    C42   A    
N1    Zn2   S    
C27   C29   S    
C41   C42   A    
C19   C20   A    
C36   H15   S    
C37   O3    S    
C37   H18   S    
C7    C8    A    
O5    Zn2   S    
C26   N2    A    
C12   C28   A    
C35   H14   S    
C25   N1    A    
C21   C22   A    
C28   C29   A    
O8    Zn1   S    
C30   C31   A    
C10   C17   A    
C35   O2    S    
C18   C19   A    
C39   H24   S    
C14   H8    S    
C31   C32   A    
C8    C9    A    
C16   O9    A    
C26   H32   S    
C32   C41   A    
C38   H21   S    
C18   C24   A    
O6    Zn1   S    
C9    C10   A    
O1    Zn1   S    
C23   H2    S    
C13   C14   A    
C38   O4    S    
C16   O8    A    
C5    H5    S    
C37   H19   S    
O7    Zn2   S    
C33   H9    S    
C28   H1    S    
C38   H22   S    
C22   N2    A    
C6    C11   A    
C16   C17   S    
C4    O7    A    
C2    H4    S    
C25   C26   A    
C7    O12   S    
C35   C36   S    
C23   C31   A    
C43   C44   A    
C29   C30   A    
C15   O2    S    
C4    O6    A    
O10   Zn1   S    
C23   C34   A    
C39   H25   S    
C20   H30   S    
C25   H28   S    
C21   O4    S    
O11   Zn2   S    
C44   H7    S    
C40   C41   A    
C18   H29   S    
C1    O1    A    
C22   C24   A    
C1    C13   S    
C42   C43   A    
C36   H17   S    
C3    C5    A    
C37   H20   S    
C33   H10   S    
C15   C17   A    
C9    H27   S    
C6    H12   S    
C36   H16   S    
C43   H6    S    
C6    C7    A    
N2    Zn1   S    
C1    O5    A    
C35   H13   S    
C2    C3    A    
C12   C44   A    
C19   O3    S    
C33   O12   S    
C30   H31   S    
C11   C13   A    
C38   C39   S    
C39   H26   S    
C27   O11   A    
C27   O10   A    
C10   C11   A    
C2    C40   A    
C24   N1    A    
C20   C21   A    
C8    H23   S    
C14   C15   A    
C34   C40   A    
C34   H3    S    
O9    Zn2   S    
C12   C32   A    
C3    C4    S    
