data_mof_unit_20710.cif
_audit_creation_date              2012-12-10T17:43:41-0500
_audit_creation_method            fapswitch 2.2
_symmetry_space_group_name_H-M    P1
_symmetry_Int_Tables_number       1
_space_group_crystal_system       triclinic
_cell_length_a                    15.000039
_cell_length_b                    10.628143
_cell_length_c                    9.91287
_cell_angle_alpha                 89.923707
_cell_angle_beta                  89.955691
_cell_angle_gamma                 91.681927
_cell_volume                      1579.65232644

loop_
_atom_site_label
_atom_site_type_symbol
_atom_type_description
_atom_site_fract_x
_atom_site_fract_y
_atom_site_fract_z
_atom_type_partial_charge
C1    C     C_R   0.502343 0.260729 0.500104 0.852322
C2    C     C_R   0.184866 0.492528 0.377167 -0.268555
C3    C     C_R   0.230647 0.493678 0.500096 -0.074594
C4    C     C_R   0.326686 0.498480 0.500059 0.879267
C5    C     C_R   0.184693 0.489546 0.622977 -0.264563
C6    C     C_R   0.651941 0.137320 0.624088 -0.173084
C7    C     C_R   0.721954 0.074476 0.684153 -0.131505
C8    C     C_R   0.722025 0.943538 0.684026 -0.137708
C9    C     C_R   0.652125 0.874987 0.623722 -0.189469
C10   C     C_R   0.580047 0.937288 0.563643 0.094526
C11   C     C_R   0.579926 0.069207 0.563875 0.097877
C12   C     C_R   0.906950 0.488141 0.623823 0.121449
C13   C     C_R   0.508460 0.128687 0.499902 -0.086116
C14   C     C_R   0.441046 0.061887 0.432515 -0.215279
C15   C     C_R   0.441192 0.933350 0.432256 -0.198196
C16   C     C_R   0.502645 0.739451 0.499880 0.874402
C17   C     C_R   0.508734 0.872014 0.499403 -0.100193
C18   C     C_R   0.382361 0.335969 0.140409 -0.161184
C19   C     C_R   0.324079 0.255631 0.070385 -0.202855
C20   C     C_R   0.324084 0.255602 0.930743 -0.194653
C21   C     C_R   0.382401 0.335872 0.860309 -0.157871
C22   C     C_R   0.442014 0.419167 0.927870 0.168289
C23   C     C_R   0.953699 0.491531 0.253665 -0.220397
C24   C     C_R   0.442010 0.419221 0.072468 0.171838
C25   C     C_R   0.555582 0.577163 0.071311 -0.116463
C26   C     C_R   0.555559 0.577139 0.928185 -0.116273
C27   C     C_R   0.673297 0.499497 0.499958 0.864998
C28   C     C_R   0.814831 0.491510 0.622883 -0.279783
C29   C     C_R   0.769185 0.495606 0.499986 -0.073320
C30   C     C_R   0.815081 0.494720 0.377110 -0.251552
C31   C     C_R   0.907188 0.491306 0.376183 0.117275
C32   C     C_R   0.953411 0.488679 0.500010 0.061572
C33   C     C_R   0.046303 0.490814 0.253676 -0.219056
C34   C     C_R   0.092633 0.489982 0.376210 0.119335
C35   C     C_R   0.046156 0.488034 0.500026 0.060345
C36   C     C_R   0.092434 0.486939 0.623865 0.118917
C37   C     C_R   0.045872 0.484700 0.746354 -0.219248
C38   C     C_R   0.953250 0.485320 0.746333 -0.226437
H1    H     H_    0.778923 0.491468 0.717902 0.162110
H2    H     H_    0.918540 0.493148 0.158211 0.140734
H3    H     H_    0.081645 0.491922 0.158233 0.144153
H4    H     H_    0.220776 0.494679 0.282126 0.167486
H5    H     H_    0.220484 0.489305 0.718016 0.167070
H6    H     H_    0.081052 0.483476 0.841810 0.144488
H7    H     H_    0.917917 0.484531 0.841774 0.140922
H8    H     H_    0.387254 0.109534 0.382534 0.139237
H9    H     H_    0.655691 0.238998 0.623649 0.153658
H10   H     H_    0.776854 0.894910 0.729541 0.137546
H11   H     H_    0.601005 0.640221 0.124899 0.146828
H12   H     H_    0.776739 0.127596 0.729716 0.139903
H13   H     H_    0.378724 0.329868 0.247371 0.199274
H14   H     H_    0.656013 0.773566 0.622914 0.143001
H15   H     H_    0.387487 0.881298 0.382159 0.154105
H16   H     H_    0.278799 0.192780 0.125006 0.148573
H17   H     H_    0.278786 0.192748 0.876455 0.152263
H18   H     H_    0.378844 0.329707 0.753339 0.203911
H19   H     H_    0.779376 0.497282 0.282086 0.162107
H20   H     H_    0.600949 0.640209 0.874224 0.143785
N1    N     N_R   0.499150 0.498800 0.142780 -0.122528
N2    N     N_R   0.499120 0.498720 0.857170 -0.122141
O1    O     O_R   0.500000 0.316780 0.614690 -0.640864
O2    O     O_R   0.499990 0.316750 0.385360 -0.628928
O3    O     O_R   0.367850 0.499980 0.614680 -0.640103
O4    O     O_R   0.367840 0.499960 0.385350 -0.644784
O5    O     O_R   0.500010 0.683250 0.614640 -0.614156
O6    O     O_R   0.500000 0.683220 0.385310 -0.611304
O7    O     O_R   0.632160 0.500040 0.614650 -0.639006
O8    O     O_R   0.632150 0.500020 0.385320 -0.619865
Zn1   Zn    Zn3+2 0.500010 0.500020 0.653130 0.930366
Zn2   Zn    Zn3+2 0.499990 0.499980 0.346870 0.938099

loop_
_geom_bond_atom_site_label_1
_geom_bond_atom_site_label_2
_ccdc_geom_bond_type
C8    C9    A    
C21   H18   S    
C8    H10   S    
C6    C7    A    
C18   C24   A    
O4    Zn2   S    
C27   C29   S    
C26   H20   S    
C9    C10   A    
C4    O4    A    
C32   C35   A    
C38   H7    S    
C31   C32   A    
C28   H1    S    
C3    C5    A    
C33   H3    S    
C1    O2    A    
C2    C34   A    
C37   H6    S    
C33   C34   A    
C5    H5    S    
C7    C8    A    
C14   H8    S    
O6    Zn2   S    
C21   C22   A    
C12   C32   A    
O7    Zn1   S    
C12   C38   A    
C11   C13   A    
C4    O3    A    
C29   C30   A    
C9    H14   S    
N2    Zn1   S    
C2    H4    S    
C24   N1    A    
O5    Zn1   S    
C15   H15   S    
C19   H16   S    
C28   C29   A    
C37   C38   A    
C12   C28   A    
C18   H13   S    
C2    C3    A    
C25   H11   S    
C20   H17   S    
C22   N2    A    
C30   C31   A    
C16   C17   S    
C22   C24   A    
C27   O7    A    
C10   C11   A    
C10   C17   A    
C23   H2    S    
C5    C36   A    
O3    Zn1   S    
C1    C13   S    
C20   C21   A    
O2    Zn2   S    
O8    Zn2   S    
C34   C35   A    
C6    H9    S    
O1    Zn1   S    
C6    C11   A    
C15   C17   A    
C18   C19   A    
C14   C15   A    
C36   C37   A    
C16   O6    A    
C16   O5    A    
C25   N1    A    
C27   O8    A    
N1    Zn2   S    
C25   C26   A    
C13   C14   A    
C26   N2    A    
C3    C4    S    
C19   C20   A    
C7    H12   S    
C23   C31   A    
C30   H19   S    
C23   C33   A    
C35   C36   A    
C1    O1    A    
