data_mof_unit_15981.cif
_audit_creation_date              2012-12-11T15:41:26-0500
_audit_creation_method            fapswitch 2.2
_symmetry_space_group_name_H-M    P1
_symmetry_Int_Tables_number       1
_space_group_crystal_system       triclinic
_cell_length_a                    19.061387
_cell_length_b                    10.966851
_cell_length_c                    18.764307
_cell_angle_alpha                 90.11481
_cell_angle_beta                  90.121483
_cell_angle_gamma                 90.171774
_cell_volume                      3922.5199962

loop_
_atom_site_label
_atom_site_type_symbol
_atom_type_description
_atom_site_fract_x
_atom_site_fract_y
_atom_site_fract_z
_atom_type_partial_charge
C1    C     C_R   0.709881 0.998964 0.861444 0.558039
C2    C     C_R   0.303981 0.453282 0.036722 0.019422
C3    C     C_R   0.773853 0.813090 0.360963 0.575206
C4    C     C_2   0.496848 0.169978 0.920915 -0.099871
C5    C     C_2   0.501989 0.169743 0.078421 -0.108887
C6    C     C_2   0.037585 0.678891 0.932123 -0.114211
C7    C     C_2   0.964443 0.678366 0.068182 -0.113660
C8    C     C_2   0.495317 0.068555 0.038711 -0.165096
C9    C     C_2   0.503639 0.068881 0.960601 -0.176295
C10   C     C_2   0.991570 0.578505 0.037987 -0.172408
C11   C     C_2   0.011921 0.578298 0.962915 -0.172533
C12   C     C_R   0.777130 0.472655 0.064533 -0.034313
C13   C     C_R   0.198156 0.966976 0.961497 -0.014306
C14   C     C_R   0.226001 0.465846 0.935151 -0.034695
C15   C     C_R   0.275456 0.968574 0.064584 -0.019174
C16   C     C_R   0.723650 0.970641 0.935754 -0.022439
C17   C     C_3   0.587040 0.493325 0.121794 0.070785
C18   C     C_3   0.558503 0.535011 0.193537 -0.357346
C19   C     C_3   0.428954 0.612122 0.869489 0.018389
C20   C     C_3   0.471634 0.718510 0.900195 -0.367897
C21   C     C_3   0.084054 0.029797 0.108456 0.072929
C22   C     C_3   0.047123 0.075090 0.175277 -0.360661
C23   C     C_3   0.915419 0.033860 0.893384 0.072278
C24   C     C_R   0.800871 0.968744 0.038914 -0.016390
C25   C     C_3   0.953440 0.079103 0.827210 -0.357915
C26   C     C_R   0.821106 0.420908 0.947710 -0.145729
C27   C     C_R   0.179706 0.421255 0.052353 -0.152587
C28   C     C_R   0.320016 0.911197 0.949300 -0.166889
C29   C     C_R   0.679167 0.909226 0.050558 -0.160990
C30   C     C_R   0.832516 0.438747 0.020142 -0.162065
C31   C     C_R   0.169765 0.434870 0.979470 -0.170316
C32   C     C_R   0.329832 0.925105 0.021939 -0.166607
C33   C     C_R   0.289781 0.997943 0.138619 0.559827
C34   C     C_R   0.669360 0.925120 0.977994 -0.167704
C35   C     C_3   0.662072 0.587408 0.033742 0.230653
C36   C     C_3   0.347906 0.569817 0.960003 0.227530
C37   C     C_3   0.173006 0.110955 0.030089 0.235099
C38   C     C_3   0.825959 0.113738 0.971391 0.234950
C39   C     C_3   0.643122 0.548699 0.958368 0.120691
C40   C     C_3   0.355917 0.555787 0.040289 0.141530
C41   C     C_3   0.157774 0.083020 0.952434 0.131493
C42   C     C_3   0.841326 0.084975 0.048850 0.132025
C43   C     C_R   0.752626 0.425525 0.919495 -0.036081
C44   C     C_R   0.211008 0.496658 0.861580 0.541088
C45   C     C_R   0.247385 0.429401 0.081871 -0.043955
C46   C     C_R   0.253517 0.927646 0.918615 -0.017948
C47   C     C_R   0.745745 0.927466 0.081559 -0.029923
C48   C     C_R   0.488324 0.174710 0.429591 0.007849
C49   C     C_R   0.495288 0.164479 0.577517 -0.004812
C50   C     C_R   0.013912 0.674983 0.418238 0.007061
C51   C     C_R   0.019304 0.671874 0.566641 0.001570
C52   C     C_R   0.463991 0.271187 0.471647 0.042350
C53   C     C_R   0.466376 0.266701 0.544400 0.020196
C54   C     C_R   0.024516 0.783593 0.456601 0.013256
C55   C     C_R   0.790640 0.500017 0.138872 0.540845
C56   C     C_R   0.025622 0.780719 0.529233 0.028335
C57   C     C_R   0.510567 0.060639 0.536175 -0.137600
C58   C     C_R   0.509229 0.067044 0.462257 -0.108210
C59   C     C_R   0.024640 0.562732 0.527915 -0.111464
C60   C     C_R   0.026262 0.564977 0.453296 -0.106773
C61   C     C_R   0.529231 0.177683 0.850453 0.553876
C62   C     C_R   0.470513 0.177679 0.149340 0.545764
C63   C     C_R   0.058969 0.682396 0.858071 0.553193
C64   C     C_R   0.941762 0.681991 0.141813 0.552158
C65   C     C_3   0.483383 0.403294 0.469336 -0.264823
C66   C     C_R   0.709560 0.478717 0.036262 -0.027696
C67   C     C_3   0.482725 0.400921 0.549737 -0.268677
C68   C     C_3   0.987792 0.904977 0.457729 -0.266986
C69   C     C_3   0.988263 0.898680 0.538159 -0.275135
C70   C     C_R   0.755136 0.404712 0.420661 -0.009795
C71   C     C_R   0.252785 0.397849 0.582255 0.031584
C72   C     C_R   0.260015 0.918486 0.425308 -0.008130
C73   C     C_R   0.753583 0.898210 0.582315 0.032819
C74   C     C_R   0.811435 0.401321 0.467984 0.102038
C75   C     C_R   0.222150 0.292154 0.552581 0.062920
C76   C     C_R   0.319504 0.906815 0.468638 0.105579
C77   C     C_R   0.293760 0.471186 0.964288 0.033553
C78   C     C_R   0.726643 0.788884 0.554031 0.068040
C79   C     C_R   0.801974 0.387663 0.540187 -0.016219
C80   C     C_R   0.227564 0.270136 0.480245 -0.027437
C81   C     C_R   0.314983 0.906234 0.542039 -0.024470
C82   C     C_R   0.734498 0.761858 0.482612 -0.031434
C83   C     C_R   0.678212 0.352243 0.517911 -0.182996
C84   C     C_R   0.303739 0.442539 0.466473 -0.151921
C85   C     C_R   0.189078 0.923964 0.531170 -0.170643
C86   C     C_R   0.803605 0.942482 0.466047 -0.165364
C87   C     C_R   0.687824 0.378476 0.445351 -0.196978
C88   C     C_R   0.209998 0.990746 0.033518 -0.038031
C89   C     C_R   0.298215 0.466458 0.539202 -0.172235
C90   C     C_R   0.194439 0.926936 0.456999 -0.183668
C91   C     C_R   0.797574 0.968158 0.538573 -0.183612
C92   C     C_3   0.870700 0.312009 0.467936 0.108997
C93   C     C_3   0.149959 0.235755 0.554069 0.102355
C94   C     C_3   0.371680 0.804964 0.468606 0.106832
C95   C     C_3   0.657441 0.723091 0.556954 0.101883
C96   C     C_3   0.868152 0.315596 0.547893 -0.191220
C97   C     C_3   0.153452 0.228328 0.473498 -0.217558
C98   C     C_3   0.372799 0.814622 0.548730 -0.196429
C99   C     C_R   0.788983 0.993272 0.967082 -0.036828
C100  C     C_3   0.664965 0.700410 0.477359 -0.226406
C101  C     C_R   0.735411 0.357092 0.565719 -0.001282
C102  C     C_R   0.266377 0.345793 0.435910 0.021802
C103  C     C_R   0.248986 0.908233 0.574453 -0.004167
C104  C     C_R   0.768849 0.841379 0.436491 0.021954
C105  C     C_R   0.738954 0.366519 0.851546 0.549097
C106  C     C_R   0.260818 0.367922 0.149080 0.551975
C107  C     C_R   0.239097 0.866969 0.851311 0.539615
C108  C     C_R   0.760781 0.867014 0.148724 0.544324
C109  C     C_R   0.728607 0.952392 0.648596 0.563184
C110  C     C_R   0.696593 0.449901 0.965361 -0.001084
C111  C     C_R   0.272389 0.953857 0.352121 0.546709
C112  C     C_R   0.228531 0.452276 0.648656 0.573790
C113  C     C_R   0.771050 0.450447 0.350233 0.547946
C114  C     C_R   0.528838 0.175873 0.645656 0.542093
C115  C     C_R   0.469564 0.177317 0.355712 0.540360
C116  C     C_R   0.032890 0.676573 0.642392 0.554138
C117  C     C_R   0.973079 0.677426 0.353139 0.561900
C118  C     C_R   0.727120 0.316578 0.638581 0.562587
C119  C     C_R   0.273121 0.315317 0.361085 0.571487
C120  C     C_R   0.239169 0.861319 0.645993 0.556523
Cr1   Cr    Cr6+3 0.769260 0.163750 0.750730 0.998154
Cr2   Cr    Cr6+3 0.385810 0.322400 0.252290 0.984444
Cr3   Cr    Cr6+3 0.114190 0.822400 0.747710 0.983337
Cr4   Cr    Cr6+3 0.885810 0.822400 0.252290 0.974393
Cr5   Cr    Cr6+3 0.230740 0.163750 0.249270 1.002995
Cr6   Cr    Cr6+3 0.269260 0.663750 0.750730 0.976202
Cr7   Cr    Cr6+3 0.730740 0.663750 0.249270 0.993681
Cr8   Cr    Cr6+3 0.612640 0.009910 0.748780 1.018335
Cr9   Cr    Cr6+3 0.387360 0.009910 0.251220 1.011525
Cr10  Cr    Cr6+3 0.112640 0.509910 0.748780 1.039400
Cr11  Cr    Cr6+3 0.887360 0.509910 0.251220 1.008279
Cr12  Cr    Cr6+3 0.614190 0.322400 0.747710 0.993861
H1    H     H_    0.483439 0.982387 0.064081 0.142546
H2    H     H_    0.438714 0.453103 0.573219 0.134038
H3    H     H_    0.021114 0.979807 0.436449 0.119933
H4    H     H_    0.935351 0.886474 0.561832 0.146620
H5    H     H_    0.627469 0.322089 0.536074 0.133756
H6    H     H_    0.332887 0.504918 0.433343 0.119210
H7    H     H_    0.137581 0.926005 0.554495 0.144563
H8    H     H_    0.832130 0.005783 0.432711 0.121710
H9    H     H_    0.644170 0.376538 0.408562 0.117919
H10   H     H_    0.324089 0.545818 0.560057 0.116780
H11   H     H_    0.147853 0.936260 0.424447 0.123059
H12   H     H_    0.516607 0.983207 0.935244 0.134630
H13   H     H_    0.821810 0.049284 0.558718 0.120490
H14   H     H_    0.856106 0.221449 0.444977 0.092674
H15   H     H_    0.149550 0.146353 0.581901 0.113240
H16   H     H_    0.349767 0.717122 0.448438 0.091704
H17   H     H_    0.659181 0.639195 0.590305 0.125293
H18   H     H_    0.862118 0.225314 0.572411 0.106843
H19   H     H_    0.147125 0.136473 0.451635 0.109048
H20   H     H_    0.358026 0.728739 0.574856 0.118726
H21   H     H_    0.669350 0.603374 0.463746 0.118905
H22   H     H_    0.910477 0.371291 0.572806 0.159484
H23   H     H_    0.996733 0.494038 0.067601 0.157026
H24   H     H_    0.120225 0.297327 0.446178 0.169447
H25   H     H_    0.421394 0.856375 0.570778 0.160023
H26   H     H_    0.627069 0.752235 0.444005 0.179844
H27   H     H_    0.519994 0.253613 0.054281 0.128098
H28   H     H_    0.478047 0.254343 0.944348 0.171308
H29   H     H_    0.956916 0.761460 0.037741 0.114542
H30   H     H_    0.044639 0.762692 0.962288 0.115930
H31   H     H_    0.865284 0.395384 0.914702 0.179453
H32   H     H_    0.135041 0.396103 0.084847 0.178832
H33   H     H_    0.363650 0.880936 0.917442 0.136626
H34   H     H_    0.007100 0.493303 0.933525 0.156779
H35   H     H_    0.635629 0.873772 0.081334 0.172205
H36   H     H_    0.884506 0.426114 0.041450 0.155416
H37   H     H_    0.117864 0.422169 0.957764 0.156021
H38   H     H_    0.380189 0.903145 0.044528 0.133968
H39   H     H_    0.619255 0.901675 0.955016 0.135737
H40   H     H_    0.211104 0.186841 0.035834 0.106256
H41   H     H_    0.787747 0.189076 0.966266 0.102761
H42   H     H_    0.693531 0.672466 0.034069 0.102399
H43   H     H_    0.325488 0.659422 0.944284 0.073101
H44   H     H_    0.655032 0.618266 0.916859 0.078399
H45   H     H_    0.934252 0.901749 0.435737 0.174426
H46   H     H_    0.337535 0.636250 0.071413 0.075023
H47   H     H_    0.181531 0.148960 0.914300 0.105667
H48   H     H_    0.817599 0.150138 0.087465 0.103496
H49   H     H_    0.531171 0.979524 0.560392 0.207999
H50   H     H_    0.527088 0.990651 0.430679 0.185337
H51   H     H_    0.024613 0.477199 0.555191 0.202196
H52   H     H_    0.030803 0.481563 0.423225 0.177254
H53   H     H_    0.941851 0.318734 0.395444 0.326944
H54   H     H_    0.053235 0.263639 0.576166 0.309400
H55   H     H_    0.436517 0.801497 0.389909 0.332433
H56   H     H_    0.020871 0.970902 0.563415 0.129563
H57   H     H_    0.558600 0.746188 0.571087 0.315587
H58   H     H_    0.631309 0.431225 0.133130 0.127671
H59   H     H_    0.546090 0.440598 0.093643 0.210142
H60   H     H_    0.599490 0.586829 0.222997 0.167860
H61   H     H_    0.542922 0.454880 0.225960 0.114986
H62   H     H_    0.512267 0.594884 0.185871 0.140093
H63   H     H_    0.383655 0.646075 0.838273 0.159628
H64   H     H_    0.462398 0.562865 0.830606 0.133018
H65   H     H_    0.469914 0.796689 0.862733 0.079371
H66   H     H_    0.527264 0.692932 0.907005 0.179809
H67   H     H_    0.442869 0.462181 0.445768 0.145294
H68   H     H_    0.451028 0.747622 0.952767 0.164232
H69   H     H_    0.123638 0.963009 0.126711 0.134591
H70   H     H_    0.045839 0.981870 0.073438 0.198963
H71   H     H_    0.086207 0.114805 0.212771 0.152722
H72   H     H_    0.019897 0.998372 0.202130 0.113712
H73   H     H_    0.008317 0.146606 0.161513 0.171230
H74   H     H_    0.876131 0.966576 0.874426 0.135326
H75   H     H_    0.953019 0.986553 0.929060 0.202119
H76   H     H_    0.915009 0.118543 0.789163 0.153436
H77   H     H_    0.980894 0.002367 0.800698 0.111919
H78   H     H_    0.534439 0.425890 0.572492 0.157347
H79   H     H_    0.992195 0.150803 0.841692 0.174456
H80   H     H_    0.568572 0.477425 0.902811 0.346156
H81   H     H_    0.421241 0.508194 0.112962 0.325397
H82   H     H_    0.084658 0.025529 0.890375 0.323591
H83   H     H_    0.914574 0.027858 0.110525 0.323890
H84   H     H_    0.536195 0.419326 0.446877 0.124455
O1    O     O_R   0.784290 0.290360 0.830540 -0.503820
O2    O     O_R   0.456020 0.282110 0.333230 -0.535741
O3    O     O_R   0.043980 0.782110 0.666770 -0.520119
O4    O     O_R   0.956020 0.782110 0.333230 -0.537023
O5    O     O_R   0.679070 0.374030 0.674430 -0.504516
O6    O     O_R   0.320930 0.374030 0.325570 -0.508883
O7    O     O_R   0.179070 0.874030 0.674430 -0.507411
O8    O     O_R   0.820930 0.874030 0.325570 -0.511729
O9    O     O_3   0.665360 0.165350 0.749070 -0.280617
O10   O     O_3   0.334640 0.165350 0.250930 -0.277531
O11   O     O_3   0.165360 0.665350 0.749070 -0.277782
O12   O     O_R   0.215710 0.290360 0.169460 -0.504982
O13   O     O_3   0.834640 0.665350 0.250930 -0.293750
O14   O     O_R   0.762610 0.041070 0.825230 -0.501126
O15   O     O_R   0.237390 0.041070 0.174770 -0.501836
O16   O     O_R   0.262610 0.541070 0.825230 -0.505960
O17   O     O_R   0.737390 0.541070 0.174770 -0.501532
O18   O     O_R   0.667390 0.924160 0.829970 -0.525491
O19   O     O_R   0.332610 0.924160 0.170030 -0.520526
O20   O     O_R   0.167390 0.424160 0.829970 -0.519596
O21   O     O_R   0.832610 0.424160 0.170030 -0.521047
O22   O     O_R   0.553980 0.081420 0.821780 -0.515959
O23   O     O_R   0.284290 0.790360 0.830540 -0.555685
O24   O     O_R   0.446020 0.081420 0.178220 -0.507609
O25   O     O_R   0.053980 0.581420 0.821780 -0.505561
O26   O     O_R   0.946020 0.581420 0.178220 -0.507297
O27   O     O_R   0.543210 0.283170 0.826740 -0.513981
O28   O     O_R   0.456790 0.283170 0.173260 -0.531158
O29   O     O_R   0.043210 0.783170 0.826740 -0.527003
O30   O     O_R   0.956790 0.783170 0.173260 -0.528817
O31   O     O_R   0.678350 0.375000 0.822720 -0.504020
O32   O     O_R   0.321650 0.375000 0.177280 -0.500779
O33   O     O_R   0.178350 0.875000 0.822720 -0.519185
O34   O     O_R   0.715710 0.790360 0.169460 -0.510727
O35   O     O_R   0.821650 0.875000 0.177280 -0.517789
O36   O     O_R   0.785060 0.289300 0.670580 -0.524431
O37   O     O_R   0.214940 0.289300 0.329420 -0.523006
O38   O     O_R   0.285060 0.789300 0.670580 -0.527327
O39   O     O_R   0.714940 0.789300 0.329420 -0.517391
O40   O     O_R   0.763330 0.040090 0.676940 -0.534133
O41   O     O_R   0.236670 0.040090 0.323060 -0.517416
O42   O     O_R   0.263330 0.540090 0.676940 -0.517788
O43   O     O_R   0.736670 0.540090 0.323060 -0.521517
O44   O     O_R   0.668160 0.923110 0.670000 -0.447197
O45   O     O_R   0.554690 0.080440 0.673480 -0.498577
O46   O     O_R   0.331840 0.923110 0.330000 -0.505717
O47   O     O_R   0.168160 0.423110 0.670000 -0.440346
O48   O     O_R   0.831840 0.423110 0.330000 -0.497876
O49   O     O_3   0.932494 0.361241 0.441159 -0.718275
O50   O     O_3   0.096825 0.313411 0.576517 -0.691872
O51   O     O_3   0.435825 0.837826 0.438347 -0.713975
O52   O     O_3   0.600814 0.799368 0.571763 -0.693221
O53   O     O_3   0.603594 0.597684 0.080749 -0.505620
O54   O     O_3   0.408386 0.528654 0.922956 -0.474399
O55   O     O_3   0.111815 0.132110 0.072029 -0.499217
O56   O     O_R   0.445310 0.080440 0.326520 -0.484620
O57   O     O_3   0.886923 0.136089 0.929258 -0.501212
O58   O     O_3   0.575593 0.498469 0.953708 -0.635583
O59   O     O_3   0.422467 0.514577 0.060313 -0.618923
O60   O     O_3   0.086752 0.059418 0.939353 -0.670561
O61   O     O_3   0.912375 0.061925 0.061678 -0.668720
O62   O     O_R   0.054690 0.580440 0.673480 -0.483975
O63   O     O_R   0.945310 0.580440 0.326520 -0.477465
O64   O     O_R   0.543980 0.282110 0.666770 -0.535247

loop_
_geom_bond_atom_site_label_1
_geom_bond_atom_site_label_2
_ccdc_geom_bond_type
C100  H21   S    
C60   H52   S    
C7    C10   D    
C83   C87   A    
C109  O44   A    
Cr4   O4    S    
C19   H63   S    
C3    O8    A    
C25   H77   S    
C80   C97   S    
C18   H62   S    
C50   C117  S    
C84   C102  A    
Cr11  O13   S    
C68   H45   S    
C37   C88   S    
Cr6   O16   S    
Cr6   O11   S    
C92   C96   S    
C14   C31   A    
C72   C76   A    
C86   C104  A    
C37   H40   S    
C57   H49   S    
C57   C58   A    
H53   O49   S    
C15   C32   A    
C98   H20   S    
C17   H59   S    
Cr7   O43   S    
C94   O51   S    
C7    H29   S    
C56   C69   S    
C18   H60   S    
C50   C54   A    
C22   H71   S    
Cr9   O19   S    
Cr7   O39   S    
C61   O22   A    
Cr8   O44   S    
Cr2   O32   S    
C114  O45   A    
C55   O17   A    
Cr3   O33   S    
Cr4   O35   S    
C36   C77   S    
C44   O20   A    
Cr5   O15   S    
C13   C46   A    
Cr10  O25   S    
C97   H24   S    
C64   O26   A    
C81   C98   S    
C94   C98   S    
Cr8   O22   S    
C89   H10   S    
Cr2   O10   S    
Cr5   O41   S    
C26   H31   S    
Cr7   O13   S    
C24   C42   S    
C67   H78   S    
C51   C56   A    
C43   C105  S    
C14   C77   A    
C74   C92   S    
C25   H79   S    
C20   H68   S    
Cr3   O3    S    
C15   C88   A    
C16   C34   A    
C65   H67   S    
C1    O14   A    
C39   C110  S    
C96   H22   S    
H81   O59   S    
C42   H48   S    
C8    C9    S    
C65   C67   S    
H82   O60   S    
Cr9   O10   S    
C70   C74   A    
C11   H34   S    
C73   C78   A    
H57   O52   S    
Cr4   O8    S    
C78   C95   S    
C95   H17   S    
C43   C110  A    
H55   O51   S    
Cr5   O12   S    
Cr6   O23   S    
C75   C80   A    
C85   H7    S    
Cr11  O63   S    
C90   H11   S    
C85   C103  A    
C114  O64   A    
C23   H75   S    
C112  O42   A    
H54   O50   S    
C49   C114  S    
C72   C111  S    
C84   H6    S    
C59   C60   A    
C2    C45   A    
C21   C22   S    
C71   C112  S    
C118  O5    A    
Cr8   O18   S    
C35   H42   S    
Cr1   O9    S    
Cr1   O1    S    
C35   O53   S    
C3    C104  S    
C63   O29   A    
C70   C87   A    
C119  O37   A    
C13   C41   S    
H80   O58   S    
C9    H12   S    
C26   C43   A    
C19   O54   S    
C3    O39   A    
C29   C34   A    
C70   C113  S    
C94   H16   S    
Cr12  O64   S    
C54   C56   A    
Cr7   O17   S    
C112  O47   A    
C107  O33   A    
C108  O35   A    
C92   H14   S    
Cr12  O5    S    
C6    H30   S    
C7    C64   S    
C36   C40   S    
C24   C99   A    
C27   C31   A    
C65   H84   S    
C17   O53   S    
C6    C11   D    
Cr3   O29   S    
C42   O61   S    
Cr6   O42   S    
C95   C100  S    
C68   C69   S    
C38   H41   S    
Cr2   O28   S    
C93   O50   S    
C31   H37   S    
C35   C66   S    
C5    H27   S    
Cr3   O7    S    
C4    C61   S    
C119  O6    A    
C87   H9    S    
C22   H73   S    
C80   C102  A    
C113  O48   A    
C6    C63   S    
Cr10  O62   S    
Cr4   O13   S    
C35   C39   S    
C39   H44   S    
C111  O46   A    
C21   H69   S    
C27   H32   S    
C72   C90   A    
C78   C82   A    
Cr12  O27   S    
C71   C89   A    
C98   H25   S    
C28   C32   A    
C1    O18   A    
C54   C68   S    
C96   H18   S    
C46   C107  S    
C67   H2    S    
C17   C18   S    
C97   H19   S    
C10   H23   S    
C64   O30   A    
C83   H5    S    
C115  O2    A    
C1    C16   S    
C107  O23   A    
Cr8   O45   S    
C55   O21   A    
C116  O3    A    
C59   H51   S    
C69   H56   S    
C73   C91   A    
C41   O60   S    
C28   H33   S    
C48   C115  S    
C105  O31   A    
C92   O49   S    
C39   O58   S    
C2    C40   S    
C29   C47   A    
Cr10  O11   S    
C26   C30   A    
C120  O7    A    
C105  O1    A    
C20   H66   S    
Cr9   O24   S    
Cr2   O6    S    
C40   H46   S    
C51   C59   A    
C84   C89   A    
C101  C118  S    
Cr5   O10   S    
C25   H76   S    
C93   C97   S    
C48   C58   A    
C91   H13   S    
C45   C106  S    
C21   O55   S    
Cr1   O40   S    
C14   C44   S    
Cr11  O48   S    
C81   C103  A    
C74   C79   A    
C34   H39   S    
C32   H38   S    
Cr4   O30   S    
C82   C104  A    
Cr1   O14   S    
C83   C101  A    
C12   C30   A    
C8    H1    S    
C115  O56   A    
C24   C47   A    
C82   C100  S    
C21   H70   S    
C41   H47   S    
C68   H3    S    
C79   C101  A    
Cr10  O47   S    
C38   C99   S    
Cr1   O36   S    
Cr11  O26   S    
C33   O19   A    
C76   C81   A    
Cr8   O9    S    
C5    C8    D    
C85   C90   A    
C16   C99   A    
C62   O28   A    
Cr5   O37   S    
C76   C94   S    
C17   H58   S    
C69   H4    S    
C37   O55   S    
C109  O40   A    
C51   C116  S    
C40   O59   S    
C22   H72   S    
C86   C91   A    
Cr7   O34   S    
C50   C60   A    
C29   H35   S    
C19   C20   S    
C116  O62   A    
C44   O16   A    
C30   H36   S    
C79   C96   S    
C23   H74   S    
Cr9   O56   S    
C118  O36   A    
Cr12  O9    S    
C71   C75   A    
C23   O57   S    
C27   C45   A    
C95   O52   S    
C4    H28   S    
C12   C66   A    
Cr6   O38   S    
C75   C93   S    
C49   C53   A    
Cr11  O21   S    
C13   C88   A    
Cr10  O20   S    
C58   H50   S    
Cr12  O31   S    
C103  C120  S    
C15   C33   S    
C5    C62   S    
C93   H15   S    
C106  O12   A    
C73   C109  S    
C23   C25   S    
C37   C41   S    
C33   O15   A    
C53   C67   S    
C120  O38   A    
C20   H65   S    
C12   C55   S    
C61   O27   A    
C10   C11   S    
C102  C119  S    
C28   C46   A    
C38   C42   S    
C100  H26   S    
C49   C57   A    
C19   H64   S    
Cr3   O11   S    
C66   C110  A    
C36   H43   S    
C117  O63   A    
C47   C108  S    
H83   O61   S    
C108  O34   A    
C2    C77   A    
C62   O24   A    
C36   O54   S    
C38   O57   S    
Cr2   O2    S    
C86   H8    S    
C113  O43   A    
C106  O32   A    
C4    C9    D    
C48   C52   A    
C111  O41   A    
C52   C65   S    
Cr9   O46   S    
C52   C53   A    
C117  O4    A    
C18   H61   S    
C63   O25   A    
