data_mof_unit_42733.cif
_audit_creation_date              2012-12-10T18:09:53-0500
_audit_creation_method            fapswitch 2.2
_symmetry_space_group_name_H-M    P1
_symmetry_Int_Tables_number       1
_space_group_crystal_system       triclinic
_cell_length_a                    10.656879
_cell_length_b                    12.629063
_cell_length_c                    13.103219
_cell_angle_alpha                 83.839263
_cell_angle_beta                  90.344821
_cell_angle_gamma                 101.105149
_cell_volume                      1720.30573616

loop_
_atom_site_label
_atom_site_type_symbol
_atom_type_description
_atom_site_fract_x
_atom_site_fract_y
_atom_site_fract_z
_atom_type_partial_charge
C1    C     C_R   0.486924 0.440090 0.691667 0.831265
C2    C     C_R   0.526807 0.451436 0.975907 0.098016
C3    C     C_R   0.553580 0.470863 0.870013 0.062428
C4    C     C_R   0.741586 0.497999 0.504117 0.784014
C5    C     C_R   0.587458 0.527605 0.040041 0.049258
C6    C     C_R   0.647267 0.631943 0.997657 0.052382
C7    C     C_R   0.687205 0.646122 0.895305 -0.198346
C8    C     C_R   0.650558 0.561144 0.834801 -0.202723
C9    C     C_R   0.592850 0.503446 0.145709 -0.016313
C10   C     C_R   0.623327 0.696249 0.162471 0.604781
C11   C     C_R   0.478321 0.404396 0.802495 -0.138211
C12   C     C_3   0.122796 0.500606 0.506194 0.160119
C13   C     C_R   0.341788 0.090774 0.336214 -0.386334
C14   C     C_R   0.653551 0.797385 0.628810 -0.079202
C15   C     C_R   0.682043 0.898825 0.662454 -0.360332
C16   C     C_R   0.530497 0.558498 0.310404 0.910954
C17   C     C_R   0.621283 0.980456 0.619326 0.692078
C18   C     C_R   0.528969 0.960493 0.540430 -0.106799
C19   C     C_R   0.504544 0.854060 0.509248 0.155342
C20   C     C_R   0.466825 0.040295 0.485672 -0.125665
C21   C     C_R   0.392227 0.012518 0.398235 0.016764
C22   C     C_R   0.367323 0.906637 0.373185 -0.178710
C23   C     C_3   0.073578 0.506138 0.394782 -0.390618
C24   C     C_R   0.420408 0.828324 0.429427 -0.109534
C25   C     C_R   0.475429 0.147231 0.510754 0.623219
C26   C     C_R   0.366481 0.196784 0.359568 0.637697
C27   C     C_R   0.258650 0.499978 0.502690 0.821397
C28   C     C_3   0.908618 0.390358 0.570389 -0.074178
C29   C     C_3   0.054226 0.396336 0.571284 -0.426282
C30   C     C_3   0.930792 0.510253 0.394625 -0.409791
C31   C     C_3   0.950468 0.595369 0.559212 -0.438385
C32   C     C_3   0.878537 0.495940 0.506402 0.173738
C33   C     C_3   0.839259 0.275388 0.546640 -0.302765
C34   C     C_3   0.094820 0.599611 0.556448 -0.394395
C35   C     C_3   0.855691 0.247545 0.436541 -0.366885
C36   C     C_3   0.834581 0.125576 0.429838 -0.823028
C37   C     C_3   0.636818 0.398911 0.189683 -0.336935
C38   C     C_3   0.751886 0.375691 0.130390 -0.392061
C39   C     C_3   0.757722 0.255189 0.144051 -0.854043
C40   C     C_3   0.295590 0.244984 0.771579 -0.363540
C41   C     C_3   0.182197 0.162198 0.822120 -0.404855
C42   C     C_3   0.101377 0.102516 0.741583 -0.848150
C43   C     C_R   0.667001 0.717092 0.060110 -0.292405
C44   C     C_R   0.582632 0.587704 0.205698 -0.259132
C45   C     C_R   0.382153 0.314318 0.842731 0.098840
C46   C     C_R   0.363239 0.294670 0.949438 -0.150020
C47   C     C_R   0.430910 0.363850 0.014158 -0.221570
F1    F     F_    0.626366 0.780479 0.219219 -0.658383
F2    F     F_    0.319951 0.273994 0.299385 -0.673146
F3    F     F_    0.512146 0.176655 0.603568 -0.631017
F4    F     F_    0.664703 0.078241 0.651798 -0.654826
H1    H     H_    0.142414 0.676833 0.511784 0.188966
H2    H     H_    0.307083 0.884203 0.308911 0.148056
H3    H     H_    0.285652 0.070349 0.269321 0.184585
H4    H     H_    0.701847 0.734325 0.661205 0.155239
H5    H     H_    0.753497 0.915013 0.720828 0.174129
H6    H     H_    0.397650 0.748500 0.406170 0.205218
H7    H     H_    0.088105 0.396618 0.651845 0.137163
H8    H     H_    0.079852 0.323248 0.542943 0.195925
H9    H     H_    0.878159 0.449604 0.347381 0.155849
H10   H     H_    0.090762 0.435602 0.356791 0.192611
H11   H     H_    0.931725 0.673189 0.519493 0.204209
H12   H     H_    0.917754 0.590322 0.356035 0.173298
H13   H     H_    0.916858 0.589965 0.640258 0.157363
H14   H     H_    0.132478 0.599383 0.635915 0.177630
H15   H     H_    0.890962 0.085496 0.488382 0.265038
H16   H     H_    0.731914 0.089667 0.439821 0.267387
H17   H     H_    0.865167 0.110314 0.352783 0.249632
H18   H     H_    0.784774 0.280466 0.386840 0.222020
H19   H     H_    0.952990 0.282352 0.406182 0.240148
H20   H     H_    0.876508 0.215581 0.601250 0.225776
H21   H     H_    0.736730 0.262770 0.566462 0.297804
H22   H     H_    0.755997 0.224258 0.226350 0.262071
H23   H     H_    0.127093 0.580131 0.348694 0.157221
H24   H     H_    0.674721 0.208135 0.106379 0.274971
H25   H     H_    0.847051 0.242565 0.108147 0.256972
H26   H     H_    0.748050 0.399759 0.046732 0.244223
H27   H     H_    0.841904 0.423190 0.158380 0.216060
H28   H     H_    0.669569 0.404917 0.269654 0.196122
H29   H     H_    0.556379 0.328593 0.193206 0.232571
H30   H     H_    0.062935 0.160937 0.686526 0.253468
H31   H     H_    0.159796 0.057402 0.698885 0.265786
H32   H     H_    0.019834 0.043775 0.779775 0.253321
H33   H     H_    0.217953 0.100971 0.876066 0.233516
H34   H     H_    0.747322 0.721233 0.862860 0.138695
H35   H     H_    0.120410 0.204599 0.864721 0.229144
H36   H     H_    0.255172 0.300128 0.714286 0.192439
H37   H     H_    0.355090 0.199348 0.731079 0.284667
H38   H     H_    0.707906 0.799237 0.028503 0.173942
H39   H     H_    0.400257 0.352367 0.093644 0.195809
H40   H     H_    0.290789 0.229268 0.984440 0.147265
H41   H     H_    0.878876 0.394685 0.651066 0.126235
H42   H     H_    0.693215 0.569865 0.759145 0.150243
N1    N     N_R   0.433240 0.222190 0.444680 -0.206731
N2    N     N_R   0.566070 0.776970 0.554790 -0.118886
O1    O     O_R   0.468120 0.366740 0.627160 -0.557970
O2    O     O_R   0.510770 0.544830 0.662520 -0.618536
O3    O     O_R   0.663880 0.410950 0.482330 -0.634025
O4    O     O_R   0.706530 0.589040 0.517700 -0.631118
O5    O     O_R   0.489230 0.455170 0.337480 -0.574713
O6    O     O_R   0.531880 0.633260 0.372840 -0.576813
O7    O     O_R   0.293470 0.410960 0.482300 -0.588520
O8    O     O_R   0.336120 0.589050 0.517670 -0.652906
Zn1   Zn    Zn3+2 0.471520 0.381090 0.476390 1.004021
Zn2   Zn    Zn3+2 0.528480 0.618910 0.523610 0.949697

loop_
_geom_bond_atom_site_label_1
_geom_bond_atom_site_label_2
_ccdc_geom_bond_type
C26   N1    A    
C4    O3    A    
C12   C29   S    
C41   C42   S    
C35   C36   S    
C42   H31   S    
C17   F4    S    
C36   H16   S    
C7    C8    A    
C7    H34   S    
C45   C46   A    
C41   H35   S    
C37   H28   S    
C12   C23   S    
C43   H38   S    
C40   H36   S    
C28   C29   S    
C5    C6    A    
C36   H15   S    
C20   C25   A    
O5    Zn1   S    
C18   C19   A    
C25   F3    S    
N2    Zn2   S    
C33   H21   S    
C29   H8    S    
C35   H19   S    
C24   H6    S    
C30   H9    S    
C39   H24   S    
C16   C44   S    
O2    Zn2   S    
C14   H4    S    
N1    Zn1   S    
C25   N1    A    
C21   C22   A    
C31   H11   S    
C42   H30   S    
C34   H14   S    
C22   H2    S    
O6    Zn2   S    
C40   C45   S    
O4    Zn2   S    
C37   H29   S    
C8    H42   S    
C12   C27   S    
C10   C44   A    
C23   C30   S    
C28   C32   S    
C28   H41   S    
C3    C8    A    
C26   F2    S    
C1    O2    A    
C16   O5    A    
C46   H40   S    
C38   H27   S    
C41   H33   S    
C5    C9    A    
C37   C38   S    
C31   C32   S    
C9    C37   S    
C17   C18   A    
C31   C34   S    
C13   C21   A    
O8    Zn2   S    
C39   H25   S    
C29   H7    S    
O7    Zn1   S    
C4    C32   S    
C40   C41   S    
C28   C33   S    
C6    C43   A    
O1    Zn1   S    
C10   F1    S    
C47   H39   S    
C22   C24   A    
C13   C26   A    
C11   C45   A    
C2    C5    A    
C23   H23   S    
C12   C34   S    
C14   N2    A    
C19   N2    A    
C13   H3    S    
C15   C17   A    
C46   C47   A    
C9    C44   A    
C10   C43   A    
C31   H13   S    
C42   H32   S    
C36   H17   S    
C6    C7    A    
C38   H26   S    
C2    C47   A    
C27   O7    A    
C34   H1    S    
C15   H5    S    
C40   H37   S    
C2    C3    A    
C30   C32   S    
C38   C39   S    
C1    O1    A    
O3    Zn1   S    
C27   O8    A    
C33   C35   S    
C19   C24   A    
C18   C20   A    
C39   H22   S    
C3    C11   A    
C33   H20   S    
C16   O6    A    
C23   H10   S    
C20   C21   A    
C35   H18   S    
C4    O4    A    
C14   C15   A    
C1    C11   S    
C30   H12   S    
