data_mof_unit_51586.cif
_audit_creation_date              2012-12-10T17:17:24-0500
_audit_creation_method            fapswitch 2.2
_symmetry_space_group_name_H-M    P1
_symmetry_Int_Tables_number       1
_space_group_crystal_system       triclinic
_cell_length_a                    10.221493
_cell_length_b                    10.565863
_cell_length_c                    12.471535
_cell_angle_alpha                 91.049214
_cell_angle_beta                  110.196832
_cell_angle_gamma                 95.76408
_cell_volume                      1255.67537962

loop_
_atom_site_label
_atom_site_type_symbol
_atom_type_description
_atom_site_fract_x
_atom_site_fract_y
_atom_site_fract_z
_atom_type_partial_charge
C1    C     C_R   0.048510 0.733766 0.488094 0.811887
C2    C     C_R   0.418295 0.469072 0.989620 0.053028
C3    C     C_R   0.324154 0.438083 0.878554 0.062810
C4    C     C_R   0.545901 0.414891 0.024904 -0.107681
C5    C     C_R   0.592099 0.354047 0.944959 -0.009564
C6    C     C_R   0.489343 0.307364 0.839444 0.453763
C7    C     C_R   0.353469 0.343560 0.811115 -0.276367
C8    C     C_R   0.630651 0.423224 0.138990 0.403208
C9    C     C_R   0.832190 0.397966 0.083024 -0.181135
C10   C     C_R   0.207160 0.506668 0.835754 -0.107157
C11   C     C_2   0.062288 0.867478 0.461188 0.274173
C12   C     C_R   0.133589 0.506320 0.713236 0.855132
C13   C     C_2   0.944163 0.924771 0.425234 -0.309714
C14   C     C_2   0.905409 0.129549 0.484795 -0.372565
C15   C     C_2   0.949620 0.061458 0.414583 0.544161
C16   C     C_2   0.433418 0.500894 0.525523 0.459875
C17   C     C_2   0.573060 0.470612 0.518108 -0.157927
C18   C     C_R   0.945213 0.265944 0.501237 0.935589
C19   C     C_R   0.862175 0.478647 0.286511 0.921016
C20   C     C_R   0.738368 0.344384 0.975134 -0.102770
C21   C     C_R   0.776541 0.436506 0.166971 -0.175371
C22   C     C_R   0.176283 0.594175 0.906971 -0.178579
C23   C     C_R   0.268520 0.624357 0.018713 -0.003605
C24   C     C_R   0.390406 0.563785 0.058449 -0.224340
H1    H     H_    0.842652 0.874358 0.416824 0.154310
H2    H     H_    0.850258 0.083307 0.536616 0.128848
H3    H     H_    0.315594 0.386478 0.389647 0.170183
H4    H     H_    0.085722 0.645838 0.872469 0.213894
H5    H     H_    0.466711 0.596310 0.141165 0.226541
H6    H     H_    0.273322 0.302164 0.733151 0.156383
N1    N     N_2   0.313640 0.446500 0.454900 -0.173112
N2    N     N_2   0.686360 0.553430 0.545150 -0.183644
O1    O     O_R   0.936910 0.692950 0.509080 -0.618428
O2    O     O_R   0.138320 0.658600 0.480130 -0.552063
O3    O     O_R   0.002900 0.525670 0.675280 -0.588420
O4    O     O_R   0.204310 0.491320 0.646330 -0.562293
O5    O     O_R   0.861680 0.341400 0.519870 -0.603670
O6    O     O_R   0.063090 0.307050 0.490920 -0.564759
O7    O     O_R   0.795690 0.508680 0.353670 -0.554753
O8    O     O_R   0.997100 0.474330 0.324720 -0.585330
Zn1   Zn    Zn3+2 0.865520 0.522940 0.519330 1.047703
Zn2   Zn    Zn3+2 0.134480 0.477060 0.480670 1.066100
C25   C     C_2   0.985670 0.409532 0.107008 0.980014
O9    O     O_2   0.055100 0.513412 0.136110 -0.611505
O10   O     O_R   0.050185 0.302477 0.094340 -0.768171
H7    H     H_    0.154777 0.323300 0.111937 0.343071
O11   O     O_3   0.190679 0.934333 0.473669 -0.733197
H8    H     H_    0.264580 0.877255 0.504700 0.360143
C26   C     C_2   0.584693 0.334704 0.500450 0.967663
O12   O     O_2   0.535623 0.282402 0.404648 -0.608030
O13   O     O_R   0.646937 0.264778 0.594998 -0.756462
H9    H     H_    0.645126 0.171526 0.573294 0.350420
O14   O     O_3   0.431602 0.582404 0.612535 -0.695729
H10   H     H_    0.525579 0.590771 0.673208 0.319735
C27   C     C_2   0.671254 0.685711 0.552425 1.033676
O15   O     O_2   0.760943 0.755660 0.626397 -0.604195
O16   O     O_R   0.558350 0.736573 0.472729 -0.778318
H11   H     H_    0.561303 0.831830 0.486662 0.343650
O17   O     O_3   0.520645 0.225064 0.766852 -0.714741
H12   H     H_    0.436787 0.203210 0.697034 0.351204
C28   C     C_2   0.796479 0.294312 0.891568 1.092788
O18   O     O_2   0.795154 0.179358 0.877152 -0.525482
O19   O     O_R   0.857106 0.379101 0.832751 -0.792160
H13   H     H_    0.896631 0.333675 0.780498 0.356177
O20   O     O_3   0.571500 0.411262 0.223377 -0.713230
H14   H     H_    0.473935 0.368980 0.189509 0.354756
C29   C     C_2   0.242951 0.724935 0.091600 1.003861
O21   O     O_2   0.141678 0.784589 0.053545 -0.586109
O22   O     O_R   0.334052 0.751098 0.204611 -0.770077
H15   H     H_    0.304794 0.820583 0.245771 0.368837
O23   O     O_3   0.009791 0.120243 0.341717 -0.692323
H16   H     H_    0.029707 0.053163 0.294699 0.378378

loop_
_geom_bond_atom_site_label_1
_geom_bond_atom_site_label_2
_ccdc_geom_bond_type
C2    C4    A    
C25   O9    D    
O6    Zn2   S    
C6    C7    A    
N2    Zn1   S    
N1    Zn2   S    
C12   O4    A    
C11   C13   D    
C14   C18   S    
N2    C27   S    
O4    Zn2   S    
O11   H8    S    
O2    Zn2   S    
C13   C15   S    
C4    C8    A    
O1    Zn1   S    
O23   H16   S    
C14   H2    S    
C27   O15   D    
O8    Zn2   S    
C8    C21   A    
C18   O6    A    
C1    O1    A    
O17   H12   S    
O7    Zn1   S    
C7    H6    S    
C22   H4    S    
O14   H10   S    
C10   C22   A    
C16   N1    D    
O5    Zn1   S    
C25   O10   S    
C9    C21   A    
O16   H11   S    
O22   H15   S    
C10   C12   S    
C3    C10   A    
C5    C6    A    
C19   O7    A    
C6    O17   S    
O19   H13   S    
C19   C21   S    
C18   O5    A    
C1    O2    A    
C2    C3    A    
C3    C7    A    
C27   O16   S    
C2    C24   A    
C28   O18   D    
O3    Zn1   S    
C12   O3    A    
C9    C25   S    
C19   O8    A    
C23   C24   A    
H3    N1    S    
C29   O21   D    
C24   H5    S    
C8    O20   S    
C15   O23   S    
C28   O19   S    
C26   O12   D    
C26   O13   S    
C23   C29   S    
C20   C28   S    
C5    C20   A    
C17   N2    D    
C16   O14   S    
C4    C5    A    
C14   C15   D    
C9    C20   A    
C29   O22   S    
O10   H7    S    
C11   O11   S    
O20   H14   S    
C22   C23   A    
C17   C26   S    
O13   H9    S    
C16   C17   S    
C13   H1    S    
C1    C11   S    
