data_mof_unit_12482.cif
_audit_creation_date              2012-12-11T15:24:26-0500
_audit_creation_method            fapswitch 2.2
_symmetry_space_group_name_H-M    P1
_symmetry_Int_Tables_number       1
_space_group_crystal_system       triclinic
_cell_length_a                    8.197786
_cell_length_b                    14.570752
_cell_length_c                    19.031335
_cell_angle_alpha                 93.398025
_cell_angle_beta                  94.184723
_cell_angle_gamma                 91.524862
_cell_volume                      2262.11367046

loop_
_atom_site_label
_atom_site_type_symbol
_atom_type_description
_atom_site_fract_x
_atom_site_fract_y
_atom_site_fract_z
_atom_type_partial_charge
Ba1   Ba    Ba6+2 0.150350 0.545800 0.464500 1.661204
Ba2   Ba    Ba6+2 0.659830 0.454190 0.535450 1.685446
C1    C     C_3   0.416791 0.818715 0.193398 -0.215261
C2    C     C_R   0.820149 0.804417 0.498013 0.028188
C3    C     C_R   0.667124 0.775112 0.466598 -0.275237
C4    C     C_3   0.898039 0.793705 0.302680 0.375207
C5    C     C_R   0.558802 0.836281 0.436058 0.007381
C6    C     C_R   0.601591 0.929556 0.434948 -0.148774
C7    C     C_R   0.754959 0.963533 0.464142 0.005116
C8    C     C_R   0.866485 0.901640 0.496010 -0.029265
C9    C     C_R   0.944678 0.097726 0.494420 -0.009824
C10   C     C_R   0.056968 0.035596 0.524588 0.007118
C11   C     C_R   0.987482 0.195307 0.499163 0.038539
C12   C     C_3   0.452297 0.802510 0.271565 0.347648
C13   C     C_R   0.134202 0.225406 0.535936 -0.303461
C14   C     C_R   0.245773 0.163462 0.562126 -0.007606
C15   C     C_R   0.208602 0.069180 0.556200 -0.147293
C16   C     C_3   0.900125 0.890106 0.276432 -0.386106
C17   C     C_R   0.796009 0.059064 0.461927 -0.034067
C18   C     C_R   0.610119 0.535156 0.296173 -0.279946
C19   C     C_R   0.465922 0.484885 0.276138 0.077884
C20   C     C_R   0.417855 0.466948 0.204108 -0.116386
C21   C     C_R   0.516910 0.497735 0.152170 0.004450
C22   C     C_R   0.663754 0.547356 0.173434 -0.139451
C23   C     C_3   0.508757 0.732448 0.635073 0.291360
C24   C     C_R   0.711378 0.564018 0.245423 0.008669
C25   C     C_R   0.427523 0.551155 0.035115 -0.157011
C26   C     C_R   0.381826 0.538505 0.962615 0.384847
C27   C     C_R   0.376036 0.449333 0.929035 0.011227
C28   C     C_3   0.804173 0.340565 0.326569 0.333110
C29   C     C_R   0.419992 0.373166 0.969018 0.020459
C30   C     C_R   0.465819 0.387016 0.042784 0.071102
C31   C     C_R   0.469290 0.477231 0.075664 -0.003236
C32   C     C_R   0.171257 0.393457 0.828489 -0.220542
C33   C     C_R   0.105768 0.401679 0.758938 -0.039656
C34   C     C_3   0.547477 0.832996 0.657986 -0.420837
C35   C     C_R   0.346114 0.494353 0.734249 -0.011081
C36   C     C_R   0.413042 0.485005 0.803287 -0.122039
C37   C     C_R   0.322479 0.438943 0.852058 0.050513
C38   C     C_R   0.187911 0.458728 0.715959 0.226148
C39   C     C_3   0.828088 0.321747 0.248660 -0.375664
C40   C     C_3   0.078047 0.803626 0.663082 0.251446
C41   C     C_3   0.004479 0.892400 0.687500 -0.439765
C42   C     C_3   0.303100 0.266249 0.388238 0.351147
C43   C     C_3   0.283395 0.163072 0.369625 0.287652
C44   C     C_3   0.282352 0.753649 0.158143 -0.346876
C45   C     C_3   0.903559 0.193856 0.682598 0.423564
C46   C     C_3   0.207906 0.101279 0.255823 0.302551
C47   C     C_3   0.070017 0.097670 0.197070 -0.169908
C48   C     C_3   0.115006 0.040354 0.131990 -0.528151
C49   C     C_3   0.443989 0.680679 0.923144 0.260320
C50   C     C_3   0.384727 0.748391 0.869180 -0.163011
C51   C     C_3   0.513496 0.823780 0.861064 -0.484421
C52   C     C_3   0.421698 0.277281 0.933856 -0.397556
C53   C     C_3   0.513238 0.305230 0.084713 -0.398084
C54   C     C_3   0.033761 0.582813 0.695543 0.255930
C55   C     C_3   0.006574 0.595973 0.776153 -0.316583
C56   C     C_3   0.877055 0.094137 0.696047 -0.352179
C57   C     C_3   0.911417 0.681657 0.794748 -0.427746
C58   C     C_3   0.374274 0.164591 0.723928 0.317470
C59   C     C_3   0.427932 0.114402 0.789101 -0.371307
C60   C     C_R   0.018651 0.940244 0.523514 -0.060493
H1    H     H_    0.498812 0.731839 0.276323 -0.011363
H2    H     H_    0.186471 0.292786 0.405300 -0.011756
H3    H     H_    0.400378 0.278437 0.431713 -0.005135
H4    H     H_    0.252626 0.127461 0.416849 -0.017240
H5    H     H_    0.403799 0.136447 0.355085 -0.036647
H6    H     H_    0.547687 0.854514 0.292407 -0.042145
H7    H     H_    0.530723 0.808018 0.166073 0.069196
H8    H     H_    0.622814 0.702040 0.617472 0.042000
H9    H     H_    0.414212 0.728853 0.590023 0.039130
H10   H     H_    0.645587 0.837951 0.701558 0.131936
H11   H     H_    0.589416 0.869915 0.612861 0.065882
H12   H     H_    0.755869 0.259215 0.227700 0.108803
H13   H     H_    0.437428 0.866573 0.676757 0.100270
H14   H     H_    0.380945 0.891024 0.187605 0.092926
H15   H     H_    0.874734 0.940862 0.319798 0.089180
H16   H     H_    0.834060 0.206921 0.632185 0.090628
H17   H     H_    0.036318 0.207131 0.677895 -0.139858
H18   H     H_    0.750008 0.079095 0.709120 0.160705
H19   H     H_    0.899091 0.054378 0.646757 0.061738
H20   H     H_    0.962935 0.075464 0.740378 0.093215
H21   H     H_    0.276349 0.120770 0.694604 -0.021306
H22   H     H_    0.325719 0.232500 0.740182 -0.000723
H23   H     H_    0.788316 0.380820 0.218499 0.053143
H24   H     H_    0.325165 0.109387 0.823745 0.068289
H25   H     H_    0.533854 0.151605 0.818699 0.141365
H26   H     H_    0.993426 0.791602 0.346663 0.120559
H27   H     H_    0.465010 0.043836 0.773180 0.101402
H28   H     H_    0.629710 0.703447 0.467534 0.060981
H29   H     H_    0.515048 0.975417 0.410796 0.058092
H30   H     H_    0.297544 0.022253 0.577238 0.060949
H31   H     H_    0.166893 0.298089 0.540434 0.075215
H32   H     H_    0.110742 0.896979 0.544247 0.099839
H33   H     H_    0.709051 0.103003 0.436121 0.096429
H34   H     H_    0.959663 0.311264 0.241508 0.137682
H35   H     H_    0.529169 0.519138 0.820526 0.088342
H36   H     H_    0.426104 0.619267 0.060824 0.077497
H37   H     H_    0.777368 0.778618 0.322820 -0.087950
H38   H     H_    0.306941 0.426485 0.188531 0.081082
H39   H     H_    0.100445 0.358176 0.865089 0.092919
H40   H     H_    0.742799 0.570214 0.134320 0.077181
H41   H     H_    0.648351 0.547075 0.351667 0.064451
H42   H     H_    0.022306 0.906601 0.258124 0.140866
H43   H     H_    0.805910 0.894887 0.231942 0.098778
H44   H     H_    0.673921 0.353296 0.333310 -0.019793
H45   H     H_    0.173729 0.814762 0.626825 0.036826
H46   H     H_    0.880285 0.402563 0.345223 0.058256
H47   H     H_    0.307190 0.681277 0.169700 0.137750
H48   H     H_    0.162634 0.772654 0.177069 0.191439
H49   H     H_    0.275897 0.759771 0.100138 0.100410
H50   H     H_    0.242673 0.030061 0.267409 0.039925
H51   H     H_    0.315017 0.139079 0.237120 0.043023
H52   H     H_    0.956678 0.067796 0.216343 0.130154
H53   H     H_    0.044778 0.168674 0.181962 0.113824
H54   H     H_    0.229416 0.068341 0.112349 0.132373
H55   H     H_    0.014921 0.042251 0.089570 0.144982
H56   H     H_    0.147789 0.778953 0.709861 0.042964
H57   H     H_    0.131816 0.967682 0.144742 0.140586
H58   H     H_    0.560829 0.651337 0.906953 0.018967
H59   H     H_    0.466203 0.718981 0.975418 0.041038
H60   H     H_    0.355306 0.710729 0.817250 0.136818
H61   H     H_    0.271223 0.780443 0.886057 0.113613
H62   H     H_    0.544175 0.863076 0.912345 0.126349
H63   H     H_    0.465060 0.871850 0.822039 0.138613
H64   H     H_    0.626105 0.793432 0.841892 0.138464
H65   H     H_    0.545499 0.248910 0.941755 0.119284
H66   H     H_    0.331189 0.231748 0.956546 0.113180
H67   H     H_    0.099613 0.948441 0.690200 0.081064
H68   H     H_    0.391817 0.275454 0.876281 0.121241
H69   H     H_    0.409087 0.254572 0.082120 0.110861
H70   H     H_    0.620578 0.272083 0.062957 0.113408
H71   H     H_    0.547547 0.323408 0.141074 0.110029
H72   H     H_    0.914234 0.590653 0.666653 0.172646
H73   H     H_    0.124880 0.634966 0.684304 0.056072
H74   H     H_    0.935848 0.538403 0.794513 0.150235
H75   H     H_    0.125783 0.601140 0.807696 0.137686
H76   H     H_    0.867539 0.677110 0.848336 0.127271
H77   H     H_    0.803228 0.687798 0.756870 0.161190
H78   H     H_    0.957746 0.886923 0.740431 0.112579
H79   H     H_    0.991310 0.744129 0.796284 0.125546
H80   H     H_    0.899912 0.906536 0.650036 0.126849
O1    O     O_2   0.108370 0.727470 0.525290 -0.478738
O2    O     O_2   0.755229 0.417012 0.754183 -0.489020
O3    O     O_3   0.846952 0.247961 0.738226 -0.586276
O4    O     O_3   0.865330 0.611210 0.531230 -0.462535
O5    O     O_3   0.438280 0.453360 0.418700 -0.495417
O6    O     O_2   0.627420 0.543410 0.667830 -0.474749
O7    O     O_3   0.450906 0.687213 0.692071 -0.665263
O8    O     O_2   0.577755 0.167880 0.554003 -0.506213
O9    O     O_3   0.510294 0.177132 0.684419 -0.571938
O10   O     O_3   0.346360 0.671710 0.401620 -0.463341
O11   O     O_2   0.219688 0.831163 0.436578 -0.504179
O12   O     O_3   0.345083 0.308790 0.327948 -0.648805
O13   O     O_3   0.951139 0.739188 0.638559 -0.665326
O14   O     O_3   0.311207 0.814394 0.308377 -0.591128
O15   O     O_2   0.182890 0.456530 0.332150 -0.462550
O16   O     O_3   0.933230 0.625130 0.368420 -0.494484
O17   O     O_2   0.054342 0.566831 0.247691 -0.474081
O18   O     O_3   0.153001 0.146596 0.316937 -0.632876
O19   O     O_3   0.321501 0.611070 0.925595 -0.662609
O20   O     O_3   0.093324 0.499812 0.666005 -0.652561
O21   O     O_3   0.930399 0.730321 0.247364 -0.609667
O22   O     O_2   0.701930 0.272470 0.474700 -0.475374
O23   O     O_3   0.944970 0.388780 0.468720 -0.486760
O24   O     O_3   0.463940 0.328280 0.598320 -0.461033
O25   O     O_3   0.849068 0.262432 0.361817 -0.608539
O26   O     O_3   0.372010 0.546630 0.581240 -0.440970
O27   O     O_3   0.877070 0.374860 0.631520 -0.432026
P1    P     P_3+3 0.937730 0.712710 0.546710 0.976959
P2    P     P_3+3 0.357970 0.428340 0.344000 0.986956
P3    P     P_3+3 0.908958 0.619279 0.276290 0.957745
P4    P     P_3+3 0.872570 0.287280 0.453240 0.992429
P5    P     P_3+3 0.895018 0.361725 0.723346 1.009985
P6    P     P_3+3 0.360103 0.790547 0.396467 0.951917
P7    P     P_3+3 0.443208 0.568487 0.670822 0.972125
P8    P     P_3+3 0.446279 0.208363 0.599713 0.949206

loop_
_geom_bond_atom_site_label_1
_geom_bond_atom_site_label_2
_ccdc_geom_bond_type
C45   O3    S    
C25   H36   S    
C48   H55   S    
C9    C11   A    
C45   H17   S    
C42   H3    S    
C5    C6    A    
O14   P6    S    
C18   H41   S    
C25   C31   A    
C11   P4    S    
C46   O18   S    
C9    C17   A    
O6    P7    D    
C2    P1    S    
C26   C27   A    
C1    H7    S    
C22   C24   A    
C28   O25   S    
C32   C33   A    
C35   C38   A    
C56   H20   S    
Ba2   P4    S    
C36   C37   A    
C50   H61   S    
C55   C57   S    
C39   H34   S    
O23   P4    S    
C13   C14   A    
C54   O20   S    
Ba1   P1    S    
C4    H26   S    
C54   C55   S    
Ba1   O10   S    
C23   O7    S    
Ba1   Ba2   S    
C59   H25   S    
C39   H12   S    
O10   P6    S    
C50   H60   S    
C7    C17   A    
O5    P2    S    
C6    C7    A    
C21   C31   S    
C5    P6    S    
C10   C15   A    
C43   H5    S    
O27   P5    S    
C55   H74   S    
C49   O19   S    
C23   H9    S    
C57   H77   S    
C7    C8    A    
Ba2   O24   S    
C30   C53   S    
C48   H54   S    
C3    H28   S    
C56   H18   S    
O25   P4    S    
C28   H46   S    
C47   H52   S    
C24   P3    S    
C19   C20   A    
C28   H44   S    
Ba1   O4    S    
C8    C60   A    
C43   O18   S    
C36   H35   S    
C52   H68   S    
C59   H27   S    
C26   O19   S    
C4    C16   S    
C32   H39   S    
C20   H38   S    
O17   P3    D    
C49   C50   S    
C41   H67   S    
C34   H11   S    
C56   H19   S    
Ba2   O22   S    
C3    C5    A    
C14   C15   A    
Ba2   O27   S    
C57   H76   S    
Ba2   O5    S    
C53   H71   S    
C52   H66   S    
Ba1   P2    S    
C42   H2    S    
C32   C37   A    
C40   H56   S    
C58   C59   S    
C58   O9    S    
C46   H50   S    
C38   O20   S    
C35   C36   A    
Ba1   O1    S    
C34   H13   S    
C10   C60   A    
C29   C30   A    
C11   C13   A    
Ba1   O23   S    
C21   C22   A    
C27   C37   S    
C49   H58   S    
C55   H75   S    
C41   H78   S    
C28   C39   S    
O24   P8    S    
C16   H42   S    
C18   C19   A    
C1    H14   S    
Ba2   O23   S    
C1    C12   S    
C51   H63   S    
O8    P8    D    
C46   C47   S    
C47   H53   S    
C53   H70   S    
C53   H69   S    
O4    P1    S    
C49   H59   S    
C51   H64   S    
Ba1   O5    S    
C40   C41   S    
C2    C8    A    
Ba2   O26   S    
C25   C26   A    
C54   H73   S    
C17   H33   S    
C50   C51   S    
C40   H45   S    
O26   P7    S    
Ba1   O16   S    
O3    P5    S    
C12   O14   S    
C33   P5    S    
O21   P3    S    
C42   C43   S    
O1    P1    D    
C2    C3    A    
C51   H62   S    
C13   H31   S    
C54   H72   S    
C9    C10   A    
C6    H29   S    
Ba2   O4    S    
C39   H23   S    
C52   H65   S    
O11   P6    D    
C1    C44   S    
Ba1   O26   S    
O7    P7    S    
C42   O12   S    
C30   C31   A    
C60   H32   S    
C33   C38   A    
C16   H43   S    
C27   C29   A    
C44   H48   S    
C19   P2    S    
C4    H37   S    
C45   C56   S    
C58   H22   S    
O13   P1    S    
O16   P3    S    
C18   C24   A    
C16   H15   S    
C12   H1    S    
Ba1   O15   S    
C58   H21   S    
O12   P2    S    
C40   O13   S    
C22   H40   S    
C29   C52   S    
C14   P8    S    
O22   P4    D    
O9    P8    S    
C59   H24   S    
C23   C34   S    
C48   H57   S    
C15   H30   S    
C4    O21   S    
C57   H79   S    
C47   C48   S    
C44   H47   S    
O2    P5    D    
C43   H4    S    
C12   H6    S    
C20   C21   A    
C41   H80   S    
C23   H8    S    
C45   H16   S    
C44   H49   S    
Ba2   O6    S    
O15   P2    D    
C34   H10   S    
C46   H51   S    
C35   P7    S    
