data_mof_unit_21335.cif
_audit_creation_date              2012-12-10T16:44:18-0500
_audit_creation_method            fapswitch 2.2
_symmetry_space_group_name_H-M    P1
_symmetry_Int_Tables_number       1
_space_group_crystal_system       triclinic
_cell_length_a                    7.429464
_cell_length_b                    8.684037
_cell_length_c                    13.393772
_cell_angle_alpha                 94.027271
_cell_angle_beta                  77.403596
_cell_angle_gamma                 103.174134
_cell_volume                      820.949892532

loop_
_atom_site_label
_atom_site_type_symbol
_atom_type_description
_atom_site_fract_x
_atom_site_fract_y
_atom_site_fract_z
_atom_type_partial_charge
C1    C     C_R   0.545358 0.800231 0.503047 0.877484
C2    C     C_R   0.337346 0.494939 0.806904 -0.183690
C3    C     C_2   0.570936 0.968148 0.504531 -0.374825
C4    C     C_R   0.399550 0.497956 0.694539 0.803716
C5    C     C_2   0.429080 0.031848 0.495465 -0.378154
C6    C     C_R   0.454637 0.199773 0.496969 0.890169
C7    C     C_R   0.601674 0.511390 0.305865 0.780123
C8    C     C_R   0.877495 0.683971 0.054285 -0.174912
C9    C     C_R   0.662555 0.538754 0.195841 -0.041975
C10   C     C_R   0.152478 0.415466 0.848961 -0.264184
C11   C     C_R   0.097328 0.383631 0.952840 0.502545
C12   C     C_R   0.417370 0.508969 0.975900 0.016836
C13   C     C_R   0.228596 0.430232 0.015975 -0.310239
C14   C     C_3   0.896222 0.160279 0.023519 0.062154
C15   C     C_3   0.688543 0.081591 0.058183 -0.774115
C16   C     C_R   0.465897 0.554486 0.872202 0.089685
C17   C     C_R   0.558682 0.547023 0.035938 0.125056
C18   C     C_R   0.737927 0.644006 0.995341 0.186278
C19   C     C_R   0.774393 0.703213 0.897346 -0.254454
C20   C     C_R   0.640054 0.660721 0.837088 -0.179814
C21   C     C_R   0.527912 0.490444 0.135069 -0.219794
C22   C     C_R   0.839509 0.632472 0.154483 -0.175579
Cu1   Cu    Cu3+1 0.321300 0.483160 0.488710 0.941838
Cu2   Cu    Cu3+1 0.678700 0.516840 0.511290 0.942450
H1    H     H_    0.944913 0.671375 0.200746 0.147574
H2    H     H_    0.673172 0.716187 0.763649 0.160860
H3    H     H_    0.707595 0.039672 0.513099 0.178701
H4    H     H_    0.966698 0.161269 0.088917 0.134646
H5    H     H_    0.959743 0.088330 0.958850 0.131868
H6    H     H_    0.614472 0.074543 0.993824 0.247368
H7    H     H_    0.675031 0.960163 0.084266 0.204671
H8    H     H_    0.621004 0.150902 0.122583 0.242687
H9    H     H_    0.292420 0.960317 0.486901 0.177962
H10   H     H_    0.010895 0.617743 0.579428 0.223976
H11   H     H_    0.989039 0.382205 0.420623 0.223403
H12   H     H_    0.907698 0.782719 0.866938 0.136434
H13   H     H_    0.014248 0.758500 0.023706 0.124050
H14   H     H_    0.398284 0.409999 0.167976 0.134076
H15   H     H_    0.050981 0.373594 0.800659 0.180261
H16   H     H_    0.176403 0.409220 0.096530 0.140820
N1    N     N_2   0.947230 0.542220 0.528320 -0.216744
N2    N     N_2   0.052770 0.457780 0.471680 -0.217064
O1    O     O_R   0.383920 0.714220 0.492660 -0.581598
O2    O     O_R   0.685730 0.742660 0.511730 -0.593028
O3    O     O_R   0.275440 0.478800 0.636790 -0.585647
O4    O     O_R   0.577250 0.507240 0.655860 -0.577367
O5    O     O_R   0.314270 0.257340 0.488270 -0.586103
O6    O     O_R   0.616080 0.285780 0.507340 -0.578745
O7    O     O_R   0.422750 0.492760 0.344140 -0.583406
O8    O     O_R   0.724560 0.521200 0.363210 -0.588206
O9    O     O_3   0.910233 0.315533 0.992775 -0.568051

loop_
_geom_bond_atom_site_label_1
_geom_bond_atom_site_label_2
_ccdc_geom_bond_type
C12   C17   A    
C8    C22   A    
Cu1   Cu2   S    
C15   H7    S    
Cu1   O3    S    
C2    C16   A    
N1    N2    D    
C1    O2    A    
C2    C4    S    
C19   C20   A    
C16   C20   A    
Cu2   O4    S    
C3    C5    D    
C3    H3    S    
C17   C18   A    
Cu1   O1    S    
C15   H8    S    
H10   N1    S    
C4    O4    A    
Cu2   N1    S    
C11   C13   A    
C9    C21   A    
C6    O6    A    
Cu1   N2    S    
C20   H2    S    
C6    O5    A    
C4    O3    A    
Cu2   O8    S    
C5    C6    S    
Cu2   O2    S    
C17   C21   A    
C9    C22   A    
Cu1   O7    S    
Cu1   O5    S    
C8    H13   S    
C14   H5    S    
C2    C10   A    
C12   C16   A    
C11   O9    S    
C12   C13   A    
C7    O7    A    
C15   H6    S    
C18   C19   A    
C10   C11   A    
C7    C9    S    
H11   N2    S    
C14   C15   S    
C13   H16   S    
C14   H4    S    
C19   H12   S    
C1    O1    A    
C8    C18   A    
C21   H14   S    
C14   O9    S    
C7    O8    A    
C5    H9    S    
C10   H15   S    
C1    C3    S    
C22   H1    S    
Cu2   O6    S    
