data_mof_unit_32899.cif
_audit_creation_date              2013-03-05T15:46:19-0500
_audit_creation_method            fapswitch 2.2
_symmetry_space_group_name_H-M    P1
_symmetry_Int_Tables_number       1
_space_group_crystal_system       triclinic
_cell_length_a                    8.380915
_cell_length_b                    15.140296
_cell_length_c                    19.102484
_cell_angle_alpha                 96.65929
_cell_angle_beta                  94.280042
_cell_angle_gamma                 98.654951
_cell_volume                      2369.64755587

loop_
_atom_site_label
_atom_site_type_symbol
_atom_site_description
_atom_site_fract_x
_atom_site_fract_y
_atom_site_fract_z
_atom_type_partial_charge
P1    P     P_3+3 0.990700 0.707490 0.561920 0.488165
O1    O     O_2   0.165020 0.721890 0.541560 -0.315504
O2    O     O_3   0.893030 0.608480 0.539180 -0.408476
O3    O     O_3   0.389120 0.667500 0.413900 -0.360881
O4    O     O_2   0.294134 0.820373 0.457732 -0.391596
O5    O     O_3   0.014353 0.722598 0.654682 -0.592946
O6    O     O_3   0.376546 0.805208 0.330011 -0.488958
H1    H     H_    0.502177 0.709010 0.283312 0.100330
C1    C     C_3   0.464786 0.809334 0.214993 -0.866883
H2    H     H_    0.353963 0.765862 0.187277 0.295575
H3    H     H_    0.446960 0.881015 0.219170 0.232852
P2    P     P_3+3 0.340130 0.430100 0.338870 0.435782
P3    P     P_3+3 0.928863 0.614251 0.284879 0.491700
O7    O     O_2   0.172060 0.457600 0.329040 -0.373983
O8    O     O_3   0.964390 0.622060 0.377370 -0.360572
O9    O     O_2   0.020098 0.540144 0.253827 -0.305927
O10   O     O_3   0.315967 0.310630 0.321649 -0.589382
O11   O     O_3   0.031791 0.710722 0.255387 -0.472373
C2    C     C_3   0.936873 0.780283 0.259659 0.741765
H4    H     H_    0.808233 0.754581 0.239757 0.000302
C3    C     C_3   0.001541 0.849145 0.211550 -0.961013
H5    H     H_    0.128545 0.880530 0.230462 0.273575
H6    H     H_    0.999069 0.815195 0.156491 0.237806
C4    C     C_3   0.749890 0.351517 0.319167 0.439887
H7    H     H_    0.647261 0.373999 0.345446 0.117311
H8    H     H_    0.855629 0.406608 0.327403 0.106076
C5    C     C_3   0.700600 0.327421 0.240073 -1.033321
H9    H     H_    0.584957 0.279210 0.231193 0.272392
H10   H     H_    0.684282 0.388280 0.215173 0.222670
H11   H     H_    0.796098 0.296134 0.213962 0.252804
Ba1   Ba    Ba6+2 0.161760 0.544680 0.467770 1.559811
C6    C     C_3   0.054150 0.644250 0.681462 0.324590
H12   H     H_    0.178403 0.635600 0.668125 0.074558
H13   H     H_    0.969185 0.582089 0.656570 0.128493
C7    C     C_3   0.047629 0.651829 0.763489 0.346515
H14   H     H_    0.164176 0.636821 0.787826 0.077306
C8    C     C_3   0.153142 0.266465 0.308155 0.405033
H15   H     H_    0.066260 0.309604 0.291168 0.116394
H16   H     H_    0.112322 0.239195 0.356473 0.029972
C9    C     C_3   0.141536 0.185171 0.251431 -1.044630
H17   H     H_    0.014903 0.167671 0.225443 0.243336
H18   H     H_    0.171758 0.125321 0.275506 0.242618
H19   H     H_    0.225882 0.199686 0.210471 0.259657
P4    P     P_3+3 0.819590 0.292500 0.438020 0.522418
O12   O     O_2   0.645270 0.278050 0.458420 -0.334686
O13   O     O_3   0.917270 0.391510 0.460760 -0.401276
O14   O     O_3   0.421180 0.332490 0.586040 -0.343199
O15   O     O_3   0.790887 0.274770 0.345430 -0.533164
P5    P     P_3+3 0.867537 0.369282 0.712729 0.533518
O16   O     O_3   0.383630 0.545490 0.584580 -0.426019
O17   O     O_3   0.845910 0.377930 0.622570 -0.388981
O18   O     O_2   0.733933 0.416825 0.744791 -0.299322
O19   O     O_3   0.813333 0.254736 0.721566 -0.507908
Ba2   Ba    Ba6+2 0.648420 0.455310 0.532170 1.576169
P6    P     P_3+3 0.426472 0.783752 0.416197 0.452267
C10   C     C_3   0.499098 0.782797 0.288201 0.374497
H20   H     H_    0.618874 0.821305 0.310820 0.030988
H21   H     H_    0.569665 0.801696 0.184259 0.240079
O20   O     O_3   0.426670 0.454500 0.415370 -0.456513
C11   C     C_3   0.540880 0.750486 0.702113 0.906938
H22   H     H_    0.658022 0.738946 0.682212 -0.047156
C12   C     C_3   0.569377 0.827423 0.768307 0.444289
H23   H     H_    0.517401 0.887554 0.754876 0.057430
P7    P     P_3+3 0.461039 0.564469 0.674787 0.454429
O21   O     O_2   0.638230 0.542350 0.670940 -0.336197
O22   O     O_3   0.466394 0.670952 0.725444 -0.662789
H24   H     H_    0.924652 0.902999 0.210905 0.217218
C13   C     C_3   0.812557 0.204606 0.654780 0.596957
H25   H     H_    0.718481 0.221020 0.617241 0.167896
H26   H     H_    0.930171 0.219555 0.633186 0.019828
C14   C     C_3   0.778328 0.104153 0.659134 -1.061705
H27   H     H_    0.747716 0.066120 0.604888 0.236030
H28   H     H_    0.885586 0.081436 0.685101 0.242170
H29   H     H_    0.673706 0.088139 0.689974 0.289268
P8    P     P_3+3 0.371314 0.212793 0.580312 0.454543
C15   C     C_3   0.387194 0.193069 0.721756 1.185772
O23   O     O_2   0.478007 0.176614 0.524915 -0.423180
O24   O     O_3   0.443744 0.166095 0.655340 -0.618560
C16   C     C_3   0.425925 0.118680 0.770525 0.487969
H30   H     H_    0.430892 0.055320 0.734755 0.021758
C17   C     C_R   0.159577 0.165462 0.540137 0.075701
C18   C     C_R   0.093759 0.072813 0.532361 -0.020867
C19   C     C_R   0.953298 0.887610 0.526038 -0.036851
C20   C     C_R   0.107245 0.920927 0.560949 -0.116904
C21   C     C_R   0.177786 0.010384 0.562078 -0.183661
C22   C     C_R   0.881048 0.795522 0.524642 0.194795
H31   H     H_    0.174600 0.878987 0.589464 0.177925
H32   H     H_    0.297871 0.029926 0.588708 0.166628
C23   C     C_R   0.715918 0.770647 0.499189 -0.201316
C24   C     C_R   0.915547 0.199035 0.475101 0.136876
C25   C     C_R   0.850140 0.104097 0.463655 -0.262279
C26   C     C_R   0.937132 0.042176 0.496292 -0.037670
C27   C     C_R   0.702280 0.068156 0.421575 0.700579
C28   C     C_R   0.639359 0.975945 0.418431 -0.392076
C29   C     C_R   0.712727 0.917610 0.457281 -0.094126
C30   C     C_R   0.867568 0.949067 0.493278 0.067878
C31   C     C_R   0.635495 0.828251 0.460206 0.131535
C32   C     C_R   0.066156 0.226384 0.514551 0.164858
H33   H     H_    0.532755 0.949744 0.383211 0.184231
C33   C     C_R   0.611308 0.539300 0.298916 -0.543445
C34   C     C_R   0.456738 0.492813 0.274787 0.221375
C35   C     C_R   0.399219 0.490982 0.202179 0.470110
C36   C     C_R   0.503601 0.529587 0.154275 -0.059540
C37   C     C_R   0.662253 0.570584 0.180134 -0.303277
C38   C     C_R   0.714889 0.576069 0.252167 0.162347
C39   C     C_R   0.453128 0.597772 0.039536 0.644672
C40   C     C_R   0.387893 0.585737 0.967278 -0.407482
C41   C     C_R   0.328923 0.499443 0.931063 0.214559
C42   C     C_R   0.339039 0.424665 0.967097 -0.169086
C43   C     C_R   0.402589 0.435580 0.037893 -0.266331
C44   C     C_R   0.450793 0.521618 0.076380 0.082836
C45   C     C_R   0.116373 0.439026 0.827387 0.516621
C46   C     C_R   0.074776 0.420475 0.752987 0.144429
C47   C     C_R   0.344037 0.493735 0.732094 0.406770
C48   C     C_R   0.383540 0.513741 0.805569 -0.378967
C49   C     C_R   0.272777 0.486231 0.853798 -0.138214
C50   C     C_R   0.190701 0.446390 0.706602 -0.569174
H34   H     H_    0.500845 0.552628 0.825406 0.168736
H35   H     H_    0.381438 0.643231 0.939046 0.150511
H36   H     H_    0.300892 0.357108 0.940154 0.106375
H37   H     H_    0.415584 0.375992 0.062671 0.135691
H38   H     H_    0.746035 0.596425 0.144046 0.176347
H39   H     H_    0.156802 0.436420 0.650228 0.210482
H40   H     H_    0.655864 0.541581 0.353837 0.177113
O25   O     O_3   0.918852 0.584169 0.777477 -0.592229
C51   C     C_3   0.869876 0.599129 0.847444 -0.035692
H41   H     H_    0.780718 0.647757 0.849354 0.113145
H42   H     H_    0.975260 0.621705 0.888915 0.111270
H43   H     H_    0.804005 0.534844 0.860342 0.178973
C52   C     C_3   0.028663 0.748068 0.794500 -0.894394
H44   H     H_    0.107949 0.801563 0.772402 0.246127
H45   H     H_    0.901663 0.751783 0.779276 0.315708
H46   H     H_    0.053740 0.760098 0.853135 0.219944
O26   O     O_3   0.433421 0.772807 0.648257 -0.631100
C53   C     C_3   0.496951 0.853510 0.622105 -0.422130
H47   H     H_    0.631520 0.866440 0.624020 0.119562
H48   H     H_    0.449870 0.912158 0.648808 0.145764
H49   H     H_    0.450404 0.849249 0.566593 0.242964
O27   O     O_3   0.735617 0.853189 0.793802 -0.611428
C54   C     C_3   0.823187 0.906476 0.748602 -0.389336
H50   H     H_    0.847424 0.864302 0.699965 0.167499
H51   H     H_    0.943645 0.936432 0.777574 0.204892
H52   H     H_    0.760471 0.962541 0.734070 0.152102
C55   C     C_3   0.478539 0.801356 0.832642 -0.905946
H53   H     H_    0.475191 0.862321 0.871873 0.223066
H54   H     H_    0.351311 0.770993 0.814878 0.229834
H55   H     H_    0.540101 0.752552 0.860753 0.248443
C56   C     C_3   0.203915 0.198643 0.712366 -1.228002
H56   H     H_    0.185489 0.258506 0.686426 0.275758
H57   H     H_    0.140354 0.136514 0.679933 0.238986
H58   H     H_    0.146935 0.205984 0.762568 0.250833
O28   O     O_3   0.480415 0.278693 0.747798 -0.536823
C57   C     C_3   0.444694 0.313963 0.815766 -0.132627
H59   H     H_    0.461771 0.270105 0.858132 0.145377
H60   H     H_    0.318622 0.328360 0.813465 0.086455
H61   H     H_    0.531419 0.377328 0.833177 0.183991
C58   C     C_3   0.293823 0.092352 0.821004 -1.143191
H62   H     H_    0.327736 0.041690 0.854520 0.271195
H63   H     H_    0.270895 0.151389 0.856781 0.257036
H64   H     H_    0.178508 0.059880 0.789276 0.244870
O29   O     O_3   0.580870 0.150281 0.809397 -0.583943
C59   C     C_3   0.648363 0.082331 0.840985 -0.174169
H65   H     H_    0.667000 0.102472 0.899485 0.149530
H66   H     H_    0.770576 0.079577 0.821890 0.166059
H67   H     H_    0.574257 0.013834 0.830658 0.131872
C60   C     C_3   0.947228 0.826302 0.336154 -0.871240
H68   H     H_    0.870006 0.781852 0.367623 0.192457
H69   H     H_    0.075751 0.837552 0.361123 0.307042
H70   H     H_    0.903515 0.893020 0.337757 0.205438
O30   O     O_3   0.634290 0.120523 0.375991 -0.587391
C61   C     C_3   0.462309 0.105611 0.368431 -0.064724
H71   H     H_    0.420680 0.172887 0.377207 0.192317
H72   H     H_    0.403041 0.064045 0.407560 0.104565
H73   H     H_    0.418267 0.074556 0.312502 0.113167
C62   C     C_3   0.620990 0.687006 0.521393 -0.554110
H74   H     H_    0.668218 0.673402 0.573713 0.199709
H75   H     H_    0.495749 0.695504 0.530944 0.267356
H76   H     H_    0.622457 0.627871 0.481423 0.235601
O31   O     O_3   0.120612 0.316415 0.531991 -0.652585
C63   C     C_3   0.221035 0.344394 0.480685 0.178643
H77   H     H_    0.153196 0.357845 0.433574 0.096818
H78   H     H_    0.304217 0.297151 0.463011 0.083649
H79   H     H_    0.292914 0.408117 0.505284 0.223511
O32   O     O_3   0.510950 0.682394 0.076839 -0.631278
C64   C     C_3   0.600216 0.739641 0.034761 -0.300388
H80   H     H_    0.516958 0.774475 0.003461 0.167880
H81   H     H_    0.676603 0.703422 0.999495 0.129765
H82   H     H_    0.684260 0.792361 0.070414 0.175490
O33   O     O_3   0.235994 0.466243 0.180254 -0.561358
C65   C     C_3   0.196744 0.372248 0.159512 -0.147465
H83   H     H_    0.089071 0.346444 0.185914 0.158439
H84   H     H_    0.297082 0.333984 0.171263 0.083591
H85   H     H_    0.156531 0.358849 0.101828 0.139517
O34   O     O_3   0.001857 0.421409 0.874741 -0.630889
C66   C     C_3   0.970265 0.328439 0.880977 -0.178431
H86   H     H_    0.058482 0.287982 0.857604 0.079858
H87   H     H_    0.845831 0.300123 0.856910 0.229116
H88   H     H_    0.974094 0.320595 0.938117 0.144368

loop_
_geom_bond_atom_site_label_1
_geom_bond_atom_site_label_2
_geom_bond_distance
_ccdc_geom_bond_type
C53   H49   1.093470 S    
P5    C46   1.861727 S    
C61   H71   1.124017 S    
C65   H83   1.108526 S    
C5    H10   1.106255 S    
O16   P7    1.770596 S    
O5    C6    1.419295 S    
C29   C30   1.410151 A    
C4    C5    1.523217 S    
O6    P6    1.747357 S    
O7    Ba1   2.833144 S    
H1    C10   1.114568 S    
C47   C48   1.404686 A    
C64   H80   1.115426 S    
C53   H47   1.112367 S    
C62   H75   1.102433 S    
Ba2   O21   2.833442 S    
O32   C64   1.418875 S    
C61   H72   1.127803 S    
C33   C38   1.395190 A    
O16   Ba2   2.952591 S    
P3    O11   1.754713 S    
C15   O24   1.424372 S    
C11   C12   1.594487 S    
C2    C3    1.533556 S    
C56   H57   1.103279 S    
C1    H21   1.105685 S    
C8    C9    1.528855 S    
C13   C14   1.517857 S    
C43   H37   1.082016 S    
O2    Ba2   2.838090 S    
C64   H81   1.117470 S    
C37   H38   1.083274 S    
C17   C32   1.402656 A    
C15   O28   1.423389 S    
C48   C49   1.408653 A    
C26   C30   1.435020 A    
C35   O33   1.382374 S    
C18   C26   1.421482 A    
C41   C42   1.401318 A    
C36   C44   1.506170 S    
P1    O1    1.530300 D    
Ba1   O20   2.953378 S    
C7    O25   1.435053 S    
O19   C13   1.405845 S    
C43   C44   1.405611 A    
C37   C38   1.402413 A    
C65   H85   1.114041 S    
C35   C36   1.426167 A    
P2    O20   1.560122 S    
C20   C21   1.390935 A    
C9    H19   1.111711 S    
O30   C61   1.418721 S    
C7    H14   1.115964 S    
P4    O13   1.591400 S    
C13   H25   1.101605 S    
P5    O17   1.740405 S    
Ba1   O13   2.837491 S    
P2    O10   1.778443 S    
C51   H42   1.125345 S    
C40   C41   1.405285 A    
C56   H58   1.104370 S    
C2    C60   1.534598 S    
C12   O27   1.421820 S    
C57   H60   1.109255 S    
O11   C2    1.410868 S    
C1    H2    1.112645 S    
C63   H79   1.091873 S    
O3    Ba1   2.796024 S    
Ba2   O20   2.792854 S    
C66   H88   1.110176 S    
P5    O18   1.545873 D    
C9    H18   1.115835 S    
O34   C66   1.413172 S    
C11   O22   1.406455 S    
C58   H63   1.110212 S    
C3    H5    1.113485 S    
C3    H24   1.113320 S    
C5    H11   1.110245 S    
C60   H69   1.125172 S    
P6    C31   1.876994 S    
O33   C65   1.413970 S    
O6    C10   1.404437 S    
C16   O29   1.432929 S    
C55   H55   1.125151 S    
C40   H35   1.081770 S    
C45   C46   1.422781 A    
C63   H78   1.113907 S    
C17   C18   1.414419 A    
C62   H76   1.109453 S    
C59   H66   1.117579 S    
C39   C44   1.417245 A    
P1    Ba1   3.433122 S    
C61   H73   1.127446 S    
C27   O30   1.390522 S    
P7    C47   1.850103 S    
P1    O5    1.752567 S    
C4    O15   1.396263 S    
C34   C35   1.429742 A    
C4    H7    1.104813 S    
C55   H54   1.107133 S    
C25   C26   1.439647 A    
C14   H28   1.112865 S    
P8    C17   1.880951 S    
C64   H82   1.109138 S    
C51   H43   1.107703 S    
O31   C63   1.400148 S    
C58   H62   1.109661 S    
C23   C31   1.422000 A    
C11   H22   1.109427 S    
P1    O2    1.591371 S    
P7    O22   1.774106 S    
C52   H45   1.093735 S    
C6    C7    1.563439 S    
C8    H15   1.104130 S    
C25   C27   1.422953 A    
C59   H67   1.113809 S    
C1    H3    1.112196 S    
C19   C20   1.400537 A    
C48   H34   1.084070 S    
C45   O34   1.385286 S    
O13   Ba2   2.946017 S    
C12   H23   1.114117 S    
C19   C22   1.430434 A    
C1    C10   1.518165 S    
O10   C8    1.417266 S    
C54   H50   1.114364 S    
C54   H52   1.114016 S    
O2    Ba1   2.945163 S    
P8    O23   1.540669 D    
C7    C52   1.543643 S    
C39   O32   1.390667 S    
O14   Ba2   2.795411 S    
C46   C50   1.406200 A    
P3    C38   1.837802 S    
C9    H17   1.117693 S    
P2    O7    1.532276 D    
O12   Ba2   2.878239 S    
C58   H64   1.115136 S    
C3    H6    1.113103 S    
O3    P6    1.735518 S    
C60   H68   1.119792 S    
C66   H87   1.109464 S    
C16   H30   1.119420 S    
C52   H46   1.112622 S    
C10   H20   1.111301 S    
C23   C62   1.512695 S    
Ba1   O16   2.793606 S    
C11   O26   1.420432 S    
C45   C49   1.421008 A    
P4    C24   1.908116 S    
P4    O12   1.530584 D    
C59   H65   1.116577 S    
C21   H32   1.076223 S    
P1    C22   1.902401 S    
C53   H48   1.111196 S    
C65   H84   1.114349 S    
O4    P6    1.543201 D    
C4    H8    1.109995 S    
C12   C55   1.551580 S    
C55   H53   1.124668 S    
C22   C23   1.412011 A    
C16   C58   1.558899 S    
C14   H29   1.104947 S    
O27   C54   1.418793 S    
C29   C31   1.418394 A    
O8    Ba1   2.777931 S    
O26   C53   1.418271 S    
C54   H51   1.118826 S    
C20   H31   1.077403 S    
C18   C21   1.405952 A    
C27   C28   1.408926 A    
O17   Ba2   2.778546 S    
C6    H12   1.113277 S    
C41   C49   1.496465 S    
C2    H4    1.112001 S    
P3    O8    1.756895 S    
C52   H44   1.111271 S    
C50   H39   1.080225 S    
O14   P8    1.786086 S    
C14   H27   1.117430 S    
P2    Ba1   3.412681 S    
C62   H74   1.100537 S    
O29   C59   1.417981 S    
C42   C43   1.397874 A    
P7    O21   1.575786 D    
C24   C25   1.444465 A    
O25   C51   1.430312 S    
C28   H33   1.072357 S    
C51   H41   1.124779 S    
P5    O19   1.756360 S    
C19   C30   1.429266 A    
C57   H61   1.113255 S    
C33   C34   1.395422 A    
C56   H56   1.107113 S    
Ba1   Ba2   4.612785 S    
C28   C29   1.398666 A    
P8    O24   1.776746 S    
C47   C50   1.396725 A    
C66   H86   1.115038 S    
P4    Ba2   3.433644 S    
P2    C34   1.877243 S    
C15   C16   1.596861 S    
O28   C57   1.416283 S    
C15   C56   1.549243 S    
C60   H70   1.123118 S    
C8    H16   1.110158 S    
C39   C40   1.427021 A    
P3    O9    1.538493 D    
C36   C37   1.407020 A    
C13   H26   1.099185 S    
O1    Ba1   2.877713 S    
C33   H40   1.081918 S    
C57   H59   1.119067 S    
C24   C32   1.400347 A    
C63   H77   1.084267 S    
P4    O15   1.750766 S    
C42   H36   1.080845 S    
C6    H13   1.123771 S    
C5    H9    1.111197 S    
C32   O31   1.364575 S    
