data_mof_unit_19150.cif
_audit_creation_date              2012-12-10T18:50:53-0500
_audit_creation_method            fapswitch 2.2
_symmetry_space_group_name_H-M    P1
_symmetry_Int_Tables_number       1
_space_group_crystal_system       triclinic
_cell_length_a                    10.712279
_cell_length_b                    9.965888
_cell_length_c                    15.744393
_cell_angle_alpha                 91.006249
_cell_angle_beta                  92.415564
_cell_angle_gamma                 91.417063
_cell_volume                      1678.53164412

loop_
_atom_site_label
_atom_site_type_symbol
_atom_type_description
_atom_site_fract_x
_atom_site_fract_y
_atom_site_fract_z
_atom_type_partial_charge
C1    C     C_R   0.260694 0.498287 0.500437 0.868802
C2    C     C_R   0.944659 0.613238 0.529705 -0.007279
C3    C     C_R   0.873093 0.508708 0.487388 -0.067919
C4    C     C_R   0.128726 0.495510 0.499937 -0.010364
C5    C     C_R   0.579046 0.075467 0.555401 0.212914
C6    C     C_R   0.571739 0.931828 0.559489 0.275520
C7    C     C_R   0.499286 0.498815 0.338615 0.952010
C8    C     C_R   0.427148 0.925123 0.442551 -0.117009
C9    C     C_R   0.424877 0.067863 0.443897 -0.121957
C10   C     C_R   0.739769 0.502215 0.495857 0.901967
C11   C     C_R   0.499370 0.500957 0.661401 0.872279
C12   C     C_3   0.610842 0.545663 0.956535 -0.391143
C13   C     C_3   0.383427 0.594185 0.050231 0.252444
C14   C     C_3   0.460310 0.330748 0.044168 0.279301
C15   C     C_3   0.461273 0.342575 0.942683 -0.264126
C16   C     C_3   0.372114 0.575087 0.949959 -0.171713
C17   C     C_1   0.493609 0.502096 0.749927 -0.159668
C18   C     C_3   0.482643 0.483370 0.082665 0.190172
C19   C     C_3   0.484186 0.491836 0.916617 0.195463
C20   C     C_3   0.254413 0.575732 0.095335 -0.368340
C21   C     C_3   0.135027 0.614132 0.045059 -0.906857
C22   C     C_3   0.330386 0.259786 0.061266 -0.409712
C23   C     C_3   0.614391 0.530355 0.053435 -0.505915
C24   C     C_3   0.299051 0.224680 0.152641 -0.875632
C25   C     C_3   0.567112 0.230471 0.074209 -0.370285
C26   C     C_3   0.611250 0.226656 0.168157 -0.769208
C27   C     C_3   0.436381 0.741130 0.077143 -0.318408
C28   C     C_3   0.346032 0.858783 0.077377 -0.858599
C29   C     C_2   0.538911 0.238771 0.897310 0.349977
C30   C     C_2   0.348036 0.702390 0.900717 0.388027
C31   C     C_2   0.867824 0.310685 0.380824 0.387196
C32   C     C_2   0.895340 0.741238 0.559853 0.365542
C33   C     C_3   0.680648 0.151023 0.609304 -0.382904
C34   C     C_1   0.488334 0.499071 0.824901 0.027568
C35   C     C_3   0.809748 0.138578 0.571922 -0.805872
C36   C     C_3   0.634835 0.863664 0.634574 -0.396222
C37   C     C_3   0.553812 0.867760 0.712256 -0.791422
C38   C     C_1   0.489330 0.487703 0.174503 -0.067748
C39   C     C_1   0.494713 0.494760 0.249835 -0.199846
C40   C     C_R   0.061270 0.397248 0.452413 -0.295508
C41   C     C_R   0.071474 0.601936 0.538629 -0.264494
C42   C     C_R   0.932763 0.405035 0.443008 -0.010355
H1    H     H_    0.286983 0.512614 0.934352 0.083734
H2    H     H_    0.126760 0.680194 0.572593 0.151228
H3    H     H_    0.145528 0.711501 0.013350 0.264377
H4    H     H_    0.106708 0.535178 0.997049 0.243098
H5    H     H_    0.057424 0.622294 0.089324 0.256065
H6    H     H_    0.238075 0.474565 0.118204 0.210399
H7    H     H_    0.258441 0.632858 0.156632 0.208635
H8    H     H_    0.350400 0.135828 0.174456 0.257935
H9    H     H_    0.316709 0.308613 0.198442 0.255920
H10   H     H_    0.198080 0.197062 0.153800 0.244569
H11   H     H_    0.252330 0.315480 0.031424 0.188416
H12   H     H_    0.366683 0.315816 0.914310 0.077384
H13   H     H_    0.325001 0.162693 0.025111 0.195433
H14   H     H_    0.674438 0.313638 0.184969 0.277206
H15   H     H_    0.534206 0.223468 0.212344 0.279585
H16   H     H_    0.666630 0.135209 0.178687 0.234921
H17   H     H_    0.537438 0.126337 0.055091 0.188629
H18   H     H_    0.653527 0.249268 0.039374 0.211822
H19   H     H_    0.299533 0.875401 0.014654 0.265951
H20   H     H_    0.274873 0.848087 0.126026 0.256045
H21   H     H_    0.401353 0.951270 0.094315 0.236283
H22   H     H_    0.477976 0.739669 0.142905 0.186117
H23   H     H_    0.368418 0.869065 0.396191 0.148068
H24   H     H_    0.513326 0.772448 0.036535 0.230811
H25   H     H_    0.507099 0.134428 0.895540 0.090118
H26   H     H_    0.253341 0.724936 0.879371 0.054931
H27   H     H_    0.911115 0.217105 0.363892 0.060215
H28   H     H_    0.911392 0.772886 0.625785 0.019964
H29   H     H_    0.857006 0.047127 0.593576 0.259807
H30   H     H_    0.801819 0.135780 0.501501 0.277262
H31   H     H_    0.870621 0.225805 0.592970 0.236335
H32   H     H_    0.663566 0.256844 0.616047 0.268184
H33   H     H_    0.683528 0.119403 0.676378 0.197965
H34   H     H_    0.364186 0.118283 0.398729 0.140042
H35   H     H_    0.548565 0.971622 0.738116 0.245374
H36   H     H_    0.457042 0.830775 0.695885 0.280154
H37   H     H_    0.595611 0.804011 0.762523 0.274763
H38   H     H_    0.659962 0.761276 0.618299 0.258422
H39   H     H_    0.726968 0.908728 0.653295 0.188178
H40   H     H_    0.648768 0.625414 0.085129 0.175995
H41   H     H_    0.688621 0.460340 0.072333 0.204960
H42   H     H_    0.626055 0.652775 0.940550 0.203788
H43   H     H_    0.690352 0.491492 0.930149 0.225576
H44   H     H_    0.109607 0.319609 0.418648 0.142647
N1    N     N_R   0.499970 0.857200 0.499980 -0.106477
N2    N     N_R   0.499970 0.142800 0.499980 -0.108437
O1    O     O_R   0.316750 0.614620 0.499990 -0.624874
O2    O     O_2   0.432811 0.780988 0.885059 -0.618191
O3    O     O_2   0.769296 0.338853 0.344591 -0.578232
O4    O     O_2   0.846535 0.817422 0.509242 -0.560194
O5    O     O_R   0.316750 0.385380 0.499990 -0.626907
O6    O     O_R   0.499990 0.614720 0.377140 -0.617772
O7    O     O_R   0.499990 0.385280 0.377140 -0.586629
O8    O     O_R   0.683220 0.614710 0.500000 -0.599065
O9    O     O_R   0.683220 0.385290 0.500000 -0.600605
O10   O     O_R   0.499980 0.614620 0.622860 -0.632816
O11   O     O_R   0.499980 0.385380 0.622860 -0.636187
O12   O     O_2   0.635983 0.268878 0.863553 -0.592805
Zn1   Zn    Zn3+2 0.499980 0.653120 0.500000 0.960660
Zn2   Zn    Zn3+2 0.499980 0.346880 0.500000 0.960543

loop_
_geom_bond_atom_site_label_1
_geom_bond_atom_site_label_2
_ccdc_geom_bond_type
C24   H10   S    
C3    C42   A    
C23   H40   S    
C14   C18   S    
C30   O2    D    
C32   O4    D    
C15   C19   S    
C37   H37   S    
C12   C23   S    
C23   H41   S    
C13   C18   S    
C11   O10   A    
C2    C32   S    
C36   C37   S    
C31   C42   S    
C9    N2    A    
C38   C39   T    
C4    C41   A    
C2    C41   A    
C16   C30   S    
C12   H42   S    
C11   O11   A    
C40   H44   S    
N1    Zn1   S    
C5    N2    A    
C33   H33   S    
C35   H31   S    
C4    C40   A    
O6    Zn1   S    
C8    C9    A    
C5    C33   S    
C9    H34   S    
O9    Zn2   S    
C13   C20   S    
O7    Zn2   S    
C28   H19   S    
C24   H9    S    
C40   C42   A    
C35   H29   S    
C8    H23   S    
C29   H25   S    
O8    Zn1   S    
C15   C29   S    
C22   H11   S    
C21   H3    S    
C24   H8    S    
C18   C23   S    
C15   H12   S    
C36   H38   S    
C32   H28   S    
C25   C26   S    
C37   H35   S    
C6    N1    A    
C10   O9    A    
C20   H7    S    
C10   O8    A    
C36   H39   S    
C26   H16   S    
C16   H1    S    
C20   H6    S    
C12   H43   S    
C25   H18   S    
C35   H30   S    
C31   O3    D    
C41   H2    S    
C22   C24   S    
C17   C34   T    
C21   H4    S    
C7    O6    A    
C11   C17   S    
C1    O1    A    
C29   O12   D    
O1    Zn1   S    
C19   C34   S    
C26   H14   S    
O5    Zn2   S    
N2    Zn2   S    
C22   H13   S    
O10   Zn1   S    
C7    O7    A    
C37   H36   S    
C1    C4    S    
C8    N1    A    
C2    C3    A    
C18   C38   S    
C3    C10   S    
C14   C22   S    
C5    C6    A    
C16   C19   S    
C12   C19   S    
C33   C35   S    
C6    C36   S    
C14   C25   S    
C26   H15   S    
C27   H22   S    
C28   H21   S    
C33   H32   S    
C31   H27   S    
O11   Zn2   S    
C20   C21   S    
C1    O5    A    
C13   C16   S    
C27   C28   S    
C27   H24   S    
C7    C39   S    
C14   C15   S    
C13   C27   S    
C25   H17   S    
C30   H26   S    
C21   H5    S    
C28   H20   S    
