data_mof_unit_53625.cif
_audit_creation_date              2012-10-26T18:39:08-0400
_audit_creation_method            fapswitch 2.2
_symmetry_space_group_name_H-M    P1
_symmetry_Int_Tables_number       1
_space_group_crystal_system       triclinic
_cell_length_a                    9.44312
_cell_length_b                    10.608825
_cell_length_c                    17.339329
_cell_angle_alpha                 90.168687
_cell_angle_beta                  85.227255
_cell_angle_gamma                 90.061618
_cell_volume                      1731.02977191

loop_
_atom_site_label
_atom_site_type_symbol
_atom_type_description
_atom_site_fract_x
_atom_site_fract_y
_atom_site_fract_z
_atom_type_partial_charge
C1    C     C_R   0.499927 0.740494 0.499880 0.550102
C2    C     C_3   0.580218 0.957951 0.437533 -0.123937
C3    C     C_3   0.944251 0.397044 0.530109 -0.006598
C4    C     C_3   0.055715 0.603001 0.469944 -0.006070
C5    C     C_3   0.040392 0.490631 0.569862 -0.003689
C6    C     C_3   0.959630 0.509300 0.430141 -0.002049
C7    C     C_3   0.054488 0.406977 0.460524 0.120335
C8    C     C_3   0.945499 0.592960 0.539559 0.117689
C9    C     C_R   0.480399 0.499906 0.649580 0.541427
C10   C     C_R   0.519645 0.499586 0.350378 0.542169
C11   C     C_R   0.467353 0.497998 0.733738 -0.000345
C12   C     C_R   0.500075 0.259505 0.500100 0.550118
C13   C     C_R   0.533014 0.497453 0.266134 0.002218
C14   C     C_R   0.573332 0.441152 0.772879 -0.146860
C15   C     C_R   0.426742 0.441314 0.226585 -0.144138
C16   C     C_R   0.562061 0.438744 0.852898 -0.130456
C17   C     C_R   0.438467 0.438661 0.146568 -0.128936
C18   C     C_R   0.447029 0.497418 0.895653 0.054247
C19   C     C_R   0.554313 0.496446 0.104152 0.053919
C20   C     C_R   0.337189 0.553160 0.856183 0.034839
C21   C     C_R   0.664561 0.551329 0.143949 0.034806
C22   C     C_R   0.348708 0.551689 0.775108 -0.123704
C23   C     C_3   0.365752 0.959127 0.497537 -0.116068
C24   C     C_R   0.652544 0.550084 0.225037 -0.123018
C25   C     C_2   0.441647 0.497441 0.980890 -0.146315
C26   C     C_2   0.559887 0.496620 0.018913 -0.146435
C27   C     C_3   0.117313 0.293241 0.415398 -0.263723
C28   C     C_3   0.006460 0.228042 0.369947 -0.478504
C29   C     C_3   0.882566 0.705508 0.585895 -0.262588
C30   C     C_3   0.994492 0.771538 0.630232 -0.477944
C31   C     C_3   0.208477 0.616332 0.897834 -0.279762
C32   C     C_3   0.246713 0.743805 0.931659 -0.438350
C33   C     C_3   0.794219 0.613358 0.102615 -0.279818
C34   C     C_3   0.634255 0.040873 0.502412 -0.116254
C35   C     C_3   0.757792 0.741122 0.069063 -0.438419
C36   C     C_3   0.446772 0.041877 0.435277 -0.128591
C37   C     C_3   0.553232 0.958128 0.564673 -0.130279
C38   C     C_3   0.500647 0.122508 0.500139 0.046519
C39   C     C_3   0.499358 0.877492 0.499814 0.046567
C40   C     C_3   0.419787 0.042045 0.562416 -0.125374
Cu1   Cu    Cu3+1 0.356850 0.500010 0.499980 0.909743
Cu2   Cu    Cu3+1 0.643150 0.499990 0.500020 0.907580
H1    H     H_    0.663901 0.396413 0.741506 0.119974
H2    H     H_    0.643619 0.389288 0.880983 0.102004
H3    H     H_    0.403057 0.079521 0.382493 0.099636
H4    H     H_    0.596934 0.920509 0.617465 0.100292
H5    H     H_    0.255686 0.923327 0.495221 0.105065
H6    H     H_    0.744322 0.076683 0.504718 0.104962
H7    H     H_    0.354160 0.079646 0.613419 0.105412
H8    H     H_    0.645836 0.920326 0.386530 0.103791
H9    H     H_    0.078216 0.482545 0.628558 0.099780
H10   H     H_    0.921845 0.517330 0.371436 0.097935
H11   H     H_    0.913823 0.198363 0.409390 0.156919
H12   H     H_    0.335477 0.397362 0.257513 0.110429
H13   H     H_    0.969852 0.292368 0.325281 0.148479
H14   H     H_    0.054039 0.143121 0.340580 0.131342
H15   H     H_    0.207154 0.323888 0.374657 0.167837
H16   H     H_    0.156492 0.224246 0.456631 0.157819
H17   H     H_    0.033933 0.707291 0.674126 0.142178
H18   H     H_    0.085251 0.802613 0.589909 0.154984
H19   H     H_    0.946794 0.855666 0.660454 0.132645
H20   H     H_    0.840723 0.774538 0.545575 0.158194
H21   H     H_    0.794758 0.673260 0.627646 0.175811
H22   H     H_    0.324799 0.733055 0.975567 0.157473
H23   H     H_    0.893219 0.310244 0.554967 0.094664
H24   H     H_    0.292121 0.806916 0.884899 0.151158
H25   H     H_    0.149428 0.788463 0.959921 0.129440
H26   H     H_    0.125230 0.632847 0.857242 0.129413
H27   H     H_    0.158659 0.554118 0.943771 0.127006
H28   H     H_    0.679857 0.730997 0.024978 0.157469
H29   H     H_    0.712920 0.804657 0.115928 0.151073
H30   H     H_    0.855769 0.784939 0.041077 0.129382
H31   H     H_    0.877489 0.629173 0.143357 0.129750
H32   H     H_    0.843397 0.550671 0.056559 0.126909
H33   H     H_    0.106705 0.689837 0.445118 0.096989
H34   H     H_    0.734823 0.593164 0.256351 0.107781
H35   H     H_    0.266786 0.595377 0.744013 0.108705
H36   H     H_    0.662806 0.502128 0.986627 0.118820
H37   H     H_    0.338878 0.504093 0.013249 0.119051
H38   H     H_    0.356510 0.389818 0.118195 0.102038
N1    N     N_3   0.141720 0.500030 0.499940 -0.236428
N2    N     N_3   0.858280 0.499970 0.500060 -0.236729
O1    O     O_R   0.379130 0.683150 0.499960 -0.505514
O2    O     O_R   0.620870 0.316850 0.500040 -0.505675
O3    O     O_R   0.620910 0.683140 0.500000 -0.516140
O4    O     O_R   0.379090 0.316860 0.500000 -0.515636
O5    O     O_R   0.365090 0.500030 0.613580 -0.507462
O6    O     O_R   0.634910 0.499970 0.386420 -0.507911
O7    O     O_R   0.606870 0.500020 0.613610 -0.513937
O8    O     O_R   0.393130 0.499980 0.386390 -0.511237

loop_
_geom_bond_atom_site_label_1
_geom_bond_atom_site_label_2
_ccdc_geom_bond_type
C29   H21   S    
C6    N2    S    
C34   C37   S    
Cu1   Cu2   S    
Cu2   N2    S    
C4    C8    S    
C28   H14   S    
Cu1   O4    S    
C10   O6    A    
C26   H36   S    
C8    N2    S    
C8    C29   S    
C19   C21   A    
C37   C40   S    
C3    C7    S    
C11   C14   A    
C21   C33   S    
C40   H7    S    
Cu1   O1    S    
C7    C27   S    
C12   O2    A    
C19   C26   S    
C4    H33   S    
C2    H8    S    
C17   C19   A    
C2    C39   S    
C4    N1    S    
C35   H28   S    
C30   H18   S    
C16   H2    S    
C2    C34   S    
Cu1   O8    S    
C35   H29   S    
C34   C38   S    
C3    H23   S    
C18   C25   S    
C28   H13   S    
C1    O3    A    
C31   H26   S    
Cu1   O5    S    
C23   H5    S    
C15   H12   S    
Cu2   O2    S    
C32   H22   S    
C4    C6    S    
C27   H15   S    
C9    O7    A    
C24   H34   S    
C25   C26   D    
C10   C13   S    
C17   H38   S    
C13   C24   A    
C29   C30   S    
C5    N1    S    
C31   C32   S    
Cu1   N1    S    
C30   H17   S    
C3    N2    S    
C36   H3    S    
Cu2   O3    S    
C9    C11   S    
C32   H25   S    
C33   H31   S    
C7    N1    S    
C20   C22   A    
C35   H30   S    
C13   C15   A    
C14   C16   A    
C30   H19   S    
C34   H6    S    
C32   H24   S    
C2    C36   S    
C15   C17   A    
C29   H20   S    
C25   H37   S    
C22   H35   S    
C3    C5    S    
C27   H16   S    
C5    C8    S    
C28   H11   S    
C6    C7    S    
C1    O1    A    
C11   C22   A    
C12   O4    A    
Cu2   O7    S    
C36   C38   S    
C37   C39   S    
C9    O5    A    
C38   C40   S    
C23   C39   S    
C33   C35   S    
C18   C20   A    
C12   C38   S    
C1    C39   S    
C33   H32   S    
C31   H27   S    
Cu2   O6    S    
C10   O8    A    
C16   C18   A    
C23   C36   S    
C21   C24   A    
C27   C28   S    
C5    H9    S    
C6    H10   S    
C37   H4    S    
C23   C40   S    
C14   H1    S    
C20   C31   S    
