data_mof_unit_59439.cif
_audit_creation_date              2013-03-05T16:23:14-0500
_audit_creation_method            fapswitch 2.2
_symmetry_space_group_name_H-M    P1
_symmetry_Int_Tables_number       1
_space_group_crystal_system       triclinic
_cell_length_a                    27.232437
_cell_length_b                    10.500313
_cell_length_c                    9.870388
_cell_angle_alpha                 90.368915
_cell_angle_beta                  89.00912
_cell_angle_gamma                 91.592444
_cell_volume                      2820.86660535

loop_
_atom_site_label
_atom_site_type_symbol
_atom_site_description
_atom_site_fract_x
_atom_site_fract_y
_atom_site_fract_z
_atom_type_partial_charge
O1    O     O_R   0.500000 0.313960 0.616610 -0.580342
O2    O     O_R   0.500000 0.686040 0.383390 -0.592030
O3    O     O_R   0.500020 0.313950 0.383350 -0.608897
O4    O     O_R   0.499980 0.686050 0.616650 -0.597749
C1    C     C_R   0.500084 0.258154 0.499817 0.909090
C2    C     C_R   0.500420 0.742062 0.500182 0.918352
O5    O     O_R   0.428750 0.500030 0.616610 -0.560386
O6    O     O_R   0.571250 0.499970 0.383390 -0.533496
O7    O     O_R   0.428770 0.500020 0.383360 -0.608364
O8    O     O_R   0.571230 0.499980 0.616640 -0.630412
C3    C     C_R   0.405677 0.500746 0.501382 0.931760
C4    C     C_R   0.593906 0.496422 0.499663 0.939636
Zn1   Zn    Zn3+2 0.499990 0.500010 0.655740 1.056724
Zn2   Zn    Zn3+2 0.500010 0.499990 0.344260 1.076257
C5    C     C_R   0.178525 0.374214 0.589081 0.568990
C6    C     C_R   0.812695 0.493962 0.680214 0.563830
O9    O     O_2   0.207955 0.273508 0.574301 -0.521913
O10   O     O_2   0.784000 0.586520 0.730440 -0.523548
N1    N     N_R   0.198147 0.495651 0.584010 -0.338791
N2    N     N_R   0.792386 0.395997 0.605883 -0.335897
C7    C     C_R   0.169428 0.599512 0.600847 0.603621
C8    C     C_R   0.819880 0.296689 0.560890 0.605220
C9    C     C_R   0.281790 0.556938 0.658342 0.487600
C10   C     C_R   0.704319 0.329499 0.613967 0.517100
C11   C     C_R   0.332044 0.559171 0.631346 -0.205709
C12   C     C_R   0.656322 0.356297 0.579934 -0.268921
C13   C     C_R   0.319265 0.465683 0.407603 -0.091117
C14   C     C_R   0.684286 0.544257 0.453108 -0.086755
C15   C     C_R   0.268607 0.473042 0.431366 -0.180975
C16   C     C_R   0.732604 0.510110 0.477206 -0.187558
C17   C     C_R   0.249732 0.512939 0.557039 0.136373
C18   C     C_R   0.742878 0.407630 0.561841 0.132577
C19   C     C_R   0.098100 0.459365 0.632090 -0.050709
C20   C     C_R   0.892502 0.401287 0.652324 -0.051332
C21   C     C_R   0.127897 0.353973 0.608307 -0.031512
C22   C     C_R   0.863364 0.501160 0.699992 -0.035011
C23   C     C_R   0.106542 0.231335 0.603185 -0.107506
C24   C     C_R   0.885591 0.608327 0.760565 -0.109854
C25   C     C_R   0.119382 0.583095 0.632933 -0.029851
C26   C     C_R   0.870142 0.294635 0.589056 -0.042318
C27   C     C_R   0.351694 0.508714 0.510197 -0.189721
C28   C     C_R   0.645713 0.464814 0.504405 -0.160923
H1    H     H_    0.243134 0.438206 0.355532 0.204236
H2    H     H_    0.762971 0.570148 0.440723 0.201280
H3    H     H_    0.128846 0.148401 0.588212 0.201069
H4    H     H_    0.863833 0.684796 0.801585 0.202278
C29   C     C_R   0.973152 0.306767 0.621648 0.045025
C30   C     C_R   0.017675 0.546823 0.685578 0.047246
C31   C     C_R   0.966492 0.527472 0.705180 0.041905
C32   C     C_R   0.024929 0.318889 0.629493 0.044149
C33   C     C_R   0.944183 0.410996 0.661838 0.082155
C34   C     C_R   0.046810 0.441404 0.650668 0.081163
C35   C     C_R   0.949398 0.196876 0.567380 -0.206976
C36   C     C_R   0.040330 0.669429 0.691574 -0.207639
C37   C     C_R   0.898840 0.192213 0.548867 -0.109715
C38   C     C_R   0.090173 0.687335 0.662786 -0.109045
O11   O     O_2   0.799093 0.202908 0.485436 -0.491338
O12   O     O_2   0.189121 0.717881 0.584818 -0.504481
C39   C     C_R   0.055786 0.214017 0.611600 -0.207863
C40   C     C_R   0.936452 0.622335 0.761417 -0.210123
H5    H     H_    0.626419 0.296394 0.619700 0.192311
H6    H     H_    0.356280 0.596411 0.708745 0.249295
H7    H     H_    0.882424 0.108607 0.501015 0.196787
H8    H     H_    0.105744 0.783411 0.664309 0.192083
H9    H     H_    0.969379 0.116292 0.529911 0.146984
H10   H     H_    0.019783 0.754315 0.710453 0.143678
H11   H     H_    0.041570 0.117208 0.605873 0.144140
H12   H     H_    0.951511 0.708086 0.807357 0.152392
C41   C     C_3   0.511238 0.043744 0.625307 -0.138133
C42   C     C_3   0.489704 0.956979 0.374588 -0.147459
C43   C     C_3   0.544732 0.963510 0.534301 -0.050587
C44   C     C_3   0.456221 0.037544 0.465874 -0.045819
H13   H     H_    0.521310 0.081624 0.726652 0.207458
H14   H     H_    0.480309 0.918447 0.272976 0.212445
C45   C     C_3   0.500705 0.877284 0.499916 -0.077527
C46   C     C_3   0.500281 0.123302 0.500169 -0.077360
C47   C     C_3   0.466531 0.955890 0.590323 -0.188657
C48   C     C_3   0.534395 0.045049 0.409692 -0.190655
H15   H     H_    0.438104 0.917522 0.661927 0.210150
H16   H     H_    0.562696 0.083919 0.337998 0.224204
C49   C     C_3   0.511394 0.390555 0.046504 -0.105617
C50   C     C_3   0.488488 0.609250 0.953408 -0.132657
C51   C     C_3   0.542686 0.472992 0.948266 -0.300389
C52   C     C_3   0.457016 0.526416 0.051671 -0.261788
H17   H     H_    0.578834 0.450461 0.901488 0.204568
H18   H     H_    0.420805 0.548605 0.098191 0.202521
N3    N     N_3   0.499960 0.500030 0.863290 -0.170921
N4    N     N_3   0.500040 0.499970 0.136710 -0.165793
C53   C     C_3   0.468875 0.416738 0.954007 0.505344
C54   C     C_3   0.530944 0.582834 0.045548 0.456075
C55   C     C_2   0.335323 0.403603 0.279741 0.950465
O13   O     O_2   0.370063 0.332611 0.278078 -0.550532
O14   O     O_R   0.308317 0.419906 0.162255 -0.759163
H19   H     H_    0.321659 0.370195 0.082072 0.403890
C56   C     C_2   0.676271 0.668517 0.387193 1.050413
O15   O     O_2   0.637131 0.721290 0.401253 -0.582231
O16   O     O_R   0.714100 0.727209 0.310541 -0.754253
H20   H     H_    0.704259 0.811604 0.271304 0.389455
C57   C     C_2   0.529204 0.266917 0.098464 1.008571
O17   O     O_2   0.568210 0.265231 0.157777 -0.597644
O18   O     O_R   0.502342 0.153974 0.074780 -0.741049
H21   H     H_    0.519524 0.076273 0.108630 0.355694
C58   C     C_2   0.471568 0.733847 0.901930 1.003680
O19   O     O_2   0.432793 0.737552 0.841877 -0.627368
O20   O     O_R   0.499049 0.845482 0.926984 -0.736061
H22   H     H_    0.482614 0.924103 0.892624 0.356932
S1    S     S_3+6 0.422613 0.304026 0.900048 0.090764
O21   O     O_2   0.381757 0.372132 0.833780 -0.266522
O22   O     O_2   0.443672 0.208566 0.803481 -0.280596
O23   O     O_3   0.400024 0.225624 0.036145 -0.479296
H23   H     H_    0.375307 0.163989 0.999894 0.400179
S2    S     S_3+6 0.580391 0.685469 0.096049 0.105650
O24   O     O_2   0.564087 0.780150 0.200686 -0.237765
O25   O     O_2   0.620060 0.605224 0.151188 -0.281395
O26   O     O_3   0.602909 0.764564 0.960385 -0.468692
H24   H     H_    0.619639 0.699095 0.905156 0.362909
S3    S     S_3+6 0.713784 0.205337 0.730454 0.076864
O27   O     O_2   0.726165 0.086168 0.653556 -0.214165
O28   O     O_2   0.755080 0.240694 0.823769 -0.273949
O29   O     O_3   0.662187 0.177628 0.823130 -0.551743
H25   H     H_    0.668068 0.098069 0.873018 0.409813
S4    S     S_3+6 0.261216 0.601056 0.822936 0.076457
O30   O     O_2   0.242402 0.734155 0.819729 -0.243793
O31   O     O_2   0.220798 0.511149 0.871142 -0.275339
O32   O     O_3   0.308095 0.597448 0.931481 -0.515654
H26   H     H_    0.296499 0.643735 0.013176 0.404483
C59   C     C_2   0.594826 0.924545 0.573879 1.013862
O33   O     O_2   0.631079 0.972285 0.517387 -0.551054
O34   O     O_R   0.599925 0.834670 0.675710 -0.757583
H27   H     H_    0.635603 0.815020 0.691570 0.357886
C60   C     C_2   0.406220 0.082161 0.432154 0.984096
O35   O     O_2   0.388227 0.054046 0.323050 -0.558607
O36   O     O_R   0.380226 0.154496 0.527005 -0.741431
H28   H     H_    0.346458 0.177054 0.494583 0.367885

loop_
_geom_bond_atom_site_label_1
_geom_bond_atom_site_label_2
_geom_bond_distance
_ccdc_geom_bond_type
C51   N3    1.480913 S    
O18   H21   1.013097 S    
C42   C48   1.550597 S    
C41   C47   1.549354 S    
C56   O15   1.220322 D    
C54   S2    1.777288 S    
C44   C46   1.521569 S    
N1    C17   1.432066 S    
C8    O11   1.348696 S    
S2    O25   1.499999 D    
O16   H20   1.014056 S    
C2    C45   1.419693 S    
C19   C34   1.413171 A    
C30   C36   1.413383 A    
C20   C33   1.412942 A    
O14   H19   1.012976 S    
C31   C40   1.411383 A    
C14   C56   1.484932 S    
O1    C1    1.289802 A    
C32   C39   1.412001 A    
C21   C23   1.399147 A    
C12   H5    1.084670 S    
C46   C48   1.529709 S    
S3    O28   1.503021 D    
C48   H16   1.108482 S    
C13   C15   1.399504 A    
C50   N3    1.483660 S    
C41   C46   1.533760 S    
C14   C28   1.412087 A    
O4    Zn1   1.993660 S    
C41   C43   1.534033 S    
O23   H23   0.990502 S    
C4    C28   1.459877 S    
C39   H11   1.079143 S    
C5    N1    1.369670 A    
C57   O17   1.222321 D    
C31   C33   1.417359 A    
C37   H7    1.083412 S    
C42   H14   1.110391 S    
C32   C34   1.418430 A    
C50   C58   1.494085 S    
C38   H8    1.083519 S    
C13   C55   1.481579 S    
C9    S4    1.772311 S    
C35   H9    1.078623 S    
O6    C4    1.313581 A    
C29   C35   1.414001 A    
C49   C53   1.518987 S    
C47   H15   1.108375 S    
C15   H1    1.084251 S    
S1    O22   1.497612 D    
C16   H2    1.083804 S    
O2    C2    1.290899 A    
C5    C21   1.399019 A    
S2    O24   1.499221 D    
C49   C51   1.535224 S    
C29   C32   1.415609 A    
C35   C37   1.391496 A    
C36   C38   1.389839 A    
C16   C18   1.403728 A    
S2    O26   1.678247 S    
O4    C2    1.294391 A    
S3    O29   1.682871 S    
C11   C27   1.407988 A    
C55   O13   1.220456 D    
C29   C33   1.417431 A    
C49   C57   1.495277 S    
C60   O36   1.397245 S    
C9    C17   1.406145 A    
O5    C3    1.309009 A    
O7    Zn2   1.971502 S    
C59   O34   1.394436 S    
C44   C47   1.536779 S    
C55   O14   1.397839 S    
O7    C3    1.314316 A    
C13   C27   1.418584 A    
C25   C38   1.397753 A    
C7    C25   1.400070 A    
C30   C34   1.417028 A    
C6    N2    1.369319 A    
C26   C37   1.398294 A    
C8    C26   1.402169 A    
Zn1   N3    2.048583 S    
C10   S3    1.770981 S    
C58   O20   1.396135 S    
C19   C25   1.407866 A    
C41   H13   1.110119 S    
C45   C47   1.532358 S    
C23   C39   1.390210 A    
O3    Zn2   1.993662 S    
O8    C4    1.300744 A    
C24   C40   1.388951 A    
C30   C31   1.413128 A    
C51   H17   1.110856 S    
N4    C54   1.489354 S    
C50   C52   1.540263 S    
N3    C53   1.491975 S    
O32   H26   0.990374 S    
S1    O23   1.678746 S    
C20   C26   1.407535 A    
O1    Zn1   1.988963 S    
C52   C53   1.534749 S    
S1    O21   1.500872 D    
C23   H3    1.083401 S    
C59   O33   1.222275 D    
C42   C45   1.536350 S    
O29   H25   0.990687 S    
C12   C28   1.405100 A    
C44   C60   1.495830 S    
O34   H27   1.013852 S    
N2    C18   1.432374 S    
C5    O9    1.350122 S    
C51   C54   1.533026 S    
O6    Zn2   1.984659 S    
C57   O18   1.396540 S    
C52   N4    1.486437 S    
N2    C8    1.367890 A    
O3    C1    1.293671 A    
O8    Zn1   1.971505 S    
C50   C54   1.515994 S    
C56   O16   1.399006 S    
C36   H10   1.079007 S    
O20   H22   1.013041 S    
C43   C59   1.494146 S    
S4    O32   1.682140 S    
C14   C16   1.398097 A    
Zn2   N4    2.048584 S    
C7    O12   1.349081 S    
C15   C17   1.400569 A    
S3    O27   1.502636 D    
C6    C22   1.396830 A    
C43   C45   1.523898 S    
C10   C12   1.391873 A    
C10   C18   1.406855 A    
O36   H28   1.013614 S    
C1    C46   1.416175 S    
C22   C24   1.398602 A    
C19   C21   1.406489 A    
C3    C27   1.475810 S    
C20   C22   1.406335 A    
C11   H6    1.082313 S    
C9    C11   1.389297 A    
C60   O35   1.221908 D    
O2    Zn2   1.988961 S    
C24   H4    1.083375 S    
C49   N4    1.485045 S    
C53   S1    1.789898 S    
O5    Zn1   1.984654 S    
C40   H12   1.079438 S    
C6    O10   1.350404 S    
C58   O19   1.221528 D    
C52   H18   1.110540 S    
C42   C44   1.537385 S    
S4    O30   1.502561 D    
S4    O31   1.503011 D    
C43   C48   1.537529 S    
O26   H24   0.990604 S    
N1    C7    1.367175 A    
