data_mof_unit_53143.cif
_audit_creation_date              2013-03-05T16:42:13-0500
_audit_creation_method            fapswitch 2.2
_symmetry_space_group_name_H-M    P1
_symmetry_Int_Tables_number       1
_space_group_crystal_system       triclinic
_cell_length_a                    14.921062
_cell_length_b                    10.647416
_cell_length_c                    9.860754
_cell_angle_alpha                 89.561586
_cell_angle_beta                  90.0086
_cell_angle_gamma                 89.974153
_cell_volume                      1566.53938663

loop_
_atom_site_label
_atom_site_type_symbol
_atom_site_description
_atom_site_fract_x
_atom_site_fract_y
_atom_site_fract_z
_atom_type_partial_charge
O1    O     O_R   0.500010 0.316790 0.614690 -0.610410
O2    O     O_R   0.500000 0.316760 0.385350 -0.632794
C1    C     C_R   0.504799 0.260113 0.500488 0.899154
O3    O     O_R   0.367850 0.499990 0.614680 -0.595950
O4    O     O_R   0.367840 0.499950 0.385340 -0.622724
C2    C     C_R   0.327029 0.500108 0.499970 0.898806
Zn1   Zn    Zn3+2 0.500010 0.500020 0.653130 1.052730
Zn2   Zn    Zn3+2 0.499990 0.499980 0.346870 0.974221
O5    O     O_R   0.500000 0.683240 0.614650 -0.572928
O6    O     O_R   0.499990 0.683210 0.385310 -0.582280
O7    O     O_R   0.632160 0.500050 0.614660 -0.591608
O8    O     O_R   0.632150 0.500010 0.385320 -0.650942
C3    C     C_R   0.503926 0.740281 0.499350 0.957556
C4    C     C_R   0.673083 0.502317 0.500154 0.915254
C5    C     C_R   0.814140 0.588546 0.587214 0.253409
C6    C     C_R   0.768763 0.505358 0.501450 -0.184413
C7    C     C_R   0.813979 0.418666 0.421888 -0.290274
C8    C     C_R   0.906668 0.412599 0.425787 -0.003158
C9    C     C_R   0.953733 0.498716 0.507751 -0.043537
C10   C     C_R   0.907644 0.585844 0.590366 0.031126
C11   C     C_R   0.953311 0.322021 0.349515 0.501107
C12   C     C_R   0.046472 0.326130 0.344383 -0.307152
C13   C     C_R   0.093305 0.413546 0.421841 0.041656
C14   C     C_R   0.047113 0.498472 0.506127 0.073319
C15   C     C_R   0.094597 0.584201 0.587590 0.125734
C16   C     C_R   0.049081 0.668565 0.670473 -0.235185
C17   C     C_R   0.956165 0.669745 0.671720 -0.175348
C18   C     C_R   0.186029 0.416396 0.418209 -0.235404
C19   C     C_R   0.231817 0.500710 0.500127 -0.060790
C20   C     C_R   0.187201 0.584263 0.584294 -0.259260
H1    H     H_    0.776143 0.354573 0.358880 0.187646
H2    H     H_    0.082108 0.259611 0.281496 0.165780
H3    H     H_    0.222783 0.351529 0.354551 0.148623
H4    H     H_    0.224772 0.649414 0.646241 0.200362
H5    H     H_    0.085345 0.734574 0.733118 0.175324
H6    H     H_    0.922978 0.738092 0.734978 0.195676
C21   C     C_R   0.525762 0.063467 0.623681 -0.000015
C22   C     C_R   0.524239 0.129615 0.501652 -0.127497
C23   C     C_R   0.541935 0.067558 0.379789 -0.293971
H7    H     H_    0.547537 0.118562 0.284654 0.188625
C24   C     C_R   0.543021 0.937429 0.377660 0.480652
C25   C     C_R   0.522132 0.871663 0.498826 -0.181266
C26   C     C_R   0.523030 0.935229 0.622099 0.030061
C27   C     C_3   0.460466 0.931276 0.742225 0.528214
C28   C     C_3   0.466014 0.073887 0.744921 -0.515673
H8    H     H_    0.402108 0.122730 0.721347 0.216464
H9    H     H_    0.502599 0.111931 0.833886 0.208791
C29   C     C_R   0.429246 0.547411 0.071046 0.233499
N1    N     N_R   0.499390 0.499140 0.142800 -0.112115
C30   C     C_R   0.573292 0.460599 0.072242 -0.139603
H10   H     H_    0.631654 0.427110 0.126582 0.155724
C31   C     C_R   0.573311 0.460704 0.928309 -0.040546
H11   H     H_    0.631699 0.427379 0.874515 0.159160
N2    N     N_R   0.499390 0.499180 0.857150 -0.099292
C32   C     C_R   0.429007 0.546964 0.928629 0.277142
C33   C     C_3   0.333541 0.503987 0.924293 0.231164
C34   C     C_3   0.334548 0.503577 0.078664 -0.596004
H12   H     H_    0.289361 0.576794 0.877731 0.128295
H13   H     H_    0.289595 0.575768 0.122830 0.202760
H14   H     H_    0.328579 0.408512 0.125397 0.227530
N3    N     N_R   0.765188 0.677393 0.667181 0.206088
O9    O     O_R   0.763460 0.666053 0.798587 -0.399007
O10   O     O_R   0.717367 0.764153 0.608226 -0.435702
O11   O     O_3   0.548307 0.878051 0.253665 -0.578021
C35   C     C_3   0.638197 0.844058 0.226667 0.165799
H15   H     H_    0.636650 0.754671 0.169225 0.202158
H16   H     H_    0.678655 0.824987 0.319998 0.109533
C36   C     C_3   0.683513 0.944850 0.138723 -0.371611
H17   H     H_    0.640282 0.967833 0.050227 0.282960
H18   H     H_    0.692559 0.031673 0.198683 0.188753
C37   C     C_3   0.774639 0.900761 0.087585 -0.869649
H19   H     H_    0.818670 0.874752 0.173970 0.249409
H20   H     H_    0.807142 0.977433 0.028624 0.270948
H21   H     H_    0.766453 0.818091 0.020840 0.314024
N4    N     N_R   0.370248 0.884533 0.710237 0.179898
O12   O     O_R   0.330578 0.804770 0.790667 -0.423795
O13   O     O_R   0.327585 0.925585 0.603532 -0.446881
N5    N     N_R   0.499212 0.872164 0.863743 0.187841
O14   O     O_R   0.570749 0.802573 0.856024 -0.359595
O15   O     O_R   0.461312 0.888452 0.981115 -0.356932
O16   O     O_3   0.325701 0.382235 0.869124 -0.601817
C38   C     C_3   0.234033 0.350118 0.858610 0.086384
H22   H     H_    0.194985 0.425310 0.806317 0.145756
H23   H     H_    0.205233 0.334013 0.961459 0.145488
C39   C     C_3   0.224872 0.229855 0.776158 -0.289600
H24   H     H_    0.258593 0.242668 0.676436 0.229878
H25   H     H_    0.257843 0.151109 0.831516 0.242879
C40   C     C_3   0.126698 0.196551 0.751871 -0.923046
H26   H     H_    0.091508 0.182364 0.850110 0.265014
H27   H     H_    0.122525 0.108340 0.692725 0.281143
H28   H     H_    0.092808 0.272597 0.693505 0.263106
O17   O     O_3   0.908482 0.231164 0.276294 -0.647127
C41   C     C_3   0.885686 0.129560 0.363479 0.060978
H29   H     H_    0.820226 0.091950 0.329345 0.169298
H30   H     H_    0.876130 0.157096 0.471685 0.133920
C42   C     C_3   0.955839 0.024967 0.353715 -0.362540
H31   H     H_    0.962017 0.994737 0.246492 0.236716
H32   H     H_    0.022000 0.060625 0.387738 0.225101
C43   C     C_3   0.930422 0.912035 0.441862 -0.897417
H33   H     H_    0.928787 0.939069 0.550414 0.270726
H34   H     H_    0.980952 0.836526 0.428694 0.275245
H35   H     H_    0.863687 0.874951 0.412522 0.268271

loop_
_geom_bond_atom_site_label_1
_geom_bond_atom_site_label_2
_geom_bond_distance
_ccdc_geom_bond_type
C29   C32   1.404389 A    
C32   C33   1.497041 S    
C41   H29   1.109051 S    
C8    C11   1.410949 A    
C24   C25   1.415106 A    
C9    C10   1.417160 A    
N4    O12   1.300355 A    
O16   C38   1.414017 S    
C33   O16   1.414584 S    
C23   C24   1.385945 A    
C39   H24   1.112151 S    
C27   C28   1.521175 S    
Zn1   O7    2.008032 S    
C16   C17   1.386515 A    
C21   C22   1.389786 A    
C12   H2    1.084148 S    
C18   C19   1.391644 A    
O4    C2    1.284022 A    
O7    C4    1.283795 A    
N5    O15   1.300995 A    
C34   H13   1.111363 S    
C5    C6    1.403574 A    
C42   C43   1.526330 S    
C33   C34   1.522260 S    
C8    C9    1.413827 A    
N3    O10   1.300580 A    
O5    C3    1.286246 A    
C1    C22   1.419248 S    
C6    C7    1.390460 A    
C35   H16   1.117811 S    
C42   H32   1.110605 S    
C30   C31   1.419275 A    
C13   C14   1.412296 A    
C28   H9    1.112269 S    
C41   H30   1.117833 S    
C11   C12   1.391691 A    
O3    Zn1   2.008032 S    
C3    C25   1.425099 S    
C31   N2    1.368107 A    
C30   H10   1.081318 S    
C39   H25   1.111548 S    
C5    C10   1.395798 A    
C20   H4    1.084121 S    
C29   C34   1.489996 S    
C14   C15   1.411404 A    
O3    C2    1.284611 A    
C23   H7    1.083608 S    
C37   H20   1.110340 S    
N5    O14   1.301668 A    
C36   H17   1.110807 S    
C34   H14   1.112555 S    
C15   C16   1.395319 A    
C28   H8    1.109671 S    
O1    C1    1.283672 A    
C21   C26   1.366241 A    
C27   N4    1.470438 S    
C26   C27   1.508624 S    
C19   C20   1.390816 A    
C37   H21   1.109870 S    
C43   H33   1.110824 S    
C40   H28   1.111285 S    
Zn2   O8    2.008031 S    
C35   C36   1.532161 S    
C42   H31   1.111393 S    
C2    C19   1.420669 S    
C7    C8    1.385016 A    
C5    N3    1.435668 S    
C13   C18   1.384344 A    
N4    O13   1.302271 A    
C36   H18   1.109432 S    
C29   N1    1.361588 A    
C43   H34   1.110310 S    
C40   H27   1.111115 S    
C18   H3    1.085457 S    
C38   H22   1.113315 S    
C41   C42   1.531606 S    
C38   H23   1.113614 S    
C7    H1    1.084970 S    
C4    C6    1.428082 S    
C25   C26   1.395869 A    
C21   C28   1.496202 S    
C31   H11   1.081213 S    
C39   C40   1.526623 S    
C15   C20   1.382149 A    
Zn1   O5    1.984525 S    
N2    C32   1.365205 A    
O1    Zn1   1.990253 S    
O2    Zn2   1.984525 S    
O8    C4    1.286890 A    
O6    C3    1.283630 A    
O4    Zn2   2.008032 S    
C10   C17   1.406093 A    
C17   H6    1.081939 S    
C38   C39   1.528208 S    
Zn1   N2    2.011766 S    
O11   C35   1.414910 S    
C27   N5    1.467692 S    
C9    C14   1.393425 A    
C37   H19   1.109042 S    
C22   C23   1.400848 A    
C36   C37   1.525347 S    
O17   C41   1.418202 S    
C33   H12   1.113699 S    
O2    C1    1.283503 A    
C35   H15   1.111507 S    
N3    O9    1.300717 A    
C16   H5    1.084080 S    
C43   H35   1.110472 S    
C40   H26   1.111259 S    
Zn2   O6    1.990254 S    
N1    C30   1.368428 A    
C12   C13   1.396169 A    
C24   O11   1.382998 S    
Zn2   N1    2.012391 S    
C11   O17   1.384087 S    
