data_mof_unit_10484.cif
_audit_creation_date              2012-12-10T19:07:36-0500
_audit_creation_method            fapswitch 2.2
_symmetry_space_group_name_H-M    P1
_symmetry_Int_Tables_number       1
_space_group_crystal_system       triclinic
_cell_length_a                    10.832353
_cell_length_b                    10.811765
_cell_length_c                    9.557771
_cell_angle_alpha                 89.540755
_cell_angle_beta                  90.495477
_cell_angle_gamma                 90.348662
_cell_volume                      1119.27801227

loop_
_atom_site_label
_atom_site_type_symbol
_atom_type_description
_atom_site_fract_x
_atom_site_fract_y
_atom_site_fract_z
_atom_type_partial_charge
C1    C     C_R   0.500061 0.262448 0.500567 0.805261
C2    C     C_R   0.938231 0.478419 0.625041 0.134254
C3    C     C_3   0.935657 0.558814 0.751375 -0.490762
C4    C     C_3   0.075581 0.557786 0.750124 -0.434585
C5    C     C_R   0.458465 0.062543 0.615649 0.083130
C6    C     C_R   0.506557 0.129241 0.502798 -0.149647
C7    C     C_R   0.566227 0.066060 0.395202 -0.186952
C8    C     C_R   0.566659 0.937101 0.395072 -0.187748
C9    C     C_R   0.506529 0.870905 0.501560 -0.092101
C10   C     C_R   0.458157 0.934626 0.614829 -0.013934
C11   C     C_3   0.330473 0.926330 0.672532 -0.320987
C12   C     C_R   0.262444 0.497233 0.499455 0.796516
C13   C     C_3   0.330936 0.067166 0.674208 0.405620
C14   C     C_R   0.527637 0.605359 0.072754 0.296168
C15   C     C_R   0.459779 0.400061 0.074759 -0.078240
C16   C     C_R   0.460071 0.400037 0.926178 -0.066896
C17   C     C_R   0.526700 0.605516 0.925572 0.290452
C18   C     C_3   0.642829 0.678996 0.918573 -0.504760
C19   C     C_3   0.645419 0.677382 0.077277 -0.507066
C20   C     C_R   0.500592 0.737564 0.499792 0.803086
C21   C     C_R   0.737783 0.497967 0.500326 0.797157
C22   C     C_R   0.065314 0.477857 0.624058 0.137492
C23   C     C_R   0.129490 0.484249 0.498424 -0.105469
C24   C     C_R   0.063281 0.473429 0.371980 -0.210418
C25   C     C_R   0.934522 0.474143 0.372722 -0.215044
C26   C     C_R   0.871058 0.485663 0.499908 -0.099871
Cu1   Cu    Cu3+1 0.499990 0.499980 0.640670 0.961070
Cu2   Cu    Cu3+1 0.500010 0.500020 0.359330 0.947231
H1    H     H_    0.110251 0.470829 0.272473 0.172602
H2    H     H_    0.262443 0.110307 0.601815 0.061465
H3    H     H_    0.428615 0.318247 0.130024 0.166747
H4    H     H_    0.429614 0.318426 0.871526 0.221065
H5    H     H_    0.718768 0.626305 0.871644 0.209465
H6    H     H_    0.627611 0.772633 0.872923 0.209929
H7    H     H_    0.723542 0.623614 0.122491 0.208425
H8    H     H_    0.633088 0.770735 0.121555 0.197805
H9    H     H_    0.885509 0.471795 0.273518 0.165192
H10   H     H_    0.896400 0.651741 0.728789 0.198117
H11   H     H_    0.896973 0.509340 0.843634 0.200669
H12   H     H_    0.117283 0.649884 0.726850 0.196544
H13   H     H_    0.116798 0.507839 0.841121 0.208909
H14   H     H_    0.609919 0.116061 0.310136 0.163320
H15   H     H_    0.611699 0.889635 0.311028 0.146706
H16   H     H_    0.262375 0.885576 0.598051 0.097206
N1    N     N_R   0.500790 0.500930 0.147930 -0.199733
N2    N     N_R   0.500790 0.500890 0.852020 -0.205569
O1    O     O_R   0.500000 0.319640 0.618810 -0.567232
O2    O     O_R   0.500010 0.319680 0.381230 -0.593841
O3    O     O_R   0.319650 0.499970 0.618810 -0.575598
O4    O     O_R   0.319660 0.500010 0.381230 -0.581464
O5    O     O_R   0.499990 0.680320 0.618770 -0.583121
O6    O     O_R   0.500000 0.680360 0.381190 -0.578510
O7    O     O_R   0.680340 0.499990 0.618770 -0.578171
O8    O     O_R   0.680350 0.500030 0.381190 -0.587874
C27   C     C_1   0.328371 0.867870 0.812084 0.413748
N3    N     N_1   0.326085 0.822219 0.921951 -0.307410
F1    F     F_    0.330965 0.117008 0.807261 -0.672348

loop_
_geom_bond_atom_site_label_1
_geom_bond_atom_site_label_2
_ccdc_geom_bond_type
C2    C22   A    
C12   O4    A    
C23   C24   A    
Cu1   O7    S    
C1    O2    A    
C15   H3    S    
C6    C7    A    
C16   H4    S    
Cu2   O6    S    
C9    C10   A    
C9    C20   S    
C5    C13   S    
C14   C17   A    
C8    H15   S    
C27   N3    T    
C4    H12   S    
C25   H9    S    
C17   C18   S    
C3    H11   S    
C7    C8    A    
C2    C26   A    
C19   H7    S    
C24   C25   A    
C21   O7    A    
C11   C13   S    
C12   C23   S    
C21   O8    A    
Cu1   N2    S    
C21   C26   S    
Cu1   O5    S    
C2    C3    S    
C20   O5    A    
C19   H8    S    
C18   H6    S    
C5    C6    A    
C18   H5    S    
Cu2   N1    S    
C12   O3    A    
C13   F1    S    
C4    H13   S    
C15   N1    A    
Cu1   O1    S    
C15   C16   A    
C11   H16   S    
C13   H2    S    
C5    C10   A    
C11   C27   S    
C17   N2    A    
C20   O6    A    
C18   C19   S    
C10   C11   S    
C7    H14   S    
C16   N2    A    
Cu1   Cu2   S    
C4    C22   S    
C24   H1    S    
C1    O1    A    
Cu2   O8    S    
C1    C6    S    
C14   N1    A    
C25   C26   A    
C22   C23   A    
Cu2   O4    S    
C14   C19   S    
Cu2   O2    S    
C3    C4    S    
Cu1   O3    S    
C3    H10   S    
C8    C9    A    
