data_mof_unit_56673.cif
_audit_creation_date              2012-12-10T17:08:43-0500
_audit_creation_method            fapswitch 2.2
_symmetry_space_group_name_H-M    P1
_symmetry_Int_Tables_number       1
_space_group_crystal_system       triclinic
_cell_length_a                    15.749958
_cell_length_b                    10.723406
_cell_length_c                    10.05416
_cell_angle_alpha                 92.296043
_cell_angle_beta                  90.949329
_cell_angle_gamma                 90.934215
_cell_volume                      1696.23832234

loop_
_atom_site_label
_atom_site_type_symbol
_atom_type_description
_atom_site_fract_x
_atom_site_fract_y
_atom_site_fract_z
_atom_type_partial_charge
C1    C     C_R   0.495085 0.263300 0.496824 0.813133
C2    C     C_2   0.530226 0.869252 0.510383 -0.259548
C3    C     C_2   0.540472 0.069958 0.412130 -0.338618
C4    C     C_R   0.338468 0.499443 0.498923 0.885091
C5    C     C_2   0.482921 0.131063 0.484785 0.330730
C6    C     C_2   0.543175 0.580684 0.931722 -0.047945
C7    C     C_2   0.550759 0.568924 0.080101 -0.118828
C8    C     C_R   0.506721 0.737876 0.502656 0.887585
C9    C     C_R   0.661510 0.500085 0.500910 0.904255
C10   C     C_3   0.050922 0.411075 0.606697 -0.345522
C11   C     C_3   0.044062 0.421576 0.345363 0.367279
C12   C     C_3   0.950550 0.423594 0.623768 0.883827
C13   C     C_3   0.944780 0.410854 0.366200 -0.325219
C14   C     C_1   0.750149 0.497225 0.502374 -0.101068
C15   C     C_3   0.082684 0.484221 0.482252 -0.073908
C16   C     C_3   0.898090 0.254432 0.749970 -0.143236
C17   C     C_3   0.974791 0.509185 0.850208 -0.317574
C18   C     C_3   0.477665 0.932949 0.185938 -0.146299
C19   C     C_2   0.549427 0.928081 0.645110 0.938142
C20   C     C_3   0.343950 0.144843 0.562208 -0.199054
C21   C     C_2   0.589383 0.690157 0.881745 1.012615
C22   C     C_2   0.082442 0.277570 0.612254 0.953858
C23   C     C_3   0.916928 0.487642 0.494914 0.010476
C24   C     C_2   0.061914 0.497993 0.220773 0.921453
C25   C     C_3   0.157650 0.273988 0.303843 -0.129832
C26   C     C_2   0.891608 0.428817 0.240114 0.915692
C27   C     C_2   0.092948 0.728572 0.436754 1.018630
C28   C     C_3   0.953058 0.622795 0.491465 -0.450688
C29   C     C_3   0.050490 0.622027 0.508232 -0.256123
C30   C     C_1   0.825229 0.493402 0.500286 0.121349
C31   C     C_1   0.174536 0.488795 0.488357 0.001988
C32   C     C_1   0.249759 0.494229 0.495049 -0.129331
C33   C     C_2   0.535753 0.934598 0.398310 0.520785
H1    H     H_    0.084481 0.459071 0.692251 0.132572
H2    H     H_    0.856946 0.313802 0.813844 0.184635
H3    H     H_    0.960087 0.236247 0.798585 0.155296
H4    H     H_    0.864905 0.162691 0.736299 0.196864
H5    H     H_    0.021770 0.587089 0.845399 0.180541
H6    H     H_    0.007393 0.421136 0.870772 0.184835
H7    H     H_    0.933746 0.530949 0.936337 0.234605
H8    H     H_    0.506349 0.019666 0.147956 0.169060
H9    H     H_    0.415938 0.953081 0.234325 0.138210
H10   H     H_    0.463463 0.868190 0.099481 0.221652
H11   H     H_    0.627886 0.038426 0.760533 0.356380
H12   H     H_    0.933645 0.665557 0.397203 0.268827
H13   H     H_    0.327929 0.198772 0.473182 0.099341
H14   H     H_    0.355471 0.208171 0.651044 0.194483
H15   H     H_    0.287963 0.085000 0.582787 0.213096
H16   H     H_    0.677117 0.758552 0.759176 0.338314
H17   H     H_    0.068873 0.095884 0.554066 0.365970
H18   H     H_    0.040028 0.653105 0.118531 0.352093
H19   H     H_    0.185560 0.239971 0.397145 0.138584
H20   H     H_    0.195273 0.355383 0.272249 0.156936
H21   H     H_    0.164796 0.198664 0.226202 0.193898
H22   H     H_    0.852511 0.355400 0.061324 0.331570
H23   H     H_    0.590253 0.118656 0.359978 0.157349
H24   H     H_    0.184064 0.788296 0.314186 0.345834
H25   H     H_    0.475259 0.423438 0.893467 0.164323
H26   H     H_    0.598780 0.625227 0.134388 0.210816
H27   H     H_    0.451111 0.455977 0.098253 0.166046
H28   H     H_    0.929735 0.311882 0.387080 0.246461
H29   H     H_    0.064289 0.648359 0.614848 0.144658
H30   H     H_    0.926030 0.682881 0.572671 0.229061
N1    N     N_2   0.500900 0.501330 0.852150 -0.222231
N2    N     N_2   0.500920 0.501360 0.147810 -0.198780
O1    O     O_R   0.499990 0.319060 0.613040 -0.608138
O2    O     O_3   0.923263 0.503274 0.733465 -0.639413
O3    O     O_3   0.535140 0.875155 0.272442 -0.584619
O4    O     O_2   0.500445 0.912814 0.736352 -0.552425
O5    O     O_R   0.622352 0.002971 0.665728 -0.816511
O6    O     O_3   0.414293 0.067403 0.539493 -0.626285
O7    O     O_2   0.582656 0.791567 0.940201 -0.620499
O8    O     O_R   0.647057 0.677218 0.778926 -0.767256
O9    O     O_2   0.143956 0.255781 0.683033 -0.664968
O10   O     O_R   0.041264 0.179229 0.540316 -0.695659
O11   O     O_2   0.100766 0.452105 0.127057 -0.620640
O12   O     O_R   0.500010 0.319100 0.386900 -0.643387
O13   O     O_R   0.025698 0.614884 0.206179 -0.808986
O14   O     O_3   0.069751 0.294968 0.320572 -0.561924
O15   O     O_2   0.851912 0.524434 0.224720 -0.607521
O16   O     O_R   0.889889 0.334417 0.140064 -0.771610
O17   O     O_2   0.067236 0.834697 0.456035 -0.617168
O18   O     O_R   0.162097 0.708581 0.353413 -0.797256
O19   O     O_R   0.377130 0.499990 0.613120 -0.606956
O20   O     O_R   0.377160 0.500030 0.386980 -0.609402
O21   O     O_R   0.499990 0.680900 0.613100 -0.589877
O22   O     O_R   0.500010 0.680940 0.386960 -0.547790
O23   O     O_R   0.622840 0.499970 0.613020 -0.552239
O24   O     O_R   0.622870 0.500010 0.386880 -0.607697
O25   O     O_3   0.908436 0.303974 0.623295 -0.628382
Zn1   Zn    Zn3+2 0.499980 0.499970 0.650990 1.005639
Zn2   Zn    Zn3+2 0.500020 0.500030 0.349010 0.985575

loop_
_geom_bond_atom_site_label_1
_geom_bond_atom_site_label_2
_ccdc_geom_bond_type
N2    Zn2   S    
O12   Zn2   S    
C16   O25   S    
C27   C29   S    
C1    O12   A    
C10   C22   S    
C12   C23   S    
C1    C5    S    
C12   O25   S    
C28   C29   S    
C25   H20   S    
O21   Zn1   S    
C18   H9    S    
C16   H2    S    
C3    C33   S    
C18   O3    S    
C21   O8    S    
C11   C24   S    
C13   C23   S    
C17   H6    S    
C6    N1    D    
C11   C15   S    
H24   O18   S    
C20   O6    S    
H11   O5    S    
O19   Zn1   S    
H22   O16   S    
C16   H4    S    
O22   Zn2   S    
C9    O23   A    
C22   O10   S    
C14   C30   T    
C10   C12   S    
C7    H26   S    
O20   Zn2   S    
C15   C29   S    
H25   N1    S    
C12   O2    S    
C28   H12   S    
C17   O2    S    
C21   O7    D    
C23   C30   S    
C25   H21   S    
C18   H8    S    
C9    O24   A    
C24   O11   D    
C4    O20   A    
C6    C21   S    
C26   O15   D    
C17   H7    S    
C9    C14   S    
C7    N2    D    
C3    H23   S    
C31   C32   T    
C4    O19   A    
O23   Zn1   S    
C1    O1    A    
C10   H1    S    
C20   H15   S    
C23   C28   S    
O24   Zn2   S    
C4    C32   S    
O1    Zn1   S    
C11   O14   S    
C2    C33   D    
C24   O13   S    
H27   N2    S    
C26   O16   S    
H16   O8    S    
C13   C26   S    
C19   O4    D    
C22   O9    D    
C29   H29   S    
C2    C19   S    
C25   O14   S    
C27   O17   D    
C2    C8    S    
C3    C5    D    
C15   C31   S    
C6    C7    S    
C10   C15   S    
C8    O22   A    
C27   O18   S    
H18   O13   S    
C5    O6    S    
C18   H10   S    
C16   H3    S    
C11   C13   S    
C8    O21   A    
C17   H5    S    
C25   H19   S    
C20   H14   S    
C28   H30   S    
C13   H28   S    
C19   O5    S    
N1    Zn1   S    
H17   O10   S    
C20   H13   S    
C33   O3    S    
