data_mof_unit_54145.cif
_audit_creation_date              2012-12-10T16:52:07-0500
_audit_creation_method            fapswitch 2.2
_symmetry_space_group_name_H-M    P1
_symmetry_Int_Tables_number       1
_space_group_crystal_system       triclinic
_cell_length_a                    7.765956
_cell_length_b                    8.603282
_cell_length_c                    14.883895
_cell_angle_alpha                 91.052886
_cell_angle_beta                  85.95328
_cell_angle_gamma                 93.89039
_cell_volume                      989.576042695

loop_
_atom_site_label
_atom_site_type_symbol
_atom_type_description
_atom_site_fract_x
_atom_site_fract_y
_atom_site_fract_z
_atom_type_partial_charge
C1    C     C_R   0.545956 0.794803 0.497722 0.984576
C2    C     C_R   0.454044 0.205196 0.502272 0.984653
C3    C     C_R   0.445789 0.776008 0.957946 -0.196848
C4    C     C_R   0.554335 0.224041 0.042052 -0.196844
C5    C     C_2   0.569962 0.958382 0.496500 -0.372256
C6    C     C_2   0.430036 0.041618 0.503485 -0.371947
C7    C     C_R   0.502376 0.500149 0.672575 1.027742
C8    C     C_R   0.497625 0.499850 0.327425 1.027780
C9    C     C_R   0.507105 0.358392 0.185379 0.383472
C10   C     C_R   0.492909 0.641634 0.814617 0.383323
C11   C     C_R   0.492449 0.499354 0.232392 -0.296451
C12   C     C_R   0.507569 0.500664 0.767608 -0.296537
C13   C     C_R   0.478705 0.640311 0.189312 0.384275
C14   C     C_R   0.521391 0.359719 0.810689 0.384263
C15   C     C_R   0.471681 0.639478 0.096078 0.022659
C16   C     C_R   0.528453 0.360569 0.903919 0.022663
C17   C     C_R   0.497893 0.499779 0.046958 -0.024966
C18   C     C_R   0.502246 0.500273 0.953038 -0.024958
C19   C     C_R   0.519984 0.359631 0.091661 0.024979
C20   C     C_R   0.480119 0.640415 0.908335 0.025072
C21   C     C_R   0.441324 0.775460 0.051169 -0.199830
C22   C     C_R   0.558822 0.224591 0.948830 -0.199812
H1    H     H_    0.413335 0.881314 0.088042 0.181002
H2    H     H_    0.586812 0.118735 0.911958 0.180910
H3    H     H_    0.420928 0.882255 0.924854 0.179410
H4    H     H_    0.579183 0.117793 0.075146 0.179454
H5    H     H_    0.701994 0.009807 0.489791 0.174075
H6    H     H_    0.298004 0.990192 0.510194 0.174066
H7    H     H_    0.013726 0.382902 0.432253 0.188164
H8    H     H_    0.986274 0.617098 0.567747 0.188172
N1    N     N_2   0.950330 0.457950 0.475660 -0.175864
N2    N     N_2   0.049670 0.542050 0.524340 -0.175863
O1    O     O_R   0.389250 0.738570 0.505970 -0.601582
O2    O     O_R   0.610750 0.261430 0.494030 -0.601606
O3    O     O_R   0.678390 0.711620 0.490370 -0.650618
O4    O     O_R   0.321610 0.288380 0.509630 -0.650627
O5    O     O_R   0.355420 0.513510 0.639950 -0.619479
O6    O     O_R   0.644580 0.486490 0.360050 -0.619530
O7    O     O_R   0.644560 0.486560 0.624350 -0.626866
O8    O     O_R   0.355440 0.513440 0.375650 -0.626859
Zn1   Zn    Zn3+2 0.306940 0.517990 0.510420 0.958773
Zn2   Zn    Zn3+2 0.693060 0.482010 0.489580 0.958753
O9    O     O_3   0.514571 0.221122 0.231725 -0.622772
C23   C     C_3   0.343907 0.155949 0.249168 -0.309281
H9    H     H_    0.258842 0.239219 0.285293 0.152200
H10   H     H_    0.346567 0.054247 0.293512 0.227416
H11   H     H_    0.287378 0.114500 0.185717 0.171379
O10   O     O_3   0.485280 0.778877 0.768265 -0.622851
C24   C     C_3   0.655885 0.844107 0.750694 -0.308312
H12   H     H_    0.741226 0.760524 0.714966 0.151820
H13   H     H_    0.712158 0.886370 0.814058 0.171668
H14   H     H_    0.653152 0.945264 0.705858 0.226871
O11   O     O_3   0.469502 0.777410 0.239188 -0.622023
C25   C     C_3   0.639045 0.846109 0.244178 -0.299225
H15   H     H_    0.634787 0.948047 0.290699 0.222747
H16   H     H_    0.693073 0.888334 0.177146 0.172924
H17   H     H_    0.727102 0.764897 0.271749 0.161993
O12   O     O_3   0.530579 0.222605 0.760819 -0.621921
C26   C     C_3   0.361025 0.153906 0.755847 -0.299036
H18   H     H_    0.307059 0.111607 0.822875 0.172938
H19   H     H_    0.365245 0.052020 0.709285 0.222664
H20   H     H_    0.272927 0.235141 0.728334 0.161909

loop_
_geom_bond_atom_site_label_1
_geom_bond_atom_site_label_2
_ccdc_geom_bond_type
C10   O10   S    
C4    H4    S    
N2    Zn1   S    
C25   H16   S    
N1    Zn2   S    
C4    C22   A    
C18   C20   A    
N1    N2    D    
O2    Zn2   S    
C23   H11   S    
C15   C21   A    
O9    C23   S    
C24   H14   S    
O1    Zn1   S    
C2    O2    A    
C13   C15   A    
C17   C18   A    
C7    O5    A    
C1    O1    A    
C26   H18   S    
H7    N1    S    
O11   C25   S    
H8    N2    S    
C9    C11   A    
O4    Zn1   S    
C2    C6    S    
C10   C12   A    
C8    O6    A    
C8    C11   S    
C1    C5    S    
C22   H2    S    
O10   C24   S    
C17   C19   A    
C12   C14   A    
O6    Zn2   S    
O7    Zn2   S    
C13   O11   S    
C21   H1    S    
O5    Zn1   S    
C5    C6    D    
C14   O12   S    
C14   C16   A    
C7    C12   S    
C3    C21   A    
C11   C13   A    
C9    O9    S    
C3    C20   A    
C3    H3    S    
C23   H9    S    
C1    O3    A    
C16   C18   A    
C24   H12   S    
C26   H19   S    
C2    O4    A    
C15   C17   A    
O3    Zn2   S    
C7    O7    A    
C25   H15   S    
O8    Zn1   S    
C26   H20   S    
C16   C22   A    
C8    O8    A    
C10   C20   A    
O12   C26   S    
C5    H5    S    
C4    C19   A    
C9    C19   A    
C6    H6    S    
C23   H10   S    
C24   H13   S    
C25   H17   S    
