data_mof_unit_54407.cif
_audit_creation_date              2013-03-05T16:05:51-0500
_audit_creation_method            fapswitch 2.2
_symmetry_space_group_name_H-M    P1
_symmetry_Int_Tables_number       1
_space_group_crystal_system       triclinic
_cell_length_a                    14.982816
_cell_length_b                    15.380011
_cell_length_c                    15.725533
_cell_angle_alpha                 90.094116
_cell_angle_beta                  104.068885
_cell_angle_gamma                 82.100801
_cell_volume                      3479.77415986

loop_
_atom_site_label
_atom_site_type_symbol
_atom_site_description
_atom_site_fract_x
_atom_site_fract_y
_atom_site_fract_z
_atom_type_partial_charge
O1    O     O_R   0.383120 0.605620 0.475300 -0.591487
O2    O     O_R   0.531890 0.639510 0.506740 -0.625428
C1    C     C_R   0.441843 0.662565 0.486036 0.873463
O3    O     O_R   0.425580 0.483050 0.607130 -0.586561
O4    O     O_R   0.574360 0.516930 0.638570 -0.608842
C2    C     C_R   0.500582 0.500609 0.661466 0.905877
Zn1   Zn    Zn3+2 0.400660 0.477370 0.479010 0.961343
Zn2   Zn    Zn3+2 0.599340 0.522630 0.520990 0.952527
O5    O     O_R   0.468110 0.360490 0.493260 -0.630454
O6    O     O_R   0.616880 0.394380 0.524700 -0.619703
O7    O     O_R   0.425640 0.483070 0.361430 -0.620221
O8    O     O_R   0.574420 0.516950 0.392870 -0.609150
C3    C     C_R   0.558082 0.337677 0.509387 0.888062
C4    C     C_R   0.499128 0.499889 0.338420 0.900463
C5    C     C_3   0.398520 0.502710 0.926236 -0.401769
C6    C     C_3   0.529810 0.590434 0.958058 -0.534276
C7    C     C_3   0.531507 0.588064 0.057312 0.195684
H1    H     H_    0.344842 0.545831 0.039381 0.231571
H2    H     H_    0.354023 0.564705 0.897275 0.225361
H3    H     H_    0.600222 0.598120 0.950143 0.154347
H4    H     H_    0.482069 0.648250 0.923158 0.239488
H5    H     H_    0.605115 0.585502 0.095026 0.095506
C8    C     C_1   0.496690 0.500280 0.248922 -0.150932
C9    C     C_3   0.499303 0.504167 0.916735 0.163006
C10   C     C_3   0.398327 0.495031 0.023913 -0.371197
C11   C     C_3   0.496376 0.502365 0.081929 0.162309
C12   C     C_3   0.563174 0.421426 0.064938 -0.555961
C13   C     C_3   0.570337 0.426119 0.968547 0.380291
C14   C     C_1   0.495474 0.501045 0.173282 -0.032852
C15   C     C_1   0.500758 0.504300 0.825674 -0.041704
C16   C     C_1   0.501373 0.502912 0.750505 -0.178323
H6    H     H_    0.640197 0.445156 0.972189 0.121279
H7    H     H_    0.539061 0.359496 0.080389 0.199232
H8    H     H_    0.364695 0.449787 0.889323 0.143157
H9    H     H_    0.378251 0.430517 0.037280 0.160027
H10   H     H_    0.633298 0.421036 0.109633 0.162273
C17   C     C_R   0.407541 0.755639 0.464291 -0.058729
C18   C     C_R   0.592440 0.245693 0.498771 -0.119047
C19   C     C_R   0.285154 0.874980 0.404715 -0.138927
C20   C     C_R   0.313008 0.787015 0.432081 -0.185230
C21   C     C_R   0.473239 0.812384 0.468361 -0.205473
C22   C     C_R   0.447803 0.898853 0.436013 0.026135
C23   C     C_R   0.351762 0.931899 0.406961 0.061597
C24   C     C_R   0.516064 0.954229 0.437438 0.078704
C25   C     C_R   0.487443 0.045096 0.424442 0.042127
C26   C     C_R   0.392493 0.076099 0.388371 -0.350661
C27   C     C_R   0.324057 0.020977 0.381731 0.476406
C28   C     C_R   0.612045 0.922202 0.452217 -0.209570
C29   C     C_R   0.678170 0.979309 0.466831 -0.188411
C30   C     C_R   0.650867 0.069404 0.471435 0.054094
C31   C     C_R   0.554653 0.102356 0.450576 0.058348
C32   C     C_R   0.717604 0.126792 0.498877 0.495627
C33   C     C_R   0.687480 0.214514 0.514830 -0.304439
C34   C     C_R   0.527412 0.190028 0.465742 -0.275983
H11   H     H_    0.454687 0.214832 0.456689 0.170868
H12   H     H_    0.738188 0.257669 0.541007 0.168656
H13   H     H_    0.750924 0.952017 0.479257 0.195681
H14   H     H_    0.211518 0.898124 0.381786 0.183655
H15   H     H_    0.260907 0.743789 0.427818 0.169292
H16   H     H_    0.544913 0.788378 0.498839 0.156307
H17   H     H_    0.371274 0.142549 0.362079 0.142245
H18   H     H_    0.637768 0.853187 0.451341 0.155414
N1    N     N_R   0.731690 0.552720 0.548990 -0.100910
N2    N     N_R   0.268300 0.447240 0.450950 -0.152987
C35   C     C_R   0.837460 0.647772 0.618307 -0.243099
C36   C     C_R   0.750865 0.620187 0.602538 -0.000790
C37   C     C_R   0.794304 0.510016 0.508854 -0.021404
C38   C     C_R   0.883193 0.535872 0.520463 -0.013244
C39   C     C_R   0.905276 0.605433 0.578405 0.034821
C40   C     C_R   0.949815 0.495636 0.476230 0.008242
C41   C     C_R   0.040319 0.519539 0.496995 0.044277
C42   C     C_R   0.057603 0.592705 0.549363 -0.233801
C43   C     C_R   0.992777 0.634015 0.591743 0.269193
C44   C     C_R   0.927982 0.435385 0.409223 -0.338080
C45   C     C_R   0.992460 0.400617 0.363042 0.538618
C46   C     C_R   0.086294 0.415335 0.391064 -0.112678
C47   C     C_R   0.110710 0.471953 0.461940 -0.209491
C48   C     C_R   0.155846 0.374818 0.350620 0.411856
C49   C     C_R   0.246395 0.396966 0.380240 -0.268313
C50   C     C_R   0.206037 0.475771 0.497976 0.566284
H19   H     H_    0.301763 0.373276 0.349852 0.172958
H20   H     H_    0.849358 0.703320 0.659651 0.199988
H21   H     H_    0.697859 0.653565 0.631783 0.138607
H22   H     H_    0.772424 0.456561 0.468470 0.119955
H23   H     H_    0.121551 0.620171 0.557053 0.227322
H24   H     H_    0.859080 0.418092 0.386469 0.150776
O9    O     O_3   0.230730 0.051037 0.344746 -0.655117
C51   C     C_3   0.196481 0.122451 0.390582 0.088635
H25   H     H_    0.129214 0.153265 0.347908 0.220491
H26   H     H_    0.241611 0.174963 0.402828 0.142166
C52   C     C_3   0.178243 0.091877 0.476772 -0.391947
H27   H     H_    0.129000 0.042818 0.462973 0.234763
H28   H     H_    0.244311 0.060391 0.521137 0.225019
C53   C     C_3   0.137230 0.169361 0.522852 -0.932433
H29   H     H_    0.186692 0.218025 0.539408 0.260076
H30   H     H_    0.123460 0.145643 0.584438 0.274737
H31   H     H_    0.070815 0.202106 0.480049 0.267078
O10   O     O_3   0.811615 0.094091 0.519997 -0.641381
C54   C     C_3   0.857714 0.132710 0.464233 0.080299
H32   H     H_    0.933239 0.121566 0.496294 0.188257
H33   H     H_    0.837885 0.205203 0.455392 0.124662
C55   C     C_3   0.842458 0.089254 0.374944 -0.403361
H34   H     H_    0.864784 0.017268 0.384907 0.241479
H35   H     H_    0.767442 0.100717 0.340819 0.217991
C56   C     C_3   0.897412 0.126377 0.317043 -0.869962
H36   H     H_    0.875661 0.198277 0.305784 0.286236
H37   H     H_    0.884334 0.094439 0.252677 0.268016
H38   H     H_    0.972964 0.113459 0.348460 0.265792
N3    N     N_R   0.017998 0.704201 0.649085 0.204236
O11   O     O_R   0.060724 0.764268 0.624699 -0.381829
O12   O     O_R   0.015008 0.698731 0.730887 -0.384850
O13   O     O_3   0.237884 0.501358 0.583091 -0.636299
C57   C     C_3   0.261244 0.426239 0.640786 0.129591
H39   H     H_    0.314333 0.441717 0.699385 0.174118
H40   H     H_    0.293727 0.367241 0.612068 0.120911
C58   C     C_3   0.177222 0.404849 0.672250 -0.401244
H41   H     H_    0.145068 0.464416 0.699649 0.256088
H42   H     H_    0.124779 0.383298 0.616536 0.227591
C59   C     C_3   0.205581 0.331118 0.742412 -0.953121
H43   H     H_    0.234845 0.270124 0.715129 0.264302
H44   H     H_    0.143645 0.317942 0.764572 0.281877
H45   H     H_    0.258013 0.349844 0.799902 0.255445
O14   O     O_3   0.962209 0.348409 0.293046 -0.626346
C60   C     C_3   0.944700 0.397883 0.213296 0.161364
H46   H     H_    0.957163 0.351326 0.161929 0.181472
H47   H     H_    0.992602 0.447846 0.215207 0.122246
C61   C     C_3   0.843672 0.442176 0.186133 -0.423331
H48   H     H_    0.796609 0.392028 0.184640 0.230639
H49   H     H_    0.830555 0.492048 0.234457 0.226797
C62   C     C_3   0.822823 0.487439 0.095759 -0.942936
H50   H     H_    0.870852 0.536360 0.095516 0.274043
H51   H     H_    0.750735 0.522229 0.078790 0.252373
H52   H     H_    0.830260 0.438287 0.045194 0.268463
O15   O     O_3   0.132074 0.312342 0.287348 -0.637284
C63   C     C_3   0.191997 0.293355 0.230680 0.072070
H53   H     H_    0.168823 0.236459 0.192076 0.191281
H54   H     H_    0.264730 0.269593 0.266382 0.115657
C64   C     C_3   0.183646 0.369973 0.165449 -0.370221
H55   H     H_    0.109733 0.387640 0.129451 0.218590
H56   H     H_    0.207250 0.428579 0.200474 0.222036
C65   C     C_3   0.241410 0.345319 0.099245 -0.947197
H57   H     H_    0.316381 0.331789 0.133145 0.259592
H58   H     H_    0.230403 0.400553 0.050812 0.265443
H59   H     H_    0.219856 0.286362 0.063459 0.269803
N4    N     N_R   0.478552 0.668043 0.081237 0.228664
O16   O     O_R   0.519171 0.716580 0.142489 -0.380470
O17   O     O_R   0.392609 0.693619 0.039535 -0.384679
O18   O     O_3   0.574957 0.343114 0.928109 -0.630846
C66   C     C_3   0.490275 0.308059 0.906205 0.102809
H60   H     H_    0.449095 0.335297 0.840834 0.142550
H61   H     H_    0.448945 0.321004 0.955766 0.135313
C67   C     C_3   0.511712 0.208552 0.900030 -0.324835
H62   H     H_    0.554352 0.193187 0.851629 0.237651
H63   H     H_    0.552314 0.179897 0.965103 0.230531
C68   C     C_3   0.422824 0.166748 0.871830 -0.944702
H64   H     H_    0.378210 0.182261 0.918478 0.268990
H65   H     H_    0.440771 0.094305 0.870791 0.280544
H66   H     H_    0.383716 0.191223 0.804929 0.262415

loop_
_geom_bond_atom_site_label_1
_geom_bond_atom_site_label_2
_geom_bond_distance
_ccdc_geom_bond_type
C63   C64   1.535423 S    
O9    C51   1.418279 S    
C6    H4    1.113314 S    
C68   H65   1.110699 S    
C21   C22   1.393292 A    
C7    N4    1.469525 S    
C41   C47   1.421623 A    
C42   H23   1.079731 S    
O14   C60   1.417367 S    
C25   C26   1.412469 A    
C12   H7    1.111216 S    
Zn1   O7    1.978026 S    
C56   H37   1.110226 S    
C11   C12   1.552142 S    
C45   O14   1.384317 S    
C7    C11   1.567033 S    
C8    C14   1.185234 T    
C46   C48   1.421691 A    
C17   C20   1.399881 A    
C66   H61   1.109400 S    
C15   C16   1.184486 T    
C55   H35   1.111273 S    
O7    C4    1.297105 A    
C5    C10   1.541486 S    
C25   C31   1.414162 A    
O10   C54   1.416946 S    
C29   H13   1.083309 S    
C58   H41   1.111464 S    
C55   C56   1.525891 S    
Zn1   O5    1.922194 S    
C26   C27   1.402705 A    
O5    C3    1.307172 A    
N3    O12   1.301254 A    
C36   H21   1.081890 S    
C5    H2    1.113594 S    
C38   C39   1.425412 A    
C40   C44   1.410165 A    
C30   C32   1.413001 A    
C67   C68   1.526765 S    
C39   C43   1.407260 A    
C40   C41   1.414875 A    
C5    H8    1.106841 S    
C6    H3    1.113813 S    
C57   C58   1.534608 S    
C2    C16   1.397785 S    
N1    C36   1.352688 A    
C37   H22   1.076031 S    
C6    C9    1.552757 S    
C20   H15   1.083012 S    
C68   H66   1.110330 S    
N2    C50   1.353335 A    
C53   H29   1.111393 S    
H1    C10   1.110785 S    
C22   C24   1.414231 A    
O3    Zn1   1.961871 S    
O13   C57   1.420696 S    
N4    O17   1.301518 A    
N4    O16   1.301138 A    
C59   H44   1.110305 S    
C56   H38   1.109755 S    
N1    C37   1.351649 A    
C13   O18   1.425965 S    
C44   C45   1.394438 A    
C26   H17   1.079202 S    
C37   C38   1.411496 A    
C63   H53   1.110905 S    
C46   C47   1.421430 A    
O3    C2    1.296794 A    
C65   H59   1.110708 S    
C19   C20   1.396112 A    
C49   H19   1.076277 S    
C48   C49   1.411673 A    
C6    C7    1.555231 S    
C19   C23   1.409413 A    
C53   H31   1.111133 S    
C10   C11   1.548157 S    
C19   H14   1.083050 S    
C64   C65   1.524226 S    
C44   H24   1.077067 S    
O1    C1    1.307197 A    
C27   O9    1.391061 S    
C4    C8    1.398976 S    
C62   H51   1.107052 S    
C45   C46   1.417008 A    
C61   H49   1.110717 S    
C52   H28   1.111174 S    
C28   H18   1.079575 S    
C54   H32   1.110706 S    
C18   C34   1.390600 A    
C51   C52   1.533084 S    
C13   H6    1.113376 S    
Zn2   O8    1.961870 S    
C50   O13   1.383274 S    
C30   C31   1.418587 A    
O18   C66   1.412114 S    
C53   H30   1.110207 S    
C48   O15   1.399567 S    
C3    C18   1.461206 S    
C64   H56   1.110038 S    
C10   H9    1.110239 S    
C60   C61   1.530019 S    
Zn2   O6    1.952848 S    
C28   C29   1.390553 A    
C54   H33   1.113588 S    
C51   H26   1.110337 S    
C35   C36   1.385412 A    
N2    C49   1.353339 A    
C66   C67   1.527856 S    
C62   H52   1.110907 S    
C22   C23   1.420496 A    
C61   H48   1.110849 S    
C52   H27   1.111477 S    
C32   C33   1.404799 A    
C60   H47   1.116925 S    
C57   H39   1.110639 S    
C33   H12   1.082988 S    
C63   H54   1.109079 S    
C34   H11   1.078701 S    
C5    C9    1.556270 S    
O1    Zn1   1.952846 S    
O2    Zn2   1.922194 S    
C24   C25   1.404422 A    
C9    C13   1.570961 S    
C21   H16   1.077324 S    
C67   H63   1.112026 S    
C42   C43   1.391009 A    
O6    C3    1.304598 A    
O4    Zn2   1.978029 S    
C59   H43   1.110592 S    
C43   N3    1.436799 S    
O15   C63   1.414758 S    
C12   H10   1.112287 S    
C56   H36   1.110828 S    
C7    H5    1.113436 S    
C58   C59   1.525646 S    
C31   C34   1.391628 A    
C65   H58   1.109719 S    
C62   H50   1.110919 S    
O8    C4    1.298303 A    
C61   C62   1.526307 S    
C41   C42   1.408868 A    
C65   H57   1.110956 S    
C52   C53   1.528138 S    
C47   C50   1.412083 A    
C35   H20   1.080762 S    
O4    C2    1.297927 A    
C18   C33   1.399746 A    
C35   C39   1.406046 A    
C32   O10   1.387683 S    
C59   H45   1.110604 S    
C58   H42   1.109410 S    
O2    C1    1.306641 A    
C17   C21   1.392850 A    
C55   H34   1.111537 S    
C9    C15   1.437438 S    
Zn1   N2    2.041743 S    
C64   H55   1.110714 S    
Zn2   N1    2.041400 S    
C54   C55   1.534071 S    
C51   H25   1.109797 S    
C1    C17   1.464284 S    
C11   C14   1.440119 S    
C38   C40   1.424615 A    
C29   C30   1.396757 A    
N3    O11   1.301300 A    
C68   H64   1.111691 S    
C67   H62   1.112487 S    
C57   H40   1.117259 S    
C66   H60   1.111285 S    
C23   C27   1.404311 A    
C24   C28   1.416991 A    
C60   H46   1.111200 S    
C12   C13   1.547899 S    
