data_mof_unit_6988.cif
_audit_creation_date              2012-12-10T18:32:01-0500
_audit_creation_method            fapswitch 2.2
_symmetry_space_group_name_H-M    P1
_symmetry_Int_Tables_number       1
_space_group_crystal_system       triclinic
_cell_length_a                    10.966442
_cell_length_b                    15.128979
_cell_length_c                    15.590869
_cell_angle_alpha                 83.004205
_cell_angle_beta                  95.890116
_cell_angle_gamma                 103.580062
_cell_volume                      2488.30546271

loop_
_atom_site_label
_atom_site_type_symbol
_atom_type_description
_atom_site_fract_x
_atom_site_fract_y
_atom_site_fract_z
_atom_type_partial_charge
C1    C     C_R   0.482493 0.442794 0.663234 0.871467
C2    C     C_R   0.555021 0.440480 0.908514 -0.066817
C3    C     C_R   0.532723 0.346261 0.936543 -0.246595
C4    C     C_R   0.743238 0.500997 0.501368 1.019338
C5    C     C_R   0.598794 0.504090 0.970082 -0.078181
C6    C     C_R   0.578516 0.477658 0.056976 -0.154601
C7    C     C_R   0.568575 0.383874 0.087307 0.382819
C8    C     C_R   0.544496 0.317835 0.026845 0.447186
C9    C     C_R   0.673373 0.591621 0.949322 0.527987
C10   C     C_R   0.679218 0.661625 0.001612 0.471510
C11   C     C_R   0.626203 0.640232 0.082266 -0.312548
C12   C     C_3   0.120455 0.497054 0.500462 -0.373065
C13   C     C_R   0.572711 0.547005 0.109355 -0.164177
C14   C     C_R   0.626809 0.708713 0.136792 0.539036
C15   C     C_R   0.583429 0.683149 0.219745 0.217185
C16   C     C_R   0.514448 0.556840 0.337806 0.913313
C17   C     C_R   0.506736 0.526476 0.184621 0.495171
C18   C     C_R   0.738925 0.854527 0.599051 0.441369
C19   C     C_R   0.686896 0.761534 0.595403 0.390823
C20   C     C_R   0.502159 0.792192 0.517293 0.503356
C21   C     C_R   0.541981 0.886134 0.530277 -0.126852
C22   C     C_R   0.669922 0.917792 0.558516 -0.238098
C23   C     C_3   0.076305 0.552638 0.413765 0.674144
C24   C     C_R   0.465692 0.951237 0.505235 -0.042796
C25   C     C_R   0.524633 0.045706 0.494145 -0.061783
C26   C     C_R   0.656205 0.070568 0.496395 0.367744
C27   C     C_R   0.728322 0.009871 0.538093 0.354772
C28   C     C_R   0.257804 0.498726 0.500166 1.009190
C29   C     C_R   0.333152 0.926151 0.491495 0.383358
C30   C     C_R   0.269209 0.988441 0.441930 0.447139
C31   C     C_R   0.328936 0.082311 0.431617 -0.196420
C32   C     C_R   0.450552 0.111822 0.471203 -0.228367
C33   C     C_R   0.270494 0.147522 0.383325 0.415601
C34   C     C_3   0.102579 0.544995 0.581225 0.572469
C35   C     C_R   0.323075 0.241119 0.390293 0.334238
C36   C     C_R   0.490901 0.206047 0.487408 0.652773
C37   C     C_3   0.896288 0.403095 0.489736 0.603042
C38   C     C_3   0.037544 0.395352 0.506308 0.773350
C39   C     C_3   0.942943 0.573103 0.424934 0.753336
C40   C     C_3   0.957737 0.530158 0.594311 0.799123
C41   C     C_3   0.882719 0.503104 0.503274 -0.458158
C42   C     C_3   0.869560 0.713954 0.420493 -0.030465
C43   C     C_3   0.314938 0.441125 0.139569 -0.267400
C44   C     C_3   0.662142 0.790763 0.916041 -0.241015
C45   C     C_R   0.484969 0.407853 0.758428 -0.364336
C46   C     C_3   0.611133 0.174337 0.888745 -0.233836
C47   C     C_3   0.318463 0.179665 0.753090 -0.280407
C48   C     C_3   0.865165 0.572210 0.926075 -0.384416
C49   C     C_3   0.592666 0.853752 0.103630 -0.202668
C50   C     C_3   0.588521 0.188801 0.625916 -0.171294
C51   C     C_3   0.140790 0.909548 0.340017 -0.184022
C52   C     C_3   0.850171 0.913783 0.718893 -0.229534
C53   C     C_3   0.710071 0.675645 0.718814 -0.124509
C54   C     C_3   0.155986 0.311943 0.614165 -0.095707
C55   C     C_3   0.008418 0.256855 0.437953 -0.147752
C56   C     C_R   0.530182 0.590245 0.245804 -0.345926
C57   C     C_3   0.897300 0.612288 0.271667 -0.235295
C58   C     C_3   0.167302 0.513239 0.294385 -0.189916
C59   C     C_3   0.998532 0.640821 0.697105 -0.135645
C60   C     C_3   0.812023 0.448999 0.698251 -0.176118
C61   C     C_R   0.496789 0.282937 0.873763 0.469123
C62   C     C_R   0.464290 0.312865 0.786040 0.339599
C63   C     C_R   0.516841 0.469842 0.822598 0.380458
H1    H     H_    0.768763 0.339575 0.403960 0.396978
H2    H     H_    0.239731 0.381633 0.160216 0.208192
H3    H     H_    0.515024 0.745158 0.296152 0.343191
H4    H     H_    0.707866 0.863925 0.901510 0.168702
H5    H     H_    0.570844 0.787550 0.942841 0.143123
H6    H     H_    0.643212 0.758488 0.854591 0.143726
H7    H     H_    0.634595 0.187072 0.820117 0.118901
H8    H     H_    0.608466 0.101302 0.910203 0.178072
H9    H     H_    0.686521 0.215948 0.930055 0.173240
H10   H     H_    0.354332 0.120081 0.784701 0.217052
H11   H     H_    0.258740 0.154861 0.695265 0.153039
H12   H     H_    0.237959 0.656419 0.599226 0.373764
H13   H     H_    0.258031 0.201493 0.795938 0.165153
H14   H     H_    0.417137 0.553013 0.765452 0.347726
H15   H     H_    0.825260 0.277340 0.538474 0.377429
H16   H     H_    0.647776 0.407568 0.202068 0.369886
H17   H     H_    0.903625 0.602539 0.987616 0.177689
H18   H     H_    0.940634 0.592758 0.880922 0.180706
H19   H     H_    0.842214 0.496290 0.937353 0.168306
H20   H     H_    0.588044 0.881619 0.165514 0.210758
H21   H     H_    0.497001 0.816938 0.079817 0.097707
H22   H     H_    0.623304 0.913054 0.055326 0.170107
H23   H     H_    0.780564 0.673766 0.391700 0.197483
H24   H     H_    0.874430 0.100875 0.568496 0.312173
H25   H     H_    0.494387 0.144764 0.639379 0.146848
H26   H     H_    0.616404 0.238876 0.674203 0.205915
H27   H     H_    0.659798 0.146715 0.636399 0.120160
H28   H     H_    0.306890 0.364512 0.355006 0.411290
H29   H     H_    0.207869 0.946888 0.291675 0.162769
H30   H     H_    0.045229 0.900052 0.306388 0.188936
H31   H     H_    0.159400 0.840810 0.361414 0.186253
H32   H     H_    0.937480 0.910459 0.760643 0.185126
H33   H     H_    0.769698 0.872646 0.754546 0.088188
H34   H     H_    0.905379 0.771891 0.372409 0.130403
H35   H     H_    0.842383 0.986151 0.709349 0.173220
H36   H     H_    0.612462 0.682442 0.725388 0.159636
H37   H     H_    0.775307 0.719297 0.763665 0.181167
H38   H     H_    0.713358 0.603582 0.737496 0.238331
H39   H     H_    0.413864 0.711249 0.434022 0.381202
H40   H     H_    0.186416 0.280966 0.561662 0.169512
H41   H     H_    0.130171 0.256427 0.666522 0.142852
H42   H     H_    0.234193 0.363235 0.641714 0.206526
H43   H     H_    0.784210 0.137636 0.424454 0.334702
H44   H     H_    0.176607 0.841144 0.522904 0.394258
H45   H     H_    0.848608 0.743866 0.477054 0.217225
H46   H     H_    0.138440 0.171012 0.294093 0.370739
H47   H     H_    0.937008 0.251543 0.382167 0.210908
H48   H     H_    0.969652 0.224649 0.499109 0.121823
H49   H     H_    0.075632 0.216707 0.426306 0.198199
H50   H     H_    0.938709 0.574063 0.230512 0.202511
H51   H     H_    0.961817 0.678801 0.281966 0.127405
H52   H     H_    0.812741 0.627679 0.233687 0.169265
H53   H     H_    0.160696 0.450583 0.262921 0.217004
H54   H     H_    0.258016 0.526648 0.333890 0.149554
H55   H     H_    0.165254 0.570358 0.242735 0.106349
H56   H     H_    0.143070 0.668242 0.342730 0.319278
H57   H     H_    0.090513 0.687877 0.686148 0.172375
H58   H     H_    0.947717 0.682204 0.726746 0.194389
H59   H     H_    0.010713 0.583748 0.746387 0.116433
H60   H     H_    0.753032 0.494692 0.665476 0.158036
H61   H     H_    0.831763 0.463022 0.767089 0.143956
H62   H     H_    0.756178 0.377891 0.697581 0.184220
H63   H     H_    0.177974 0.547927 0.702345 0.314437
H64   H     H_    0.529064 0.215399 0.118525 0.379904
H65   H     H_    0.336070 0.430705 0.073977 0.168327
H66   H     H_    0.277560 0.503966 0.135781 0.106750
N1    N     N_R   0.573860 0.731700 0.552730 -0.249570
N2    N     N_R   0.426060 0.268290 0.447230 -0.218674
O1    O     O_R   0.462770 0.383110 0.605620 -0.566449
O2    O     O_3   0.155696 0.639931 0.565277 -0.661759
O3    O     O_3   0.965088 0.665389 0.447135 -0.588454
O4    O     O_3   0.166067 0.636375 0.399050 -0.713213
O5    O     O_3   0.527189 0.225561 0.054553 -0.706562
O6    O     O_3   0.420728 0.443962 0.200105 -0.538845
O7    O     O_3   0.598625 0.750169 0.274686 -0.744777
O8    O     O_3   0.743342 0.749261 0.975292 -0.543176
O9    O     O_3   0.492145 0.191232 0.897695 -0.554416
O10   O     O_3   0.418657 0.251179 0.724788 -0.617116
O11   O     O_3   0.491947 0.555776 0.807371 -0.795527
O12   O     O_R   0.510160 0.531900 0.639510 -0.613221
O13   O     O_3   0.824276 0.339765 0.550002 -0.692673
O14   O     O_3   0.592607 0.355672 0.173848 -0.720362
O15   O     O_3   0.759263 0.604599 0.888158 -0.636018
O16   O     O_3   0.682990 0.799406 0.112909 -0.535074
O17   O     O_3   0.856996 0.038120 0.551194 -0.714818
O18   O     O_3   0.594351 0.237963 0.542793 -0.539587
O19   O     O_3   0.263953 0.303147 0.341567 -0.757673
O20   O     O_3   0.144760 0.959245 0.411663 -0.550948
O21   O     O_3   0.858670 0.880964 0.639085 -0.514811
O22   O     O_3   0.750410 0.698841 0.635027 -0.555055
O23   O     O_R   0.661510 0.425600 0.483070 -0.535587
O24   O     O_3   0.403308 0.766270 0.457142 -0.681502
O25   O     O_3   0.049644 0.349383 0.591907 -0.600943
O26   O     O_3   0.712026 0.150357 0.449961 -0.776199
O27   O     O_3   0.268095 0.843516 0.529648 -0.688433
O28   O     O_3   0.163741 0.118406 0.329339 -0.709767
O29   O     O_3   0.072306 0.348865 0.440875 -0.564144
O30   O     O_3   0.858423 0.556989 0.348538 -0.604310
O31   O     O_3   0.061572 0.498019 0.343131 -0.569348
O32   O     O_3   0.932374 0.612543 0.617818 -0.533200
O33   O     O_3   0.926978 0.456192 0.661100 -0.565765
O34   O     O_R   0.708900 0.574390 0.516960 -0.587840
O35   O     O_3   0.165162 0.506906 0.655812 -0.782127
O36   O     O_R   0.489840 0.468100 0.360490 -0.587016
O37   O     O_R   0.537230 0.616890 0.394380 -0.656329
O38   O     O_R   0.291100 0.425610 0.483040 -0.647180
O39   O     O_R   0.338490 0.574400 0.516930 -0.589308
O40   O     O_3   0.850979 0.384257 0.403837 -0.695817
Zn1   Zn    Zn3+2 0.468350 0.400660 0.477370 1.021777
Zn2   Zn    Zn3+2 0.531650 0.599340 0.522630 0.971027

loop_
_geom_bond_atom_site_label_1
_geom_bond_atom_site_label_2
_ccdc_geom_bond_type
C59   H58   S    
C29   O27   S    
C4    O23   A    
C53   O22   S    
C59   H57   S    
C20   O24   S    
C55   H49   S    
C8    O5    S    
C45   C62   A    
C38   O25   S    
C1    O1    A    
C7    C8    A    
C57   H52   S    
C53   H36   S    
C12   C23   S    
C26   C27   A    
C29   C30   A    
C25   C32   A    
C12   C28   S    
C34   C40   S    
C32   C36   A    
C49   H21   S    
C54   H41   S    
C60   H62   S    
C37   O13   S    
C47   H13   S    
C40   O33   S    
C54   O25   S    
C30   C31   A    
C11   C14   A    
C36   O18   S    
C4    C41   S    
C16   O36   A    
O34   Zn2   S    
C9    O15   S    
C58   H55   S    
C48   H18   S    
C49   O16   S    
C52   H32   S    
C18   C19   A    
C60   H61   S    
H14   O11   S    
C60   O33   S    
C24   C29   A    
C50   H27   S    
C53   H38   S    
C27   O17   S    
C48   O15   S    
C31   C33   A    
C43   O6    S    
C42   H23   S    
C35   O19   S    
C39   O30   S    
C9    C10   A    
C46   H9    S    
C50   H25   S    
C15   O7    S    
C19   N1    A    
C51   O20   S    
C53   H37   S    
C21   C22   A    
C58   H53   S    
C18   O21   S    
C3    C61   A    
N1    Zn2   S    
O37   Zn2   S    
N2    Zn1   S    
H24   O17   S    
C49   H22   S    
C54   H40   S    
C43   H66   S    
C59   O32   S    
H64   O5    S    
C47   H10   S    
C40   O32   S    
H16   O14   S    
C3    C8    A    
C42   H34   S    
C57   H50   S    
C34   O2    S    
C25   C26   A    
C14   O16   S    
C45   C63   A    
C58   H54   S    
H56   O4    S    
C60   H60   S    
C16   C56   S    
C5    C9    A    
C37   C38   S    
C1    O12   A    
H15   O13   S    
C51   H29   S    
C50   H26   S    
C31   C32   A    
H3    O7    S    
C43   H2    S    
O23   Zn1   S    
C44   H6    S    
C24   C25   A    
C17   C56   A    
C46   H8    S    
C6    C7    A    
C51   H30   S    
C28   O39   A    
C40   C41   S    
C44   O8    S    
C22   C27   A    
C55   H47   S    
C19   O22   S    
O38   Zn1   S    
C36   N2    A    
C2    C5    A    
C10   O8    S    
O12   Zn2   S    
C62   O10   S    
C12   C34   S    
C58   O31   S    
C12   C38   S    
C35   N2    A    
H44   O27   S    
C2    C63   A    
C46   O9    S    
C55   O29   S    
C54   H42   S    
C55   H48   S    
C18   C22   A    
C47   H11   S    
C20   N1    A    
H63   O35   S    
C43   H65   S    
C37   O40   S    
H28   O19   S    
H12   O2    S    
C61   O9    S    
O36   Zn1   S    
C23   O4    S    
H43   O26   S    
C47   O10   S    
C49   H20   S    
C13   C17   A    
C42   O3    S    
C52   O21   S    
C23   O31   S    
H1    O40   S    
C2    C3    A    
C38   O29   S    
C48   H17   S    
C15   C56   A    
C6    C13   A    
C11   C13   A    
C50   O18   S    
C1    C45   S    
C30   O20   S    
C5    C6    A    
C57   H51   S    
C16   O37   A    
C23   C39   S    
C52   H35   S    
C33   C35   A    
C63   O11   S    
C48   H19   S    
C52   H33   S    
C37   C41   S    
C61   C62   A    
C46   H7    S    
C44   H5    S    
C10   C11   A    
C51   H31   S    
C28   O38   A    
C57   O30   S    
C20   C21   A    
C39   C41   S    
C59   H59   S    
C21   C24   A    
C14   C15   A    
C44   H4    S    
C17   O6    S    
O1    Zn1   S    
C4    O34   A    
C34   O35   S    
C42   H45   S    
H39   O24   S    
O39   Zn2   S    
C33   O28   S    
C26   O26   S    
C7    O14   S    
C39   O3    S    
H46   O28   S    
