data_mof_unit_33791.cif
_audit_creation_date              2012-10-26T20:51:13-0400
_audit_creation_method            fapswitch 2.2
_symmetry_space_group_name_H-M    P1
_symmetry_Int_Tables_number       1
_space_group_crystal_system       triclinic
_cell_length_a                    12.986582
_cell_length_b                    10.874105
_cell_length_c                    9.630361
_cell_angle_alpha                 90.44431
_cell_angle_beta                  96.144708
_cell_angle_gamma                 90.948328
_cell_volume                      1351.9143678

loop_
_atom_site_label
_atom_site_type_symbol
_atom_type_description
_atom_site_fract_x
_atom_site_fract_y
_atom_site_fract_z
_atom_type_partial_charge
C1    C     C_R   0.498375 0.262857 0.498833 0.543156
C2    C     C_R   0.564138 0.938401 0.414079 -0.186811
C3    C     C_R   0.505413 0.871453 0.502199 0.005890
C4    C     C_R   0.300534 0.499224 0.473423 0.553591
C5    C     C_R   0.443379 0.935742 0.585623 0.010369
C6    C     C_3   0.447501 0.942584 0.741725 0.140622
C7    C     C_3   0.424528 0.077993 0.729413 -0.202758
C8    C     C_R   0.532300 0.601017 0.076990 0.151165
C9    C     C_R   0.449343 0.410537 0.066811 -0.006594
C10   C     C_R   0.443772 0.414249 0.916411 0.370122
C11   C     C_R   0.538800 0.596304 0.933227 0.036214
C12   C     C_R   0.027869 0.502583 0.566604 0.030486
C13   C     C_3   0.641459 0.657688 0.940732 -0.191226
C14   C     C_3   0.629305 0.681290 0.095372 0.522653
C15   C     C_R   0.503910 0.737540 0.501190 0.533689
C16   C     C_R   0.699166 0.498061 0.526451 0.538272
C17   C     C_R   0.811938 0.494387 0.542766 0.006339
C18   C     C_R   0.187087 0.494866 0.457111 0.003024
C19   C     C_R   0.022144 0.460629 0.317093 -0.128228
C20   C     C_R   0.129664 0.474253 0.325363 0.267400
C21   C     C_R   0.135228 0.510548 0.576252 -0.187428
C22   C     C_3   0.634882 0.967265 0.769017 -0.108144
C23   C     C_R   0.971136 0.475770 0.436381 -0.012323
C24   C     C_3   0.281611 0.326617 0.867379 -0.134555
C25   C     C_3   0.799694 0.706726 0.193726 -0.095003
C26   C     C_3   0.510338 0.848959 0.101590 -0.111758
C27   C     C_3   0.169004 0.574219 0.131921 -0.123084
C28   C     C_R   0.863743 0.468474 0.426280 -0.128447
C29   C     C_R   0.868492 0.519038 0.672824 -0.138462
C30   C     C_R   0.976199 0.522118 0.684951 -0.132529
C31   C     C_R   0.433434 0.062540 0.577014 -0.035254
C32   C     C_R   0.494987 0.129795 0.493518 0.004441
C33   C     C_R   0.557495 0.066521 0.407227 -0.174370
Cu1   Cu    Cu3+1 0.499990 0.499980 0.640670 0.985986
Cu2   Cu    Cu3+1 0.500010 0.500020 0.359330 0.995627
H1    H     H_    0.820518 0.446047 0.326422 0.155512
H2    H     H_    0.178211 0.530666 0.676784 0.121493
H3    H     H_    0.606114 0.116467 0.341504 0.135701
H4    H     H_    0.619295 0.892209 0.356976 0.184759
H5    H     H_    0.383098 0.888855 0.780581 0.103805
H6    H     H_    0.625628 0.059028 0.721122 0.119816
H7    H     H_    0.665036 0.901752 0.695094 0.122202
H8    H     H_    0.695574 0.977919 0.858684 0.136426
H9    H     H_    0.231829 0.283228 0.779023 0.136662
H10   H     H_    0.251457 0.420418 0.881919 0.111921
H11   H     H_    0.274220 0.269660 0.961115 0.116567
H12   H     H_    0.343758 0.098284 0.748856 0.116637
H13   H     H_    0.791863 0.784432 0.267253 0.152639
H14   H     H_    0.816453 0.742287 0.090236 0.098855
H15   H     H_    0.867869 0.653494 0.235089 0.109008
H16   H     H_    0.468919 0.815121 0.002027 0.136031
H17   H     H_    0.510440 0.950951 0.099741 0.161727
H18   H     H_    0.465296 0.818937 0.186613 0.132670
H19   H     H_    0.195847 0.654534 0.199710 0.112863
H20   H     H_    0.087945 0.587289 0.084897 0.093390
H21   H     H_    0.219125 0.571526 0.045871 0.119101
H22   H     H_    0.484011 0.139201 0.786623 0.200092
H23   H     H_    0.411979 0.336260 0.117310 0.136008
H24   H     H_    0.703055 0.591054 0.924068 0.101203
H25   H     H_    0.643075 0.740300 0.876258 0.175703
H26   H     H_    0.829712 0.537914 0.764468 0.117801
H27   H     H_    0.978623 0.441156 0.216647 0.113368
H28   H     H_    0.018862 0.542275 0.785772 0.093882
N1    N     N_R   0.500660 0.500930 0.148010 -0.266819
N2    N     N_R   0.500660 0.500890 0.852110 -0.227517
O1    O     O_R   0.500000 0.319640 0.618810 -0.460325
O2    O     O_3   0.384831 0.329070 0.833928 -0.559981
O3    O     O_3   0.710334 0.629589 0.185067 -0.541950
O4    O     O_3   0.614463 0.809180 0.124157 -0.581515
O5    O     O_3   0.178314 0.462343 0.205216 -0.557136
O6    O     O_R   0.500010 0.319680 0.381230 -0.520868
O7    O     O_R   0.348990 0.499960 0.599490 -0.489426
O8    O     O_R   0.349000 0.500000 0.361910 -0.461835
O9    O     O_R   0.499990 0.680320 0.618770 -0.493150
O10   O     O_R   0.500000 0.680360 0.381190 -0.502757
O11   O     O_R   0.651000 0.500000 0.638090 -0.522850
O12   O     O_R   0.651010 0.500040 0.400510 -0.451597
O13   O     O_3   0.544503 0.917597 0.819782 -0.580188

loop_
_geom_bond_atom_site_label_1
_geom_bond_atom_site_label_2
_ccdc_geom_bond_type
C15   O10   A    
C18   C21   A    
C17   C29   A    
C19   C20   A    
Cu1   O1    S    
C27   H19   S    
C13   H25   S    
C10   O2    S    
C12   C23   A    
Cu2   O10   S    
C1    O6    A    
C24   H10   S    
C9    H23   S    
C5    C6    S    
Cu1   Cu2   S    
C27   H20   S    
C6    O13   S    
C22   H6    S    
C19   H27   S    
C9    N1    A    
C16   O12   A    
C25   H15   S    
C24   O2    S    
C2    H4    S    
C22   H8    S    
C16   C17   S    
Cu2   N1    S    
C9    C10   A    
C4    C18   S    
Cu2   O6    S    
C13   C14   S    
C20   O5    S    
C25   O3    S    
Cu1   N2    S    
C29   H26   S    
C7    C31   S    
C22   O13   S    
C27   H21   S    
C12   C21   A    
Cu2   O12   S    
C1    C32   S    
C7    H12   S    
C19   C23   A    
C29   C30   A    
C26   H17   S    
C31   C32   A    
C1    O1    A    
C23   C28   A    
C25   H13   S    
C4    O8    A    
C27   O5    S    
C8    N1    A    
C2    C33   A    
Cu1   O9    S    
C24   H9    S    
C14   O4    S    
C6    H5    S    
C26   H18   S    
Cu1   O7    S    
C4    O7    A    
C3    C15   S    
C10   N2    A    
Cu2   O8    S    
C8    C14   S    
C12   C30   A    
C16   O11   A    
C17   C28   A    
C3    C5    A    
C6    C7    S    
C13   H24   S    
C33   H3    S    
C24   H11   S    
C32   C33   A    
C2    C3    A    
C26   H16   S    
C11   C13   S    
C22   H7    S    
C8    C11   A    
C18   C20   A    
C25   H14   S    
C15   O9    A    
C21   H2    S    
C28   H1    S    
C26   O4    S    
C14   O3    S    
C30   H28   S    
C7    H22   S    
C11   N2    A    
Cu1   O11   S    
C5    C31   A    
