data_mof_unit_62583.cif
_audit_creation_date              2012-10-26T18:04:18-0400
_audit_creation_method            fapswitch 2.2
_symmetry_space_group_name_H-M    P1
_symmetry_Int_Tables_number       1
_space_group_crystal_system       triclinic
_cell_length_a                    38.718783
_cell_length_b                    32.269498
_cell_length_c                    21.442084
_cell_angle_alpha                 89.995642
_cell_angle_beta                  123.556466
_cell_angle_gamma                 90.007356
_cell_volume                      22325.6387553

loop_
_atom_site_label
_atom_site_type_symbol
_atom_type_description
_atom_site_fract_x
_atom_site_fract_y
_atom_site_fract_z
_atom_type_partial_charge
C1    C     C_R   0.920474 0.000012 0.420388 0.559843
C2    C     C_R   0.271697 0.992208 0.829118 -0.016932
C3    C     C_R   0.993438 0.228368 0.937371 0.011707
C4    C     C_R   0.506237 0.728378 0.062291 0.011744
C5    C     C_R   0.493035 0.728367 0.937075 0.011723
C6    C     C_R   0.999848 0.206474 0.999845 -0.057910
C7    C     C_R   0.499851 0.706474 0.999847 -0.057873
C8    C     C_1   0.499275 0.838810 0.999390 -0.055931
C9    C     C_1   0.999270 0.338810 0.999380 -0.056034
C10   C     C_3   0.031220 0.977123 0.801013 0.137911
C11   C     C_3   0.969089 0.976722 0.199294 0.137939
C12   C     C_3   0.531334 0.477275 0.801124 0.137686
C13   C     C_R   0.228304 0.491919 0.170980 -0.016609
C14   C     C_3   0.468757 0.477154 0.198971 0.137663
C15   C     C_1   0.999965 0.161471 0.999947 -0.035035
C16   C     C_1   0.499966 0.661472 0.999946 -0.034981
C17   C     C_1   0.000004 0.124079 0.999987 0.004878
C18   C     C_1   0.500004 0.624079 0.999986 0.004958
C19   C     C_1   0.499653 0.876204 0.999686 -0.027839
C20   C     C_1   0.999651 0.376203 0.999682 -0.027996
C21   C     C_3   0.999989 0.999715 0.811282 0.026607
C22   C     C_3   0.000017 0.999735 0.188723 0.026460
C23   C     C_3   0.499992 0.499712 0.811284 0.026633
C24   C     C_R   0.771689 0.492307 0.829112 -0.016569
C25   C     C_3   0.500010 0.499722 0.188717 0.026427
C26   C     C_3   0.963892 0.983396 0.734873 -0.155031
C27   C     C_3   0.036326 0.983896 0.265343 -0.155161
C28   C     C_3   0.463976 0.483218 0.734954 -0.154773
C29   C     C_3   0.536091 0.483376 0.265115 -0.154818
C30   C     C_3   0.968337 0.022427 0.698275 -0.022988
C31   C     C_3   0.031371 0.022859 0.301427 -0.023224
C32   C     C_3   0.468230 0.522271 0.698168 -0.023052
C33   C     C_3   0.531684 0.522411 0.301741 -0.023114
C34   C     C_3   0.003891 0.039217 0.774960 -0.140824
C35   C     C_R   0.706246 0.000035 0.204213 -0.020616
C36   C     C_3   0.995595 0.039177 0.224525 -0.140596
C37   C     C_3   0.503700 0.539234 0.774771 -0.140767
C38   C     C_3   0.496146 0.539227 0.225067 -0.140559
C39   C     C_3   0.035427 0.015978 0.764813 0.003707
C40   C     C_3   0.964371 0.015515 0.234988 0.003834
C41   C     C_3   0.535351 0.516151 0.764737 0.003542
C42   C     C_3   0.464587 0.516013 0.235199 0.003528
C43   C     C_3   0.089218 0.930908 0.836065 -0.281001
C44   C     C_3   0.911708 0.929721 0.164813 -0.281259
C45   C     C_3   0.589560 0.431353 0.836380 -0.280106
C46   C     C_R   0.293755 0.000114 0.795783 -0.020127
C47   C     C_3   0.410713 0.430988 0.163890 -0.280523
C48   C     C_3   0.771558 0.035444 0.436307 -0.295776
C49   C     C_3   0.228437 0.031504 0.561869 -0.296519
C50   C     C_3   0.271565 0.532381 0.437742 -0.295680
C51   C     C_3   0.728452 0.532154 0.562155 -0.296058
C52   C     C_3   0.432212 0.208944 0.055933 -0.299037
C53   C     C_3   0.567775 0.208982 0.944035 -0.298402
C54   C     C_3   0.955017 0.727464 0.115534 -0.304889
C55   C     C_3   0.044962 0.727497 0.884429 -0.304491
C56   C     C_1   0.986566 0.206116 0.872734 0.242334
C57   C     C_R   0.206245 0.500056 0.204233 -0.020075
C58   C     C_1   0.011703 0.206137 0.125890 0.242710
C59   C     C_1   0.485744 0.706116 0.872137 0.242432
C60   C     C_1   0.512532 0.706138 0.126515 0.242857
C61   C     C_3   0.522438 0.801414 0.873139 -0.283003
C62   C     C_3   0.555247 0.801430 0.183443 -0.285941
C63   C     C_3   0.023519 0.301414 0.874603 -0.283332
C64   C     C_3   0.054306 0.301429 0.183411 -0.286074
C65   C     C_1   0.933369 0.047112 0.640305 0.223439
C66   C     C_1   0.066017 0.048005 0.359054 0.222792
C67   C     C_1   0.433143 0.546783 0.640073 0.223219
C68   C     C_R   0.793756 0.500123 0.795768 -0.019633
C69   C     C_1   0.566676 0.547067 0.359730 0.222697
C70   C     C_1   0.074221 0.033933 0.780117 0.222958
C71   C     C_1   0.925341 0.032930 0.219466 0.223943
C72   C     C_1   0.574058 0.534295 0.779961 0.223094
C73   C     C_1   0.425808 0.533991 0.219905 0.224351
C74   C     C_1   0.794908 0.981544 0.181985 0.220678
C75   C     C_1   0.205100 0.984091 0.818906 0.220514
C76   C     C_1   0.294901 0.483594 0.181270 0.220618
C77   C     C_1   0.705088 0.484278 0.818902 0.220885
C78   C     C_1   0.706054 0.981065 0.092234 0.220039
C79   C     C_R   0.727669 0.009552 0.280460 -0.090348
C80   C     C_1   0.293951 0.983700 0.908683 0.221423
C81   C     C_1   0.206050 0.483158 0.091501 0.220969
C82   C     C_1   0.793934 0.483888 0.908707 0.222357
C83   C     C_R   0.272329 0.008375 0.719076 -0.089644
C84   C     C_R   0.227670 0.508552 0.280859 -0.089721
C85   C     C_R   0.079526 0.000016 0.579615 0.559628
C86   C     C_R   0.772341 0.508302 0.719037 -0.088847
C87   C     C_R   0.771417 0.010539 0.325718 0.156167
C88   C     C_R   0.228581 0.009314 0.673775 0.156598
C89   C     C_R   0.271418 0.509507 0.326156 0.156575
C90   C     C_R   0.728593 0.509261 0.673710 0.156954
C91   C     C_R   0.793565 0.000859 0.292643 0.019412
C92   C     C_R   0.206436 0.000888 0.707320 0.019547
C93   C     C_R   0.293565 0.500850 0.292694 0.019659
C94   C     C_R   0.706435 0.500895 0.707264 0.019655
C95   C     C_R   0.772037 0.991204 0.215604 -0.032152
C96   C     C_R   0.420474 0.500012 0.420387 0.559433
C97   C     C_R   0.227966 0.992497 0.784823 -0.032264
C98   C     C_R   0.272035 0.492222 0.215274 -0.032016
C99   C     C_R   0.727959 0.492591 0.784798 -0.031913
C100  C     C_1   0.661350 0.999992 0.160446 -0.043625
C101  C     C_1   0.338650 0.000043 0.839548 -0.042074
C102  C     C_1   0.161350 0.499999 0.160461 -0.042324
C103  C     C_1   0.838651 0.500043 0.839546 -0.040779
C104  C     C_1   0.838553 0.000353 0.337992 -0.032106
C105  C     C_1   0.161448 0.000371 0.661996 -0.032119
C106  C     C_1   0.338553 0.500346 0.338015 -0.031916
C107  C     C_R   0.579526 0.500016 0.579611 0.559479
C108  C     C_1   0.661447 0.500374 0.661958 -0.032240
C109  C     C_1   0.875961 0.000081 0.375631 0.001300
C110  C     C_1   0.124040 0.000092 0.624369 0.000956
C111  C     C_1   0.375960 0.500078 0.375639 0.001425
C112  C     C_1   0.624040 0.500093 0.624349 0.001245
C113  C     C_R   0.999836 0.999973 0.620306 0.554417
C114  C     C_R   0.000172 0.999976 0.379701 0.554444
C115  C     C_R   0.499838 0.499973 0.620308 0.554108
C116  C     C_R   0.500164 0.499976 0.379694 0.554119
C117  C     C_1   0.623924 0.999983 0.123606 -0.008291
C118  C     C_3   0.999834 0.999805 0.688466 -0.005623
C119  C     C_1   0.376076 0.000012 0.876391 -0.006170
C120  C     C_1   0.123924 0.499984 0.123612 -0.006631
C121  C     C_1   0.876076 0.500009 0.876392 -0.004512
C122  C     C_R   0.999998 0.920478 0.999999 0.540076
C123  C     C_R   0.499998 0.420482 0.999998 0.540561
C124  C     C_R   0.000021 0.999744 0.879466 0.555194
C125  C     C_R   0.999980 0.999756 0.120535 0.555329
C126  C     C_R   0.500022 0.499742 0.879467 0.555328
C127  C     C_R   0.499978 0.499747 0.120534 0.555448
C128  C     C_R   0.000003 0.079584 0.999995 0.555874
C129  C     C_3   0.000176 0.999814 0.311542 -0.005645
C130  C     C_R   0.500003 0.579584 0.999995 0.555899
C131  C     C_R   0.499966 0.920708 0.999970 0.550436
C132  C     C_R   0.999966 0.420708 0.999970 0.549847
C133  C     C_R   0.579365 0.999991 0.079266 0.549667
C134  C     C_R   0.420635 0.999998 0.920734 0.551072
C135  C     C_R   0.079365 0.499990 0.079267 0.550455
C136  C     C_R   0.920635 0.499996 0.920734 0.551856
C137  C     C_R   0.500000 0.079436 0.999998 0.550107
C138  C     C_R   1.000000 0.579444 0.999998 0.551811
C139  C     C_R   0.487816 0.228473 0.041906 0.137735
C140  C     C_3   0.499838 0.499805 0.688470 -0.005839
C141  C     C_R   0.512172 0.228483 0.958068 0.137610
C142  C     C_R   0.984178 0.728295 0.036545 0.145648
C143  C     C_R   0.015808 0.728306 0.963429 0.145660
C144  C     C_R   0.499995 0.206388 0.999987 0.044554
C145  C     C_R   0.999994 0.706492 0.999987 0.052508
C146  C     C_R   0.015897 0.772070 0.964821 -0.085320
C147  C     C_R   0.984087 0.772059 0.035155 -0.085373
C148  C     C_R   0.511943 0.272004 0.958486 -0.079828
C149  C     C_R   0.488041 0.271994 0.041488 -0.079810
C150  C     C_3   0.995795 0.960285 0.724874 -0.141275
C151  C     C_3   0.500165 0.499813 0.311533 -0.005872
C152  C     C_3   0.004731 0.960354 0.275650 -0.141097
C153  C     C_3   0.495992 0.460265 0.725067 -0.140875
C154  C     C_3   0.504166 0.460290 0.275097 -0.140740
C155  C     C_R   0.999991 0.793673 0.999989 -0.024015
C156  C     C_R   0.499992 0.293731 0.999987 -0.028749
C157  C     C_1   0.499997 0.161448 0.999989 -0.063888
C158  C     C_1   0.999996 0.661485 0.999989 -0.047768
C159  C     C_1   0.999992 0.838450 0.999992 -0.059252
C160  C     C_1   0.499992 0.338469 0.999990 -0.059456
C161  C     C_1   0.999994 0.875891 0.999995 -0.024548
C162  C     C_R   0.728306 0.990884 0.171322 -0.016973
C163  C     C_1   0.499994 0.375905 0.999993 -0.023078
C164  C     C_1   0.499998 0.124011 0.999992 -0.030811
C165  C     C_1   0.999998 0.624033 0.999992 -0.023144
C166  C     C_R   0.492598 0.772053 0.936551 0.118105
C167  C     C_R   0.505866 0.772064 0.062197 0.118706
C168  C     C_R   0.993002 0.272054 0.936841 0.118104
C169  C     C_R   0.005452 0.272063 0.061882 0.118660
C170  C     C_R   0.498789 0.793913 0.999043 0.020507
C171  C     C_R   0.998783 0.293913 0.999023 0.020451
C172  C     C_R   0.005826 0.228378 0.061985 0.011706
Cu1   Cu    Cu3+1 0.000000 0.041030 0.500000 1.023140
Cu2   Cu    Cu3+1 0.499990 0.000050 0.937250 0.968531
Cu3   Cu    Cu3+1 0.000010 0.500050 0.062750 0.971539
Cu4   Cu    Cu3+1 0.999990 0.500050 0.937250 0.970258
Cu5   Cu    Cu3+1 0.500000 0.541030 0.500000 1.024037
Cu6   Cu    Cu3+1 0.000000 0.958990 0.500000 0.943097
Cu7   Cu    Cu3+1 0.500000 0.458990 0.500000 0.947099
Cu8   Cu    Cu3+1 0.041030 0.000050 0.040990 0.973775
Cu9   Cu    Cu3+1 0.958970 0.000050 0.959010 0.976621
Cu10  Cu    Cu3+1 0.541030 0.500050 0.040990 0.973947
Cu11  Cu    Cu3+1 0.458970 0.500050 0.959010 0.976533
Cu12  Cu    Cu3+1 0.500010 0.000050 0.062750 0.970041
H1    H     H_    0.972091 0.789871 0.061904 0.114881
H2    H     H_    0.066053 0.971339 0.277046 0.134030
H3    H     H_    0.434483 0.470118 0.723489 0.133990
H4    H     H_    0.565636 0.470399 0.276636 0.134289
H5    H     H_    0.006917 0.071331 0.796027 0.134160
H6    H     H_    0.992146 0.071249 0.203036 0.135322
H7    H     H_    0.506569 0.571361 0.795682 0.134167
H8    H     H_    0.493150 0.571343 0.204023 0.135396
H9    H     H_    0.709647 0.016438 0.303720 0.117272
H10   H     H_    0.290348 0.014332 0.695482 0.117545
H11   H     H_    0.209649 0.514673 0.304393 0.117292
H12   H     H_    0.027892 0.789891 0.938074 0.114964
H13   H     H_    0.790369 0.514160 0.695432 0.117644
H14   H     H_    0.056373 0.933368 0.886248 0.255153
H15   H     H_    0.116088 0.915505 0.885428 0.160020
H16   H     H_    0.101217 0.952903 0.812610 0.189530
H17   H     H_    0.069951 0.906926 0.793561 0.127231
H18   H     H_    0.944509 0.932674 0.114578 0.254816
H19   H     H_    0.885046 0.913965 0.115643 0.159377
H20   H     H_    0.899413 0.951535 0.187990 0.189499
H21   H     H_    0.931292 0.905991 0.207616 0.127125
H22   H     H_    0.556704 0.433631 0.886552 0.255827
H23   H     H_    0.479124 0.288896 0.074164 0.129315
H24   H     H_    0.616513 0.416087 0.885815 0.160375
H25   H     H_    0.601440 0.453412 0.812808 0.189305
H26   H     H_    0.570415 0.407274 0.793996 0.129289
H27   H     H_    0.443558 0.433416 0.113706 0.255660
H28   H     H_    0.383823 0.415610 0.114515 0.159750
H29   H     H_    0.398741 0.452993 0.187370 0.189145
H30   H     H_    0.429953 0.406988 0.206372 0.129106
H31   H     H_    0.822430 0.033501 0.427100 0.271104
H32   H     H_    0.793939 0.041805 0.496830 0.161792
H33   H     H_    0.749462 0.011659 0.431422 0.152556
H34   H     H_    0.520859 0.288914 0.925811 0.129354
H35   H     H_    0.755047 0.064685 0.408386 0.148414
H36   H     H_    0.177616 0.031231 0.571307 0.270149
H37   H     H_    0.206051 0.036938 0.501025 0.159882
H38   H     H_    0.250475 0.007257 0.568060 0.153905
H39   H     H_    0.245017 0.060980 0.588147 0.147429
H40   H     H_    0.322444 0.531498 0.428500 0.271244
H41   H     H_    0.293947 0.538033 0.498517 0.161212
H42   H     H_    0.249456 0.508304 0.431855 0.152226
H43   H     H_    0.255070 0.561828 0.411047 0.149267
H44   H     H_    0.677405 0.530520 0.570828 0.270675
H45   H     H_    0.992818 0.928092 0.704221 0.127781
H46   H     H_    0.706089 0.537751 0.501354 0.160234
H47   H     H_    0.750763 0.508302 0.568141 0.153379
H48   H     H_    0.744710 0.561696 0.588872 0.148272
H49   H     H_    0.488660 0.178491 0.104617 0.263298
H50   H     H_    0.426227 0.193497 0.095351 0.151784
H51   H     H_    0.414511 0.192523 0.001289 0.151121
H52   H     H_    0.421296 0.241512 0.048437 0.152912
H53   H     H_    0.511332 0.178508 0.895360 0.263178
H54   H     H_    0.573761 0.193542 0.904616 0.152016
H55   H     H_    0.585481 0.192564 0.998681 0.151558
H56   H     H_    0.008134 0.928203 0.296729 0.127970
H57   H     H_    0.578686 0.241554 0.951524 0.153418
H58   H     H_    0.981962 0.677506 0.095696 0.260758
H59   H     H_    0.943451 0.704823 0.138911 0.150402
H60   H     H_    0.929160 0.748961 0.078715 0.156265
H61   H     H_    0.981524 0.744616 0.162672 0.141037
H62   H     H_    0.018031 0.677523 0.904285 0.260631
H63   H     H_    0.056528 0.704864 0.861049 0.150745
H64   H     H_    0.070817 0.749002 0.921242 0.156906
H65   H     H_    0.018451 0.744643 0.837294 0.140597
H66   H     H_    0.467064 0.819725 0.858435 0.262234
H67   H     H_    0.493173 0.428058 0.704571 0.129478
H68   H     H_    0.543608 0.822532 0.920007 0.146208
H69   H     H_    0.513847 0.816165 0.819604 0.156738
H70   H     H_    0.538768 0.771885 0.879169 0.167630
H71   H     H_    0.493974 0.819751 0.112951 0.264294
H72   H     H_    0.569217 0.822541 0.162226 0.142306
H73   H     H_    0.572924 0.771898 0.202259 0.166797
H74   H     H_    0.557499 0.816188 0.232343 0.155428
H75   H     H_    0.967853 0.319726 0.858694 0.262201
H76   H     H_    0.044501 0.322531 0.921632 0.145973
H77   H     H_    0.015257 0.316167 0.821258 0.156499
H78   H     H_    0.507112 0.428095 0.295727 0.129670
H79   H     H_    0.039922 0.271885 0.880974 0.167450
H80   H     H_    0.993104 0.319749 0.111982 0.264181
H81   H     H_    0.068530 0.322540 0.162678 0.142230
H82   H     H_    0.071975 0.271897 0.202509 0.166807
H83   H     H_    0.056219 0.316187 0.232006 0.155218
H84   H     H_    0.934335 0.970442 0.723342 0.133777
N1    N     N_2   0.065184 0.952456 0.858834 -0.493851
N2    N     N_2   0.523907 0.207600 0.913920 -0.518927
N3    N     N_2   0.968115 0.705678 0.072952 -0.511024
N4    N     N_2   0.031872 0.705701 0.927022 -0.510853
N5    N     N_1   0.981089 0.188328 0.821130 -0.282118
N6    N     N_1   0.016400 0.188358 0.176920 -0.282083
N7    N     N_1   0.479933 0.688328 0.820293 -0.281706
N8    N     N_1   0.517564 0.688360 0.177800 -0.281842
N9    N     N_2   0.485416 0.793721 0.872404 -0.505813
N10   N     N_2   0.512191 0.793743 0.125705 -0.503844
N11   N     N_2   0.986235 0.293722 0.872994 -0.505771
N12   N     N_2   0.935452 0.951616 0.141777 -0.493871
N13   N     N_2   0.011360 0.293741 0.125076 -0.503932
N14   N     N_1   0.905778 0.066533 0.594499 -0.292939
N15   N     N_1   0.093356 0.067792 0.404589 -0.293989
N16   N     N_1   0.405457 0.566068 0.594168 -0.292612
N17   N     N_1   0.594287 0.566466 0.405551 -0.294671
N18   N     N_1   0.104790 0.048058 0.792079 -0.264234
N19   N     N_1   0.894585 0.046626 0.207333 -0.262655
N20   N     N_1   0.604560 0.548569 0.791860 -0.263584
N21   N     N_1   0.395250 0.548133 0.207951 -0.261103
N22   N     N_1   0.813169 0.973844 0.155225 -0.279426
N23   N     N_2   0.565421 0.452772 0.859055 -0.493967
N24   N     N_1   0.186847 0.977388 0.846046 -0.278007
N25   N     N_1   0.313155 0.476717 0.154195 -0.278962
N26   N     N_1   0.686831 0.477649 0.846058 -0.278233
N27   N     N_1   0.688282 0.973230 0.029120 -0.272650
N28   N     N_1   0.311725 0.976912 0.972178 -0.268827
N29   N     N_1   0.188277 0.476167 0.028076 -0.271892
N30   N     N_1   0.811700 0.477173 0.972225 -0.268177
N31   N     N_2   0.434768 0.452513 0.141134 -0.493789
N32   N     N_2   0.793616 0.020246 0.404137 -0.509116
N33   N     N_2   0.206373 0.017735 0.594889 -0.508976
N34   N     N_2   0.293617 0.518165 0.404962 -0.509138
N35   N     N_2   0.706427 0.517590 0.594789 -0.508650
N36   N     N_2   0.476081 0.207580 0.086053 -0.518551
O1    O     O_R   0.940150 0.034650 0.440170 -0.491812
O2    O     O_R   0.440150 0.999980 0.993200 -0.493364
O3    O     O_R   0.059850 0.499980 0.006800 -0.493617
O4    O     O_R   0.940150 0.499980 0.993200 -0.492697
O5    O     O_R   0.500000 0.059900 0.052920 -0.503380
O6    O     O_R   0.500000 0.059900 0.947080 -0.503452
O7    O     O_R   0.000000 0.559900 0.052920 -0.502905
O8    O     O_R   0.000000 0.559900 0.947080 -0.502938
O9    O     O_R   0.940170 0.965370 0.440140 -0.508769
O10   O     O_R   0.059830 0.965370 0.559860 -0.508472
O11   O     O_R   0.440170 0.465370 0.440140 -0.508546
O12   O     O_R   0.059850 0.034650 0.559830 -0.492112
O13   O     O_R   0.559830 0.465370 0.559860 -0.508071
O14   O     O_R   0.000010 0.034650 0.591580 -0.497541
O15   O     O_R   0.999990 0.034650 0.408420 -0.497191
O16   O     O_R   0.500010 0.534650 0.591580 -0.497664
O17   O     O_R   0.499990 0.534650 0.408420 -0.497356
O18   O     O_R   0.000020 0.965370 0.591550 -0.518677
O19   O     O_R   0.999980 0.965370 0.408450 -0.518671
O20   O     O_R   0.500020 0.465370 0.591550 -0.518263
O21   O     O_R   0.499980 0.465370 0.408450 -0.518277
O22   O     O_R   0.034640 0.940200 0.034570 -0.507421
O23   O     O_R   0.440150 0.534650 0.440170 -0.491654
O24   O     O_R   0.965360 0.940200 0.965430 -0.507664
O25   O     O_R   0.534640 0.440200 0.034570 -0.507505
O26   O     O_R   0.465360 0.440200 0.965430 -0.507876
O27   O     O_R   0.034640 0.000050 0.943030 -0.493095
O28   O     O_R   0.965360 0.000050 0.056970 -0.492560
O29   O     O_R   0.534640 0.500050 0.943030 -0.493190
O30   O     O_R   0.465360 0.500050 0.056970 -0.492707
O31   O     O_R   0.965370 0.000070 0.873780 -0.513780
O32   O     O_R   0.034630 0.000070 0.126220 -0.514249
O33   O     O_R   0.465370 0.500070 0.873780 -0.513723
O34   O     O_R   0.559850 0.534650 0.559830 -0.492139
O35   O     O_R   0.534630 0.500070 0.126220 -0.514066
O36   O     O_R   0.034650 0.059910 0.034650 -0.500517
O37   O     O_R   0.965350 0.059910 0.965350 -0.498149
O38   O     O_R   0.534650 0.559910 0.034650 -0.500508
O39   O     O_R   0.465350 0.559910 0.965350 -0.498051
O40   O     O_R   0.500030 0.940190 0.053050 -0.501835
O41   O     O_R   0.499970 0.940190 0.946950 -0.502687
O42   O     O_R   0.000030 0.440190 0.053050 -0.502358
O43   O     O_R   0.999970 0.440190 0.946950 -0.503186
O44   O     O_R   0.559860 0.000050 0.112810 -0.506916
O45   O     O_R   0.440140 0.000050 0.887190 -0.506128
O46   O     O_R   0.059860 0.500050 0.112810 -0.507471
O47   O     O_R   0.940140 0.500050 0.887190 -0.506633
O48   O     O_R   0.559850 0.999980 0.006800 -0.494361

loop_
_geom_bond_atom_site_label_1
_geom_bond_atom_site_label_2
_ccdc_geom_bond_type
C105  C110  T    
C40   C71   S    
C87   C91   A    
C49   H38   S    
C107  C112  S    
C128  O37   A    
C21   C26   S    
C117  C133  S    
C79   C87   A    
C52   H50   S    
C12   N23   S    
C57   C102  S    
C153  H67   S    
C12   C23   S    
C122  C161  S    
C138  C165  S    
H62   N4    S    
C64   H81   S    
C84   H11   S    
C76   C98   S    
C50   H42   S    
C29   C33   S    
Cu12  O44   S    
Cu2   O48   S    
Cu10  Cu11  S    
H14   N1    S    
Cu9   O37   S    
C122  O24   A    
C77   N26   T    
C90   N35   S    
C80   N28   T    
H49   N36   S    
C43   H17   S    
C44   H19   S    
C55   H65   S    
C147  C155  A    
C113  O18   A    
C62   H74   S    
C33   C69   S    
C107  O13   A    
C139  C144  A    
C83   C88   A    
Cu2   O41   S    
C51   H46   S    
C113  O14   A    
C20   C132  S    
C115  O16   A    
C127  O35   A    
C46   C101  S    
Cu1   O15   S    
C26   H84   S    
C48   H33   S    
C10   C21   S    
C25   C29   S    
C27   C31   S    
C119  C134  S    
H66   N9    S    
Cu1   O14   S    
C28   C32   S    
C129  C152  S    
C85   C110  S    
C86   C90   A    
C28   H3    S    
Cu2   Cu12  S    
C85   O10   A    
C23   C37   S    
C51   H47   S    
Cu4   O43   S    
Cu11  O33   S    
C123  C163  S    
Cu3   Cu4   S    
Cu10  O29   S    
Cu12  O2    S    
C141  N2    S    
C96   O11   A    
C22   C27   S    
C9    C171  S    
C103  C121  T    
C11   N12   S    
C52   H52   S    
Cu10  O38   S    
Cu11  O30   S    
C42   C73   S    
C61   H69   S    
C64   H83   S    
Cu5   O34   S    
C82   N30   T    
H36   N33   S    
C39   C118  S    
C22   C36   S    
C33   C38   S    
C18   C130  S    
Cu7   O20   S    
C120  C135  S    
H58   N3    S    
C130  O39   A    
C122  O22   A    
C51   N35   S    
C138  O7    A    
C78   N27   T    
C61   H68   S    
C44   H21   S    
C169  N13   S    
C43   N1    S    
C76   N25   T    
C31   C36   S    
C100  C117  T    
C131  O40   A    
C48   N32   S    
Cu6   O9    S    
C158  C165  T    
C48   H35   S    
C40   C129  S    
C27   C152  S    
H75   N11   S    
C68   C103  S    
C3    C6    A    
C85   O12   A    
C6    C172  A    
C36   H6    S    
C53   H57   S    
Cu11  O39   S    
C25   C38   S    
C13   C57   A    
C47   H30   S    
Cu5   O23   S    
C54   H61   S    
C41   C140  S    
C137  O6    A    
Cu7   O21   S    
C168  C171  A    
Cu5   Cu7   S    
C10   N1    S    
C65   N14   T    
C14   C25   S    
C14   C154  S    
C169  C171  A    
C4    C7    A    
C116  O17   A    
C92   C97   A    
C106  C111  T    
C96   C111  S    
Cu12  O40   S    
C8    C19   T    
C30   C34   S    
C155  C159  S    
C34   C39   S    
C156  C160  S    
C33   C151  S    
C22   C125  S    
C30   C118  S    
C123  O26   A    
C5    C166  A    
C1    O1    A    
C45   H25   S    
C93   C106  S    
Cu6   O19   S    
C136  O4    A    
C4    C60   S    
H44   N35   S    
C159  C161  T    
C45   N23   S    
Cu5   O16   S    
C32   C37   S    
C42   C151  S    
C157  C164  T    
C136  O47   A    
C23   C126  S    
C26   C30   S    
C45   H24   S    
C132  O42   A    
C55   H64   S    
C32   C67   S    
C28   C153  S    
Cu12  O5    S    
C35   C100  S    
C60   N8    T    
C49   H37   S    
C61   N9    S    
C142  C147  A    
C75   N24   T    
C166  C170  A    
C114  O15   A    
Cu10  O25   S    
C79   H9    S    
Cu1   O1    S    
C54   H59   S    
Cu2   O6    S    
C49   N33   S    
C31   C129  S    
C64   H82   S    
C134  O2    A    
C63   N11   S    
C44   N12   S    
Cu1   Cu6   S    
C35   C79   A    
C77   C99   S    
C89   C93   A    
C66   N15   T    
Cu3   O42   S    
C30   C65   S    
C91   C95   A    
C133  O48   A    
C168  N11   S    
C53   N2    S    
C114  O19   A    
C44   H20   S    
C73   N21   T    
C144  C157  S    
C148  H34   S    
C116  C151  S    
C29   C154  S    
C143  C146  A    
C69   N17   T    
C58   N6    T    
H80   N13   S    
C125  O32   A    
C50   N34   S    
C53   H55   S    
Cu3   O4    S    
H40   N34   S    
C87   N32   S    
C32   C140  S    
C13   C81   S    
C75   C97   S    
C71   N19   T    
C118  C150  S    
C142  N3    S    
C1    C109  S    
Cu8   O32   S    
Cu9   O24   S    
C146  C155  A    
C2    C97   A    
Cu1   O12   S    
C43   H16   S    
C12   C153  S    
C166  N9    S    
C140  C153  S    
C124  O31   A    
C49   H39   S    
C142  C145  A    
C50   H43   S    
Cu9   O31   S    
C8    C170  S    
C90   C94   A    
C26   C150  S    
C5    C7    A    
C21   C34   S    
C139  C149  A    
C147  H1    S    
C108  C112  T    
C10   C39   S    
C47   N31   S    
C160  C163  T    
C12   C41   S    
C154  H78   S    
C138  O8    A    
C9    C20   T    
C57   C84   A    
C116  O21   A    
Cu2   O45   S    
C62   H73   S    
C7    C16   S    
H71   N10   S    
C114  C129  S    
C141  C144  A    
Cu6   O10   S    
C102  C120  T    
Cu8   Cu9   S    
C15   C17   T    
C149  C156  A    
C88   N33   S    
C67   N16   T    
C63   H79   S    
C115  O20   A    
C17   C128  S    
C38   C42   S    
C4    C167  A    
C134  O45   A    
C21   C124  S    
C25   C127  S    
C107  O34   A    
C10   C150  S    
C145  C158  S    
H18   N12   S    
H31   N32   S    
C47   H29   S    
C121  C136  S    
C137  O5    A    
C24   C68   A    
C86   H13   S    
C46   C83   A    
C92   C105  S    
C115  C140  S    
C56   N5    T    
C135  O46   A    
C50   H41   S    
C55   N4    S    
C148  C156  A    
C52   H51   S    
C31   C66   S    
C48   H32   S    
C61   H70   S    
C1    O9    A    
C24   C99   A    
C68   C86   A    
C52   N36   S    
C58   C172  S    
C72   N20   T    
C91   C104  S    
C149  H23   S    
C135  O3    A    
C2    C46   A    
C62   H72   S    
C94   C108  S    
C150  H45   S    
Cu3   O46   S    
C130  O38   A    
C104  C109  T    
C133  O44   A    
Cu8   O22   S    
C123  O25   A    
C124  O27   A    
C151  C154  S    
C13   C98   A    
C74   N22   T    
C24   C82   S    
C141  C148  A    
C6    C15   S    
C64   N13   S    
C127  O30   A    
C88   C92   A    
C70   N18   T    
C59   N7    T    
C96   O23   A    
C125  O28   A    
Cu4   O47   S    
Cu7   O13   S    
C14   C42   S    
Cu8   O27   S    
C132  O43   A    
C55   H63   S    
C47   H28   S    
C37   C41   S    
C11   C40   S    
Cu5   O17   S    
C63   H77   S    
C3    C168  A    
C167  C170  A    
C19   C131  S    
C35   C162  A    
C5    C59   S    
C126  O29   A    
C143  N4    S    
C101  C119  T    
C36   C40   S    
Cu7   O11   S    
C95   C162  A    
Cu8   O36   S    
Cu11  O26   S    
Cu4   O3    S    
C14   N31   S    
C27   H2    S    
C54   H60   S    
C81   N29   T    
C3    C56   S    
C152  H56   S    
C54   N3    S    
C128  O36   A    
C167  N10   S    
C139  N36   S    
H53   N2    S    
C89   N34   S    
C41   C72   S    
C16   C18   T    
Cu10  O35   S    
C37   H7    S    
C78   C162  S    
C38   H8    S    
C169  C172  A    
C23   C28   S    
C84   C89   A    
C146  H12   S    
C143  C145  A    
C51   H48   S    
C74   C95   S    
C34   H5    S    
H27   N31   S    
C53   H54   S    
C137  C164  S    
Cu9   O28   S    
C11   C22   S    
C45   H26   S    
C83   H10   S    
H22   N23   S    
C63   H76   S    
Cu6   O18   S    
C94   C99   A    
C39   C70   S    
C131  O41   A    
C2    C80   S    
C113  C118  S    
C11   C152  S    
Cu3   O7    S    
Cu4   O8    S    
C29   H4    S    
C43   H15   S    
C62   N10   S    
C93   C98   A    
C126  O33   A    
