data_mof_unit_16000.cif
_audit_creation_date              2012-12-11T21:12:36-0500
_audit_creation_method            fapswitch 2.2
_symmetry_space_group_name_H-M    P1
_symmetry_Int_Tables_number       1
_space_group_crystal_system       triclinic
_cell_length_a                    8.21635
_cell_length_b                    18.799219
_cell_length_c                    27.001713
_cell_angle_alpha                 98.951323
_cell_angle_beta                  92.394944
_cell_angle_gamma                 88.44253
_cell_volume                      4115.4128689

loop_
_atom_site_label
_atom_site_type_symbol
_atom_type_description
_atom_site_fract_x
_atom_site_fract_y
_atom_site_fract_z
_atom_type_partial_charge
Ba1   Ba    Ba6+2 0.160810 0.465630 0.521640 1.090194
Ba2   Ba    Ba6+2 0.649380 0.534380 0.478400 1.580211
C1    C     C_3   0.446729 0.171945 0.665131 -0.295505
C2    C     C_R   0.071990 0.096850 0.449632 -0.080558
C3    C     C_R   0.163149 0.940117 0.432452 -0.046497
C4    C     C_3   0.950389 0.270915 0.622980 0.144880
C5    C     C_R   0.032775 0.970307 0.462855 0.036155
C6    C     C_R   0.233878 0.873819 0.439699 -0.079724
C7    C     C_R   0.159859 0.828695 0.468249 0.002447
C8    C     C_R   0.015407 0.852965 0.492890 0.039322
C9    C     C_R   0.953353 0.924318 0.491044 -0.023129
C10   C     C_R   0.219167 0.757659 0.469631 -0.045290
C11   C     C_R   0.125305 0.709721 0.490366 -0.197109
C12   C     C_3   0.477202 0.236061 0.638512 0.335640
C13   C     C_R   0.985549 0.732622 0.516404 0.025581
C14   C     C_R   0.933549 0.805994 0.519659 0.080723
C15   C     C_R   0.831738 0.067199 0.490355 0.095188
C16   C     C_3   0.959267 0.197938 0.640633 -0.299689
C17   C     C_R   0.775601 0.140519 0.493288 -0.068227
C18   C     C_R   0.869889 0.191215 0.473651 -0.030751
C19   C     C_R   0.013155 0.166694 0.449629 0.032090
C20   C     C_R   0.801918 0.833871 0.548446 -0.035551
C21   C     C_R   0.740383 0.903105 0.546563 -0.083786
C22   C     C_R   0.809464 0.948452 0.516376 0.088701
C23   C     C_3   0.485915 0.312758 0.391341 0.845033
C24   C     C_R   0.741733 0.017873 0.512249 -0.065513
C25   C     C_R   0.584974 0.039292 0.528698 -0.045573
C26   C     C_R   0.624651 0.162759 0.515327 -0.057718
C27   C     C_R   0.526085 0.109493 0.529373 0.454319
C28   C     C_3   0.851747 0.624966 0.634161 0.250929
C29   C     C_R   0.579468 0.237182 0.522294 0.066178
C30   C     C_R   0.680679 0.286733 0.505977 -0.283228
C31   C     C_R   0.821051 0.265100 0.480134 -0.005583
C32   C     C_R   0.256284 0.457311 0.172289 0.574259
C33   C     C_R   0.259336 0.586150 0.181778 0.626757
C34   C     C_3   0.498666 0.232443 0.370872 -0.335636
C35   C     C_2   0.074706 0.567540 0.274283 0.035361
C36   C     C_3   0.058921 0.584403 0.330527 0.283207
C37   C     C_1   0.282695 0.496356 0.337129 0.018666
C38   C     C_2   0.316518 0.493055 0.289270 -0.129318
C39   C     C_2   0.204069 0.528244 0.254826 0.089358
C40   C     C_3   0.882236 0.643841 0.690626 0.423807
C41   C     C_R   0.314617 0.515657 0.100306 -0.047641
C42   C     C_R   0.294117 0.452438 0.121247 0.018298
C43   C     C_R   0.312458 0.385592 0.090844 -0.246818
C44   C     C_R   0.296772 0.582909 0.130959 -0.032348
C45   C     C_3   0.841437 0.729268 0.351380 2.671364
C46   C     C_2   0.164020 0.536683 0.359274 -0.497966
C47   C     C_2   0.649351 0.472651 0.637594 -0.256073
C48   C     C_R   0.402388 0.439466 0.966325 0.050400
C49   C     C_R   0.420328 0.571884 0.977441 -0.002901
C50   C     C_R   0.431037 0.503652 0.946461 0.108133
C51   C     C_R   0.408340 0.373230 0.933329 -0.145009
C52   C     C_3   0.964793 0.382445 0.369028 0.196874
C53   C     C_R   0.445938 0.369906 0.883351 -0.000568
C54   C     C_R   0.478906 0.432371 0.863702 -0.056543
C55   C     C_R   0.470909 0.499480 0.894998 -0.117591
C56   C     C_3   0.770510 0.795174 0.331179 0.362476
C57   C     C_R   0.502680 0.562307 0.874797 -0.059795
C58   C     C_R   0.543568 0.557028 0.823906 0.590887
C59   C     C_R   0.518990 0.428758 0.813147 0.767500
C60   C     C_2   0.728357 0.445829 0.724460 0.738575
C61   C     C_3   0.747407 0.425518 0.668557 -0.200039
C62   C     C_1   0.523503 0.511436 0.656787 -0.005207
C63   C     C_2   0.487260 0.518376 0.704886 0.048030
C64   C     C_3   0.952528 0.369088 0.311683 -0.189084
C65   C     C_2   0.595845 0.485186 0.741554 0.144058
C66   C     C_R   0.368016 0.443362 0.018073 -0.000116
C67   C     C_3   0.330288 0.710741 0.351304 -0.111032
C68   C     C_R   0.353314 0.511661 0.048760 0.044141
C69   C     C_R   0.377030 0.576008 0.028533 0.017184
C70   C     C_R   0.348789 0.381011 0.040580 -0.004229
C71   C     C_R   0.316993 0.645797 0.110344 -0.004312
C72   C     C_R   0.454386 0.633807 0.956009 -0.128149
C73   C     C_R   0.494318 0.628991 0.905964 0.011055
C74   C     C_R   0.355883 0.642582 0.060418 -0.086061
C75   C     C_3   0.331874 0.685227 0.590602 0.362965
C76   C     C_3   0.336662 0.766621 0.605647 -0.340076
C77   C     C_2   0.510272 0.300380 0.677160 0.576022
C78   C     C_3   0.309154 0.754956 0.308737 0.518687
C79   C     C_2   0.064720 0.309064 0.289836 0.498611
C80   C     C_2   0.589721 0.219585 0.323207 0.513602
C81   C     C_2   0.209213 0.968759 0.386786 0.517827
C82   C     C_R   0.979330 0.044178 0.466705 -0.005325
F1    F     F_    0.860240 0.584600 0.713719 -0.733655
F2    F     F_    0.409171 0.320546 0.436435 -0.711126
F3    F     F_    0.859907 0.745239 0.403057 -0.780080
F4    F     F_    0.441140 0.743756 0.278180 -0.656651
F5    F     F_    0.370347 0.123136 0.543064 -0.688712
F6    F     F_    0.829736 0.415118 0.756623 -0.678092
H1    H     H_    0.796812 0.687710 0.706131 0.056470
H2    H     H_    0.261433 0.783536 0.638841 0.115878
H3    H     H_    0.288337 0.793992 0.574447 0.018664
H4    H     H_    0.464192 0.783515 0.615006 0.117368
H5    H     H_    0.587374 0.222205 0.616516 -0.163443
H6    H     H_    0.558033 0.158707 0.687011 0.044727
H7    H     H_    0.610615 0.334249 0.397878 -0.024219
H8    H     H_    0.564459 0.203880 0.398995 0.031701
H9    H     H_    0.374216 0.210122 0.364350 0.171170
H10   H     H_    0.415586 0.123885 0.637344 0.154664
H11   H     H_    0.892844 0.157874 0.613024 0.073822
H12   H     H_    0.009335 0.662143 0.698838 0.053698
H13   H     H_    0.961763 0.718635 0.334532 -2.527807
H14   H     H_    0.654463 0.813382 0.348962 -0.863123
H15   H     H_    0.857709 0.840001 0.339588 0.010254
H16   H     H_    0.749808 0.782677 0.289875 0.100909
H17   H     H_    0.211295 0.712091 0.369417 0.518020
H18   H     H_    0.362876 0.654251 0.335676 0.118536
H19   H     H_    0.196707 0.738910 0.286072 0.316939
H20   H     H_    0.009159 0.266111 0.586271 0.137413
H21   H     H_    0.297518 0.813085 0.324047 0.098490
H22   H     H_    0.166601 0.654290 0.488579 0.062708
H23   H     H_    0.089085 0.398375 0.382111 0.039829
H24   H     H_    0.339436 0.855107 0.418758 0.158776
H25   H     H_    0.086929 0.201472 0.432128 0.105204
H26   H     H_    0.743401 0.802521 0.572614 0.086170
H27   H     H_    0.645483 0.343207 0.511474 0.126524
H28   H     H_    0.194964 0.086429 0.437671 0.067259
H29   H     H_    0.639851 0.920623 0.570284 0.055898
H30   H     H_    0.819369 0.285010 0.617428 -0.035280
H31   H     H_    0.502364 0.001591 0.539948 0.091895
H32   H     H_    0.426388 0.465311 0.274836 0.149227
H33   H     H_    0.299078 0.335986 0.105905 0.206164
H34   H     H_    0.879082 0.427251 0.382169 0.113985
H35   H     H_    0.449178 0.317543 0.859980 0.114760
H36   H     H_    0.382501 0.322392 0.944561 0.082514
H37   H     H_    0.363244 0.327166 0.020678 0.076501
H38   H     H_    0.992001 0.594084 0.250214 0.138585
H39   H     H_    0.302733 0.698379 0.132917 0.130759
H40   H     H_    0.453534 0.687368 0.976985 0.089053
H41   H     H_    0.087787 0.179382 0.644042 0.181981
H42   H     H_    0.519221 0.678248 0.891743 0.118490
H43   H     H_    0.377526 0.547568 0.718032 0.111876
H44   H     H_    0.366663 0.693860 0.048004 0.084557
H45   H     H_    0.983204 0.419035 0.297283 0.054268
H46   H     H_    0.157263 0.545760 0.399843 0.103924
H47   H     H_    0.667640 0.464396 0.597530 0.115664
H48   H     H_    0.902348 0.201675 0.677564 0.118487
H49   H     H_    0.722171 0.612081 0.626042 0.013284
H50   H     H_    0.929951 0.577707 0.620124 0.089427
H51   H     H_    0.620544 0.301143 0.700727 -0.049659
H52   H     H_    0.133882 0.276959 0.313804 0.086013
H53   H     H_    0.716480 0.234358 0.323480 0.014765
H54   H     H_    0.121838 0.000528 0.367751 0.022742
H55   H     H_    0.825093 0.355426 0.299114 0.084886
H56   H     H_    0.204233 0.669135 0.582608 -0.033968
H57   H     H_    0.404159 0.670054 0.556596 0.073702
H58   H     H_    0.344856 0.184223 0.691124 0.124626
N1    N     N_R   0.239047 0.523766 0.202003 -0.434962
N2    N     N_R   0.552620 0.490571 0.793770 -0.416711
O1    O     O_2   0.106080 0.324280 0.466820 -0.341531
O2    O     O_2   0.743087 0.528605 0.325447 -0.505019
O3    O     O_3   0.738931 0.669852 0.337841 -0.587878
O4    O     O_3   0.859130 0.413620 0.470620 -0.450068
O5    O     O_3   0.459240 0.537930 0.559910 -0.460310
O6    O     O_2   0.583120 0.462390 0.379940 -0.488124
O7    O     O_3   0.394815 0.348342 0.356931 -0.678577
O8    O     O_2   0.561297 0.756602 0.477875 -0.409306
O9    O     O_3   0.456079 0.739484 0.384630 -0.577492
O10   O     O_2   0.237303 0.402385 0.190158 -0.518822
O11   O     O_2   0.523259 0.370283 0.786227 -0.574103
O12   O     O_3   0.396052 0.652883 0.630548 -0.616135
O13   O     O_2   0.246591 0.644732 0.208237 -0.544832
O14   O     O_2   0.572669 0.611455 0.806598 -0.554833
O15   O     O_3   0.376230 0.370290 0.556910 -0.407325
O16   O     O_2   0.247367 0.246295 0.517342 -0.392157
O17   O     O_3   0.926041 0.319416 0.387199 -0.675146
O18   O     O_3   0.337677 0.249546 0.608961 -0.548080
O19   O     O_2   0.227190 0.537650 0.620070 -0.440420
O20   O     O_3   0.971110 0.406970 0.583250 -0.500891
O21   O     O_2   0.085649 0.461652 0.675179 -0.383407
O22   O     O_2   0.413941 0.351354 0.682776 -0.558526
O23   O     O_3   0.031273 0.322525 0.658407 -0.477262
O24   O     O_2   0.076376 0.294833 0.244462 -0.458855
O25   O     O_2   0.522392 0.192194 0.283986 -0.516650
O26   O     O_2   0.344134 0.956615 0.369608 -0.529315
O27   O     O_2   0.704230 0.675760 0.533200 -0.440387
O28   O     O_3   0.951180 0.586390 0.529420 -0.490433
O29   O     O_3   0.434080 0.629720 0.443130 -0.431258
O30   O     O_3   0.888253 0.685310 0.612682 -0.688622
O31   O     O_3   0.351080 0.462080 0.440130 -0.388460
O32   O     O_3   0.839200 0.593040 0.416790 -0.441518
P1    P     P_3+3 0.929380 0.335110 0.452880 0.933466
P2    P     P_3+3 0.398530 0.559060 0.613740 0.933170
P3    P     P_3+3 0.960743 0.407633 0.647655 1.130105
P4    P     P_3+3 0.880940 0.664900 0.547160 1.043152
P5    P     P_3+3 0.844536 0.592613 0.351907 1.097666
P6    P     P_3+3 0.390608 0.275847 0.552200 1.111308
P7    P     P_3+3 0.399156 0.441590 0.376915 1.055582
P8    P     P_3+3 0.417512 0.722436 0.444752 0.905136

loop_
_geom_bond_atom_site_label_1
_geom_bond_atom_site_label_2
_ccdc_geom_bond_type
C65   N2    S    
C53   C54   A    
Ba2   O5    S    
O18   P6    S    
C47   H47   S    
C25   C27   A    
Ba1   O20   S    
C17   C18   A    
C49   C72   A    
C52   O17   S    
C19   H25   S    
C27   F5    S    
C67   H17   S    
C77   H51   S    
C75   C76   S    
C43   H33   S    
C5    C9    A    
O23   P3    S    
C24   C25   A    
C60   C61   S    
C60   C65   D    
C59   O11   D    
C15   C24   A    
C26   C27   A    
C22   C24   A    
C40   H1    S    
C11   H22   S    
O8    P8    D    
C21   H29   S    
C69   C74   A    
C3    C81   S    
C55   C57   A    
C39   N1    S    
C76   H3    S    
C13   C14   A    
C52   H23   S    
C9    C22   A    
C54   C55   A    
O20   P3    S    
Ba1   O5    S    
Ba1   Ba2   S    
Ba2   O32   S    
C16   H48   S    
C64   H55   S    
C52   H34   S    
C58   O14   D    
O31   P7    S    
C1    H10   S    
C67   H18   S    
O17   P1    S    
C53   H35   S    
C34   C80   S    
C6    C7    A    
C61   P3    S    
C62   C63   D    
C78   H19   S    
C31   P1    S    
C48   C50   A    
C21   C22   A    
C68   C69   A    
Ba2   O27   S    
C7    C8    A    
C30   H27   S    
C36   C46   S    
C6    H24   S    
C35   H38   S    
Ba2   O6    S    
O6    P7    D    
C20   H26   S    
C5    C82   A    
C1    H58   S    
Ba2   O4    S    
C47   C62   D    
C81   O26   D    
C43   C70   A    
Ba2   O28   S    
C4    H20   S    
O9    P8    S    
C2    H28   S    
C16   H41   S    
C49   C69   A    
O2    P5    D    
C40   H12   S    
C4    H30   S    
C41   C44   A    
C32   N1    Am   
C47   C61   S    
C51   C53   A    
C25   H31   S    
C4    C16   S    
C13   P4    S    
C71   H39   S    
C48   C51   A    
C45   H13   S    
C72   C73   A    
O21   P3    D    
C70   H37   S    
C49   C50   A    
O15   P6    S    
C32   C42   A    
C50   C55   A    
C37   C38   D    
C3    C5    A    
Ba1   O31   S    
O5    P2    S    
C15   C17   A    
O3    P5    S    
C63   C65   S    
C33   O13   D    
O27   P4    D    
C14   C20   A    
C56   H16   S    
C16   H11   S    
C62   P2    S    
C77   O22   D    
C29   P6    S    
C41   C42   A    
Ba2   P4    S    
O19   P2    D    
O12   P2    S    
C35   C36   S    
Ba1   O28   S    
C45   O3    S    
C29   C30   A    
C2    C82   A    
Ba1   O15   S    
C66   C70   A    
O4    P1    S    
C51   H36   S    
C40   F1    S    
C58   N2    Am   
C12   C77   S    
C10   C11   A    
C17   C26   A    
C1    H6    S    
C1    C12   S    
O30   P4    S    
Ba1   P1    S    
C18   C31   A    
C23   H7    S    
C79   H52   S    
C41   C68   A    
C11   C13   A    
C23   O7    S    
C71   C74   A    
O16   P6    D    
C56   H14   S    
Ba2   O29   S    
C12   O18   S    
C57   C73   A    
C12   H5    S    
C10   P8    S    
C73   H42   S    
C59   N2    Am   
C75   O12   S    
C75   H57   S    
C38   C39   S    
C74   H44   S    
C28   H49   S    
C54   C59   A    
C46   H46   S    
C26   C29   A    
C42   C43   A    
C80   H53   S    
C28   H50   S    
C3    C6    A    
O1    P1    D    
C52   C64   S    
C4    O23   S    
C38   H32   S    
C15   C82   A    
C76   H2    S    
C30   C31   A    
C56   H15   S    
C72   H40   S    
C78   F4    S    
C8    C14   A    
C79   O24   D    
C45   C56   S    
C2    C19   A    
C81   H54   S    
O29   P8    S    
C76   H4    S    
C37   P7    S    
C60   F6    S    
C78   H21   S    
Ba1   O19   S    
C23   F2    S    
C67   O9    S    
Ba1   P2    S    
Ba1   O1    S    
C34   H9    S    
O32   P5    S    
C35   C39   D    
Ba1   O4    S    
C7    C10   A    
O7    P7    S    
C8    C9    A    
C23   C34   S    
C64   H45   S    
O28   P4    S    
C57   C58   A    
C18   C19   A    
C66   C68   A    
C28   O30   S    
C20   C21   A    
C28   C40   S    
C67   C78   S    
C34   H8    S    
C80   O25   D    
C33   N1    Am   
C33   C44   A    
C48   C66   A    
C75   H56   S    
Ba2   O31   S    
C44   C71   A    
C63   H43   S    
C36   P5    S    
C45   F3    S    
C37   C46   D    
C64   C79   S    
C32   O10   D    
