data_mof_unit_51741.cif
_audit_creation_date              2012-12-10T21:19:17-0500
_audit_creation_method            fapswitch 2.2
_symmetry_space_group_name_H-M    P1
_symmetry_Int_Tables_number       1
_space_group_crystal_system       triclinic
_cell_length_a                    15.727382
_cell_length_b                    17.642837
_cell_length_c                    16.89069
_cell_angle_alpha                 87.959281
_cell_angle_beta                  85.849688
_cell_angle_gamma                 90.920028
_cell_volume                      4670.68340889

loop_
_atom_site_label
_atom_site_type_symbol
_atom_type_description
_atom_site_fract_x
_atom_site_fract_y
_atom_site_fract_z
_atom_type_partial_charge
C1    C     C_R   0.503122 0.353769 0.501040 0.964134
C2    C     C_R   0.457680 0.152683 0.570097 -0.003277
C3    C     C_R   0.503734 0.885475 0.513544 -0.016857
C4    C     C_R   0.520185 0.114372 0.523111 -0.000600
C5    C     C_1   0.512656 0.965690 0.521157 -0.047019
C6    C     C_1   0.517899 0.033203 0.523976 -0.060959
C7    C     C_R   0.434231 0.463841 0.840864 0.044210
C8    C     C_R   0.560452 0.544123 0.159867 0.032056
C9    C     C_R   0.437873 0.459657 0.755575 0.069404
C10   C     C_R   0.568618 0.528799 0.242981 0.096718
C11   C     C_R   0.556682 0.546147 0.741640 0.587008
C12   C     C_R   0.496168 0.646332 0.499067 0.930970
C13   C     C_R   0.431076 0.470414 0.257564 0.580098
C14   C     C_R   0.554966 0.550628 0.825761 -0.432116
C15   C     C_R   0.427171 0.474859 0.173344 -0.434991
C16   C     C_R   0.337616 0.501023 0.502666 0.918523
C17   C     C_R   0.662436 0.499609 0.497379 0.916181
C18   C     C_R   0.494359 0.509646 0.875870 0.064884
C19   C     C_R   0.491110 0.512413 0.124014 0.064773
C20   C     C_1   0.494080 0.513083 0.963429 -0.028771
C21   C     C_1   0.490622 0.512768 0.036316 -0.036569
C22   C     C_3   0.964716 0.447581 0.552011 -0.012614
C23   C     C_R   0.425754 0.765630 0.544318 0.002444
C24   C     C_3   0.035556 0.556026 0.449711 -0.009975
C25   C     C_3   0.034840 0.435989 0.485338 0.425274
C26   C     C_3   0.965382 0.567550 0.516356 0.429398
C27   C     C_1   0.248612 0.504622 0.508955 -0.171417
C28   C     C_1   0.751577 0.497583 0.491466 -0.160629
C29   C     C_3   0.012341 0.519597 0.576748 -0.014276
C30   C     C_3   0.988060 0.483999 0.424827 -0.015952
C31   C     C_3   0.082523 0.507124 0.509811 -0.024283
C32   C     C_3   0.917736 0.496429 0.491761 -0.027669
C33   C     C_1   0.173243 0.506949 0.512211 0.014519
C34   C     C_R   0.575641 0.234250 0.461606 -0.021018
C35   C     C_1   0.827004 0.496132 0.488965 0.010389
C36   C     C_R   0.431153 0.845881 0.550148 0.090050
C37   C     C_R   0.579269 0.154292 0.468979 0.093590
C38   C     C_3   0.921074 0.383220 0.604069 -0.400204
C39   C     C_3   0.982556 0.344238 0.658142 -0.327205
C40   C     C_3   0.939108 0.277017 0.704895 -0.898384
C41   C     C_3   0.078794 0.620923 0.398238 -0.402699
C42   C     C_3   0.016723 0.660382 0.345037 -0.320094
C43   C     C_3   0.059973 0.727592 0.298122 -0.904175
C44   C     C_3   0.973939 0.458367 0.340905 -0.420420
C45   C     C_R   0.490624 0.728920 0.497829 -0.209375
C46   C     C_3   0.057786 0.451985 0.289447 -0.304232
C47   C     C_3   0.042201 0.419577 0.209090 -0.908749
C48   C     C_3   0.028440 0.545796 0.659927 -0.420248
C49   C     C_3   0.945785 0.551790 0.713116 -0.303861
C50   C     C_3   0.963479 0.584029 0.793044 -0.906934
C51   C     C_3   0.362621 0.889791 0.597385 -0.398253
C52   C     C_3   0.310448 0.940276 0.543243 -0.346315
C53   C     C_3   0.228818 0.966635 0.587625 -0.909191
C54   C     C_3   0.644284 0.111225 0.417332 -0.411489
C55   C     C_3   0.609564 0.095192 0.336724 -0.339573
C56   C     C_R   0.508906 0.271466 0.504546 -0.157550
C57   C     C_3   0.679286 0.067690 0.277527 -0.911023
C58   C     C_3   0.351731 0.719549 0.587004 -0.392042
C59   C     C_3   0.269136 0.727437 0.544627 -0.354812
C60   C     C_3   0.193393 0.695537 0.597341 -0.933787
C61   C     C_3   0.645222 0.278947 0.411127 -0.408833
C62   C     C_3   0.723726 0.291524 0.458090 -0.346653
C63   C     C_3   0.799288 0.320144 0.403075 -0.930297
C64   C     C_3   0.644691 0.889461 0.427254 -0.369721
C65   C     C_3   0.713110 0.897857 0.486831 -0.315807
C66   C     C_3   0.796836 0.929713 0.446639 -0.898755
C67   C     C_R   0.556455 0.770836 0.455371 0.356928
C68   C     C_3   0.402626 0.111146 0.636693 -0.418773
C69   C     C_3   0.419914 0.140897 0.718508 -0.331308
C70   C     C_3   0.364927 0.098569 0.784521 -0.910973
C71   C     C_3   0.368901 0.418474 0.896266 -0.408475
C72   C     C_3   0.300014 0.469689 0.934538 -0.334793
C73   C     C_3   0.226629 0.422742 0.976514 -0.910486
C74   C     C_3   0.626306 0.592045 0.107741 -0.424810
C75   C     C_3   0.589773 0.669395 0.085134 -0.330878
C76   C     C_3   0.653427 0.716370 0.030389 -0.891820
C77   C     C_3   0.375350 0.407113 0.719001 -0.327272
C78   C     C_R   0.448430 0.231153 0.555480 0.381224
C79   C     C_3   0.283029 0.435032 0.722322 -0.394819
C80   C     C_3   0.226429 0.380920 0.679786 -0.831130
C81   C     C_3   0.658889 0.526455 0.268500 -0.389850
C82   C     C_3   0.689249 0.602981 0.298082 -0.273908
C83   C     C_3   0.785923 0.607481 0.299646 -0.906143
C84   C     C_R   0.566168 0.848139 0.466162 0.049956
H1    H     H_    0.600882 0.586591 0.852128 0.155150
H2    H     H_    0.038793 0.323594 0.622101 0.259279
H3    H     H_    0.807748 0.561439 0.338961 0.265928
H4    H     H_    0.816945 0.602407 0.238919 0.245344
H5    H     H_    0.805166 0.662767 0.322950 0.274897
H6    H     H_    0.668642 0.650671 0.259741 0.207246
H7    H     H_    0.661019 0.611202 0.358584 0.288980
H8    H     H_    0.667219 0.477665 0.309410 0.214576
H9    H     H_    0.702682 0.509513 0.217875 0.168538
H10   H     H_    0.005011 0.384908 0.700947 0.219302
H11   H     H_    0.866309 0.406158 0.640256 0.201391
H12   H     H_    0.895381 0.340742 0.564835 0.197561
H13   H     H_    0.082454 0.770164 0.339184 0.264292
H14   H     H_    0.115085 0.708234 0.259640 0.262316
H15   H     H_    0.013787 0.754914 0.259929 0.252858
H16   H     H_    0.993216 0.620023 0.302415 0.224918
H17   H     H_    0.961043 0.681151 0.381738 0.260347
H18   H     H_    0.104679 0.662845 0.438037 0.198988
H19   H     H_    0.374079 0.448773 0.146353 0.158975
H20   H     H_    0.133483 0.598558 0.361525 0.200652
H21   H     H_    0.013503 0.361627 0.217226 0.266014
H22   H     H_    0.998831 0.456635 0.176730 0.261644
H23   H     H_    0.103710 0.416285 0.172791 0.251432
H24   H     H_    0.088569 0.508687 0.278769 0.220743
H25   H     H_    0.102321 0.414566 0.319877 0.262748
H26   H     H_    0.941456 0.402165 0.345803 0.209205
H27   H     H_    0.931811 0.498645 0.311765 0.196971
H28   H     H_    0.007678 0.546885 0.824299 0.262566
H29   H     H_    0.992109 0.641975 0.784436 0.264657
H30   H     H_    0.028789 0.332094 0.456184 0.323968
H31   H     H_    0.902806 0.587299 0.830605 0.251167
H32   H     H_    0.900443 0.589258 0.683792 0.261701
H33   H     H_    0.915198 0.495045 0.724183 0.221387
H34   H     H_    0.072322 0.506283 0.687997 0.195811
H35   H     H_    0.059998 0.602383 0.653713 0.208573
H36   H     H_    0.185904 0.917274 0.604996 0.265405
H37   H     H_    0.243970 0.996521 0.641783 0.264184
H38   H     H_    0.195057 0.006139 0.548559 0.255679
H39   H     H_    0.348035 0.991234 0.520948 0.231567
H40   H     H_    0.293236 0.909015 0.490609 0.216090
H41   H     H_    0.971128 0.671422 0.545725 0.322349
H42   H     H_    0.317654 0.852427 0.634361 0.215187
H43   H     H_    0.393401 0.924571 0.640985 0.182486
H44   H     H_    0.729902 0.112142 0.265795 0.262028
H45   H     H_    0.708151 0.015145 0.300509 0.264611
H46   H     H_    0.651495 0.055471 0.220658 0.254026
H47   H     H_    0.557455 0.051736 0.345034 0.220492
H48   H     H_    0.582253 0.147429 0.310919 0.225865
H49   H     H_    0.706280 0.142078 0.408694 0.209818
H50   H     H_    0.661122 0.057790 0.447932 0.201807
H51   H     H_    0.203713 0.634982 0.613362 0.264307
H52   H     H_    0.650763 0.619294 0.726252 0.309688
H53   H     H_    0.184956 0.727881 0.652510 0.264577
H54   H     H_    0.134424 0.700377 0.565461 0.241665
H55   H     H_    0.256455 0.787300 0.528928 0.241222
H56   H     H_    0.274860 0.695999 0.488634 0.212969
H57   H     H_    0.363682 0.658185 0.591386 0.212296
H58   H     H_    0.343382 0.735219 0.650101 0.194844
H59   H     H_    0.815899 0.277984 0.357428 0.262907
H60   H     H_    0.784061 0.374850 0.373167 0.263780
H61   H     H_    0.855275 0.328633 0.438074 0.241300
H62   H     H_    0.708999 0.333704 0.504192 0.210734
H63   H     H_    0.323165 0.414183 0.270814 0.310597
H64   H     H_    0.741739 0.238143 0.488939 0.222867
H65   H     H_    0.662523 0.249728 0.355381 0.212698
H66   H     H_    0.624680 0.334711 0.389011 0.215487
H67   H     H_    0.582028 0.717826 0.361867 0.320482
H68   H     H_    0.332216 0.236654 0.604569 0.338581
H69   H     H_    0.821811 0.891414 0.399963 0.270876
H70   H     H_    0.787700 0.986879 0.419445 0.256793
H71   H     H_    0.844740 0.934481 0.491455 0.254978
H72   H     H_    0.690445 0.936057 0.534515 0.214369
H73   H     H_    0.725442 0.841418 0.514718 0.253041
H74   H     H_    0.883323 0.296260 0.742575 0.262622
H75   H     H_    0.671956 0.859201 0.375005 0.242802
H76   H     H_    0.626567 0.945111 0.402776 0.189767
H77   H     H_    0.296245 0.106473 0.775820 0.262683
H78   H     H_    0.378943 0.037041 0.785008 0.262137
H79   H     H_    0.378774 0.121081 0.842879 0.252167
H80   H     H_    0.488231 0.133079 0.729111 0.223152
H81   H     H_    0.406248 0.202272 0.721492 0.243713
H82   H     H_    0.334106 0.115390 0.625771 0.194880
H83   H     H_    0.415522 0.049944 0.639312 0.218284
H84   H     H_    0.194697 0.388176 0.933216 0.262479
H85   H     H_    0.917586 0.234097 0.663752 0.263375
H86   H     H_    0.250679 0.384674 0.023373 0.263344
H87   H     H_    0.179027 0.461091 0.004750 0.251904
H88   H     H_    0.327202 0.505941 0.978986 0.229869
H89   H     H_    0.274447 0.508312 0.889059 0.213042
H90   H     H_    0.337685 0.371970 0.866556 0.204366
H91   H     H_    0.402270 0.388741 0.943831 0.198143
H92   H     H_    0.712998 0.726680 0.060221 0.261536
H93   H     H_    0.668779 0.686434 0.974517 0.259829
H94   H     H_    0.625368 0.771937 0.015335 0.250654
H95   H     H_    0.530241 0.662038 0.054457 0.230633
H96   H     H_    0.984855 0.250155 0.743876 0.251595
H97   H     H_    0.574233 0.701046 0.139926 0.214568
H98   H     H_    0.685898 0.603428 0.136305 0.209989
H99   H     H_    0.646298 0.561192 0.053450 0.205977
H100  H     H_    0.250287 0.376184 0.616748 0.297667
H101  H     H_    0.224862 0.323695 0.709563 0.256355
H102  H     H_    0.160639 0.402350 0.681501 0.230771
H103  H     H_    0.255402 0.437919 0.783928 0.229403
H104  H     H_    0.280841 0.492818 0.694334 0.237237
H105  H     H_    0.394160 0.399929 0.657201 0.303178
H106  H     H_    0.378478 0.348914 0.745691 0.171292
N1    N     N_R   0.500020 0.500030 0.707230 -0.133511
N2    N     N_R   0.499980 0.499970 0.292770 -0.126398
O1    O     O_R   0.500000 0.389130 0.566570 -0.632149
O2    O     O_3   0.925262 0.636230 0.531789 -0.768055
O3    O     O_3   0.614543 0.589008 0.693005 -0.722392
O4    O     O_3   0.368103 0.431823 0.304481 -0.725908
O5    O     O_3   0.614945 0.735627 0.405743 -0.794834
O6    O     O_3   0.381361 0.271129 0.590063 -0.811690
O7    O     O_R   0.500000 0.610870 0.433430 -0.638348
O8    O     O_R   0.499990 0.389100 0.433480 -0.606143
O9    O     O_R   0.500010 0.610900 0.566520 -0.580261
O10   O     O_R   0.376780 0.500010 0.566530 -0.660256
O11   O     O_R   0.623220 0.499990 0.433470 -0.659098
O12   O     O_R   0.376780 0.499980 0.433450 -0.542466
O13   O     O_R   0.623220 0.500020 0.566550 -0.554850
O14   O     O_3   0.074757 0.367171 0.470159 -0.772396
Zn1   Zn    Zn3+2 0.500000 0.500020 0.588860 0.977809
Zn2   Zn    Zn3+2 0.500000 0.499980 0.411140 0.971138

loop_
_geom_bond_atom_site_label_1
_geom_bond_atom_site_label_2
_ccdc_geom_bond_type
C25   C31   S    
C23   C58   S    
C83   H3    S    
C42   H17   S    
C34   C56   A    
O1    Zn1   S    
C22   C29   S    
C34   C37   A    
C41   C42   S    
H67   O5    S    
C1    O1    A    
C43   H14   S    
C70   H79   S    
C57   H44   S    
C81   C82   S    
C53   H36   S    
C27   C33   T    
C26   C32   S    
C5    C6    T    
C16   O12   A    
C13   N2    A    
C22   C32   S    
C23   C45   A    
C77   H106  S    
C72   H88   S    
C57   H45   S    
C19   C21   S    
C1    C56   S    
C43   H15   S    
C15   C19   A    
C65   H72   S    
C76   H94   S    
C53   H38   S    
C7    C71   S    
C66   H71   S    
C11   C14   A    
C54   H50   S    
C56   C78   A    
C41   H18   S    
C50   H31   S    
C46   C47   S    
C17   O11   A    
C14   C18   A    
C64   C84   S    
C40   H96   S    
C81   H8    S    
C49   H33   S    
O12   Zn2   S    
C28   C35   T    
C68   C69   S    
C47   H21   S    
C22   C25   S    
C46   H24   S    
C38   H11   S    
C45   C67   A    
C80   H101  S    
C69   H80   S    
H41   O2    S    
C73   H87   S    
C75   H95   S    
C61   H66   S    
C11   N1    A    
C60   H53   S    
C47   H22   S    
C16   C27   S    
C77   C79   S    
C83   H4    S    
C59   C60   S    
O8    Zn2   S    
C62   H64   S    
C24   C41   S    
N2    Zn2   S    
C30   C44   S    
C61   C62   S    
C73   H84   S    
C16   O10   A    
C70   H78   S    
C50   H28   S    
C40   H85   S    
C44   C46   S    
C48   H35   S    
C24   C30   S    
O13   Zn1   S    
C83   H5    S    
C8    C19   A    
C74   C75   S    
C29   C48   S    
C51   C52   S    
C32   C35   S    
C57   H46   S    
C76   H92   S    
H52   O3    S    
C4    C6    S    
C76   H93   S    
C79   H104  S    
C39   C40   S    
C66   H70   S    
C80   H102  S    
C11   O3    S    
C48   H34   S    
C74   H99   S    
C3    C5    S    
C58   C59   S    
C72   H89   S    
C54   H49   S    
C13   O4    S    
C34   C61   S    
C10   N2    A    
C82   H7    S    
H30   O14   S    
C2    C68   S    
C2    C4    A    
C75   C76   S    
C44   H27   S    
C39   H10   S    
C62   C63   S    
C2    C78   A    
C42   H16   S    
C81   H9    S    
C58   H58   S    
C55   H48   S    
C59   H55   S    
C63   H60   S    
C7    C18   A    
C64   H76   S    
C8    C74   S    
O9    Zn1   S    
H68   O6    S    
H63   O4    S    
N1    Zn1   S    
C12   O9    A    
C4    C37   A    
C60   H51   S    
C44   H26   S    
C36   C51   S    
C79   H103  S    
C74   H98   S    
C37   C54   S    
C65   H73   S    
C48   C49   S    
C82   C83   S    
C47   H23   S    
O10   Zn1   S    
C13   C15   A    
C49   C50   S    
C1    O8    A    
C42   C43   S    
C25   O14   S    
C75   H97   S    
C70   H77   S    
C52   C53   S    
C40   H74   S    
C25   C30   S    
C7    C9    A    
C54   C55   S    
C31   C33   S    
C59   H56   S    
C17   C28   S    
C51   H42   S    
C43   H13   S    
C14   H1    S    
C24   C26   S    
C72   C73   S    
C67   O5    S    
C66   H69   S    
C71   H90   S    
C26   O2    S    
C12   C45   S    
C23   C36   A    
O11   Zn2   S    
C10   C81   S    
C55   H47   S    
C82   H6    S    
C41   H20   S    
C50   H29   S    
C51   H43   S    
C64   C65   S    
C55   C57   S    
C9    C77   S    
C24   C31   S    
C77   H105  S    
C71   C72   S    
C29   C31   S    
C53   H37   S    
C30   C32   S    
C52   H40   S    
C58   H57   S    
C38   C39   S    
C3    C36   A    
C64   H75   S    
C17   O13   A    
O7    Zn2   S    
C52   H39   S    
C12   O7    A    
C71   H91   S    
C18   C20   S    
C80   H100  S    
C69   C70   S    
C69   H81   S    
C79   C80   S    
C68   H83   S    
C67   C84   A    
C49   H32   S    
C20   C21   T    
C26   C29   S    
C8    C10   A    
C65   C66   S    
C62   H62   S    
C46   H25   S    
C38   H12   S    
C3    C84   A    
C63   H59   S    
C78   O6    S    
C39   H2    S    
C15   H19   S    
C73   H86   S    
C9    N1    A    
C61   H65   S    
C63   H61   S    
C60   H54   S    
C22   C38   S    
C68   H82   S    
