data_mof_unit_17650.cif
_audit_creation_date              2012-12-10T16:54:07-0500
_audit_creation_method            fapswitch 2.2
_symmetry_space_group_name_H-M    P1
_symmetry_Int_Tables_number       1
_space_group_crystal_system       triclinic
_cell_length_a                    9.677145
_cell_length_b                    10.936354
_cell_length_c                    13.527284
_cell_angle_alpha                 90.04185
_cell_angle_beta                  72.837564
_cell_angle_gamma                 90.004886
_cell_volume                      1367.88086145

loop_
_atom_site_label
_atom_site_type_symbol
_atom_type_description
_atom_site_fract_x
_atom_site_fract_y
_atom_site_fract_z
_atom_type_partial_charge
C1    C     C_R   0.500457 0.734689 0.498783 0.837809
C2    C     C_R   0.449660 0.473519 0.972283 0.010200
C3    C     C_R   0.477765 0.520438 0.870472 0.018477
C4    C     C_R   0.551013 0.500271 0.027316 -0.022456
C5    C     C_R   0.689902 0.545971 0.973869 0.083412
C6    C     C_R   0.715375 0.591128 0.874096 -0.203302
C7    C     C_R   0.605890 0.588233 0.827175 -0.160410
C8    C     C_R   0.513272 0.495849 0.135424 0.609362
C9    C     C_R   0.762882 0.532553 0.129864 -0.284372
C10   C     C_R   0.379247 0.495769 0.813546 -0.102855
C11   C     C_2   0.614292 0.066959 0.497940 -0.155361
C12   C     C_R   0.423117 0.504261 0.699867 0.797221
C13   C     C_2   0.494928 0.133355 0.506574 -0.311315
C14   C     C_2   0.612340 0.933031 0.502647 -0.159480
C15   C     C_2   0.500329 0.866629 0.493587 -0.310280
C16   C     C_2   0.053990 0.572238 0.558188 -0.066664
C17   C     C_2   0.900145 0.576840 0.553783 -0.055686
C18   C     C_R   0.499381 0.265306 0.501266 0.855928
C19   C     C_R   0.576779 0.501461 0.300217 0.846506
C20   C     C_R   0.796864 0.556293 0.024277 -0.202353
C21   C     C_R   0.619533 0.507373 0.186860 -0.185473
C22   C     C_R   0.246196 0.441383 0.863013 -0.268170
C23   C     C_R   0.220222 0.391386 0.960873 -0.292664
C24   C     C_R   0.326811 0.396263 0.013331 0.573888
Cu1   Cu    Cu3+1 0.361370 0.499980 0.499980 0.976738
Cu2   Cu    Cu3+1 0.638630 0.500020 0.500020 0.941301
H1    H     H_    0.845921 0.543425 0.168052 0.187505
H2    H     H_    0.389251 0.092389 0.520010 0.145944
H3    H     H_    0.707822 0.888348 0.512258 0.163671
H4    H     H_    0.405910 0.907576 0.479883 0.149166
H5    H     H_    0.083438 0.633892 0.611505 0.143582
H6    H     H_    0.127741 0.446908 0.447051 0.203818
H7    H     H_    0.830501 0.647290 0.598687 0.135986
H8    H     H_    0.909663 0.431045 0.462202 0.190815
H9    H     H_    0.816542 0.636179 0.835016 0.131072
H10   H     H_    0.905062 0.586756 0.982879 0.157416
H11   H     H_    0.166925 0.426066 0.822046 0.182977
H12   H     H_    0.119439 0.342793 0.990535 0.152110
H13   H     H_    0.623997 0.639316 0.756260 0.151348
H14   H     H_    0.717628 0.111639 0.488643 0.165177
N1    N     N_2   0.152660 0.501340 0.501130 -0.270701
N2    N     N_2   0.846520 0.501370 0.501160 -0.278262
O1    O     O_R   0.382960 0.678040 0.499980 -0.579225
O2    O     O_R   0.617100 0.678080 0.500020 -0.582894
O3    O     O_R   0.325800 0.499940 0.650950 -0.584665
O4    O     O_R   0.559930 0.499980 0.650990 -0.577212
O5    O     O_R   0.382900 0.321920 0.499980 -0.580308
O6    O     O_R   0.617040 0.321960 0.500020 -0.579285
O7    O     O_R   0.440070 0.500020 0.349010 -0.502858
O8    O     O_R   0.674200 0.500060 0.349050 -0.590317
F1    F     F_    0.370950 0.499271 0.190505 -0.646097
O9    O     O_3   0.327420 0.319181 0.096091 -0.567796
C25   C     C_3   0.199504 0.251708 0.141165 0.103697
H15   H     H_    0.226257 0.181130 0.191587 0.166492
H16   H     H_    0.162723 0.198692 0.083604 0.110115
C26   C     C_3   0.080495 0.331888 0.210693 -0.767496
H17   H     H_    0.982779 0.275648 0.245705 0.190154
H18   H     H_    0.118084 0.371753 0.273704 0.268663
H19   H     H_    0.050801 0.407404 0.166339 0.237409

loop_
_geom_bond_atom_site_label_1
_geom_bond_atom_site_label_2
_ccdc_geom_bond_type
C24   O9    S    
C2    C4    A    
C23   C24   A    
C13   H2    S    
C6    C7    A    
C1    C15   S    
C23   H12   S    
C6    H9    S    
C19   O7    A    
C9    C20   A    
H8    N2    S    
C26   H19   S    
Cu2   O6    S    
C4    C8    A    
C18   O5    A    
Cu1   O1    S    
C25   H16   S    
C2    C3    A    
Cu2   O2    S    
C3    C10   A    
C25   H15   S    
C10   C22   A    
C16   H5    S    
C11   C13   D    
C8    F1    S    
C9    C21   A    
C5    C6    A    
C17   H7    S    
C13   C18   S    
C10   C12   S    
C19   C21   S    
C26   H18   S    
C8    C21   A    
C3    C7    A    
C19   O8    A    
Cu2   O8    S    
Cu2   N2    S    
C2    C24   A    
C11   H14   S    
C11   C14   S    
Cu1   O7    S    
C16   C17   S    
C26   H17   S    
Cu2   O4    S    
C14   H3    S    
C20   H10   S    
Cu1   O3    S    
O9    C25   S    
C9    H1    S    
C15   H4    S    
C12   O4    A    
H6    N1    S    
C25   C26   S    
Cu1   N1    S    
C5    C20   A    
Cu1   O5    S    
C14   C15   D    
C4    C5    A    
C7    H13   S    
C1    O2    A    
Cu1   Cu2   S    
C17   N2    D    
C22   H11   S    
C16   N1    D    
C1    O1    A    
C22   C23   A    
C12   O3    A    
C18   O6    A    
