data_mof_unit_22320.cif
_audit_creation_date              2013-03-05T16:00:54-0500
_audit_creation_method            fapswitch 2.2
_symmetry_space_group_name_H-M    P1
_symmetry_Int_Tables_number       1
_space_group_crystal_system       triclinic
_cell_length_a                    19.231746
_cell_length_b                    22.820341
_cell_length_c                    14.264553
_cell_angle_alpha                 89.645421
_cell_angle_beta                  91.353041
_cell_angle_gamma                 89.856627
_cell_volume                      6258.46839045

loop_
_atom_site_label
_atom_site_type_symbol
_atom_site_description
_atom_site_fract_x
_atom_site_fract_y
_atom_site_fract_z
_atom_type_partial_charge
O1    O     O_R   0.066090 0.433930 0.580280 -0.572322
O2    O     O_R   0.933910 0.566070 0.419720 -0.569468
O3    O     O_R   0.933910 0.566070 0.580280 -0.552797
O4    O     O_R   0.066090 0.433930 0.419720 -0.551547
O5    O     O_R   0.933910 0.433930 0.419720 -0.558612
O6    O     O_R   0.066090 0.566070 0.580280 -0.556138
O7    O     O_R   0.066090 0.566070 0.419720 -0.569062
O8    O     O_R   0.933910 0.433930 0.580280 -0.566994
O9    O     O_R   0.566090 0.933930 0.580280 -0.571539
O10   O     O_R   0.433910 0.066070 0.419720 -0.569890
O11   O     O_R   0.433910 0.066070 0.580280 -0.552216
O12   O     O_R   0.566090 0.933930 0.419720 -0.552913
O13   O     O_R   0.433910 0.933930 0.419720 -0.557876
O14   O     O_R   0.566090 0.066070 0.580280 -0.558603
O15   O     O_R   0.566090 0.066070 0.419720 -0.567234
O16   O     O_R   0.433910 0.933930 0.580280 -0.567037
C1    C     C_R   0.087047 0.414152 0.500773 0.897647
C2    C     C_R   0.912774 0.585725 0.499226 0.897957
C3    C     C_R   0.912500 0.414386 0.499588 0.903078
C4    C     C_R   0.087627 0.585503 0.500461 0.901700
C5    C     C_R   0.587124 0.914205 0.500787 0.897177
C6    C     C_R   0.412912 0.085827 0.499224 0.899686
C7    C     C_R   0.412559 0.914342 0.499568 0.902547
C8    C     C_R   0.587511 0.085609 0.500455 0.903148
Zn1   Zn    Zn3+2 0.000000 0.500000 0.607200 1.113582
Zn2   Zn    Zn3+2 0.000000 0.500000 0.392800 1.113849
Zn3   Zn    Zn3+2 0.500000 0.000000 0.607200 1.113884
Zn4   Zn    Zn3+2 0.500000 0.000000 0.392800 1.114529
C9    C     C_R   0.114291 0.686001 0.462676 -0.195308
C10   C     C_R   0.884718 0.314740 0.541907 -0.197565
C11   C     C_R   0.890753 0.689695 0.500746 -0.181742
C12   C     C_R   0.109024 0.310107 0.501408 -0.186906
C13   C     C_R   0.614385 0.185941 0.460970 -0.194383
C14   C     C_R   0.385793 0.814010 0.539063 -0.197340
C15   C     C_R   0.390871 0.189861 0.499049 -0.180882
C16   C     C_R   0.609020 0.810178 0.499958 -0.183356
C17   C     C_R   0.135853 0.632907 0.500871 -0.032688
C18   C     C_R   0.864211 0.367009 0.499681 -0.060389
C19   C     C_R   0.864812 0.633212 0.497682 -0.035953
C20   C     C_R   0.134938 0.366637 0.502384 -0.038442
C21   C     C_R   0.635540 0.133179 0.500926 -0.056850
C22   C     C_R   0.364475 0.866820 0.499426 -0.058294
C23   C     C_R   0.364977 0.133329 0.497618 -0.038299
C24   C     C_R   0.634994 0.866665 0.502475 -0.037114
C25   C     C_R   0.202988 0.624727 0.537540 -0.131050
C26   C     C_R   0.797531 0.374758 0.461281 -0.069023
C27   C     C_R   0.793783 0.621793 0.495942 -0.094458
C28   C     C_R   0.205907 0.378100 0.502336 -0.093944
C29   C     C_R   0.702001 0.125614 0.540137 -0.078705
C30   C     C_R   0.297407 0.874781 0.462532 -0.071290
C31   C     C_R   0.293989 0.121858 0.497038 -0.093812
C32   C     C_R   0.706007 0.878048 0.504495 -0.095217
C33   C     C_R   0.250120 0.671258 0.539180 -0.025850
C34   C     C_R   0.749877 0.328675 0.462344 -0.021936
C35   C     C_R   0.746222 0.668101 0.496931 -0.018612
C36   C     C_R   0.253490 0.331813 0.502000 -0.019082
C37   C     C_R   0.748720 0.172370 0.542532 -0.006871
C38   C     C_R   0.250000 0.828502 0.463046 -0.020756
C39   C     C_R   0.246389 0.168144 0.497676 0.001777
C40   C     C_R   0.753544 0.831718 0.504206 -0.016958
C41   C     C_R   0.227387 0.726078 0.501642 0.042307
C42   C     C_R   0.771793 0.274467 0.502634 0.019413
C43   C     C_R   0.772696 0.726111 0.500024 0.021561
C44   C     C_R   0.227101 0.273758 0.500756 0.021227
C45   C     C_R   0.726598 0.226714 0.502868 0.027411
C46   C     C_R   0.272549 0.773871 0.501248 0.017840
C47   C     C_R   0.272786 0.226193 0.499497 0.024522
C48   C     C_R   0.727069 0.773712 0.501300 0.022471
C49   C     C_R   0.159480 0.732972 0.463340 0.078581
C50   C     C_R   0.839131 0.268023 0.542878 0.095608
C51   C     C_R   0.845055 0.736532 0.501757 0.080424
C52   C     C_R   0.154767 0.263274 0.500447 0.103834
C53   C     C_R   0.659359 0.233107 0.462216 0.077197
C54   C     C_R   0.340465 0.767077 0.539296 0.084823
C55   C     C_R   0.345121 0.236686 0.499866 0.078093
C56   C     C_R   0.654711 0.763312 0.499472 0.078927
C57   C     C_R   0.318986 0.665093 0.576114 0.339306
C58   C     C_R   0.681355 0.334819 0.424747 0.431766
C59   C     C_R   0.673437 0.658532 0.494987 0.429703
C60   C     C_R   0.326218 0.341487 0.502542 0.432433
C61   C     C_R   0.816633 0.166722 0.582480 0.351811
C62   C     C_R   0.181098 0.834882 0.426964 0.423463
C63   C     C_R   0.173638 0.158489 0.496502 0.391248
C64   C     C_R   0.826310 0.841291 0.506501 0.422912
C65   C     C_R   0.860808 0.214925 0.582460 -0.249393
C66   C     C_R   0.136915 0.786696 0.426945 -0.243588
C67   C     C_R   0.128734 0.206361 0.498270 -0.257887
C68   C     C_R   0.871165 0.793398 0.505026 -0.227394
C69   C     C_R   0.363000 0.713450 0.575965 -0.210325
C70   C     C_R   0.637235 0.286560 0.424285 -0.240521
C71   C     C_R   0.628600 0.706447 0.496482 -0.232148
C72   C     C_R   0.371141 0.293616 0.501394 -0.224110
H1    H     H_    0.061974 0.690674 0.433342 0.131760
H2    H     H_    0.936628 0.310414 0.572755 0.134706
H3    H     H_    0.946508 0.696905 0.503009 0.119862
H4    H     H_    0.053266 0.302862 0.500498 0.119322
H5    H     H_    0.562538 0.190233 0.429942 0.135007
H6    H     H_    0.438081 0.809469 0.568544 0.133257
H7    H     H_    0.446619 0.197120 0.500210 0.120098
H8    H     H_    0.553262 0.802990 0.497645 0.119946
H9    H     H_    0.217530 0.581761 0.562781 0.191998
H10   H     H_    0.783562 0.416932 0.432051 0.212793
H11   H     H_    0.776857 0.576737 0.494583 0.183657
H12   H     H_    0.222753 0.423193 0.501921 0.178262
H13   H     H_    0.716536 0.082996 0.567030 0.211989
H14   H     H_    0.282969 0.917296 0.434990 0.210219
H15   H     H_    0.277157 0.076760 0.496811 0.184977
H16   H     H_    0.722931 0.923108 0.505490 0.183967
H17   H     H_    0.913119 0.210920 0.611776 0.193645
H18   H     H_    0.084145 0.791025 0.399380 0.201229
H19   H     H_    0.073000 0.199491 0.497137 0.184427
H20   H     H_    0.926914 0.800243 0.506803 0.209130
H21   H     H_    0.415934 0.709209 0.602951 0.196930
H22   H     H_    0.584855 0.290641 0.395245 0.201729
H23   H     H_    0.572847 0.699628 0.494694 0.209000
H24   H     H_    0.426869 0.300531 0.501834 0.209214
C73   C     C_R   0.937010 0.504687 0.797435 0.454732
C74   C     C_R   0.062992 0.495247 0.202539 0.451528
C75   C     C_R   0.062720 0.505092 0.801691 0.445350
C76   C     C_R   0.937328 0.494934 0.198247 0.448856
C77   C     C_R   0.436979 0.004621 0.797417 0.450911
C78   C     C_R   0.562976 0.995255 0.202538 0.450408
C79   C     C_R   0.562664 0.005041 0.801773 0.446420
C80   C     C_R   0.437303 0.994825 0.198306 0.445848
N1    N     N_R   0.000000 0.500000 0.750030 -0.219735
N2    N     N_R   0.000000 0.500000 0.249970 -0.219767
N3    N     N_R   0.500000 0.000000 0.750030 -0.221218
N4    N     N_R   0.500000 0.000000 0.249970 -0.220555
C81   C     C_R   0.062450 0.505799 0.902213 -0.173965
C82   C     C_R   0.937627 0.494046 0.097740 -0.171391
C83   C     C_R   0.937253 0.504975 0.898122 -0.167550
C84   C     C_R   0.062732 0.494772 0.101844 -0.174865
C85   C     C_R   0.562364 0.005767 0.902276 -0.179793
C86   C     C_R   0.437578 0.993867 0.097794 -0.152227
C87   C     C_R   0.437184 0.004844 0.898136 -0.132324
C88   C     C_R   0.562687 0.994748 0.101861 -0.178383
C89   C     C_R   0.999959 0.500737 0.949321 -0.043870
C90   C     C_R   0.000081 0.499072 0.050618 -0.048986
C91   C     C_R   0.499880 0.000637 0.949357 -0.043508
C92   C     C_R   0.500013 0.998960 0.050653 -0.047196
C93   C     C_R   0.121920 0.515359 0.960662 0.404349
C94   C     C_R   0.878257 0.484092 0.039336 0.374868
C95   C     C_R   0.877579 0.513576 0.952907 0.388071
C96   C     C_R   0.122358 0.485963 0.047104 0.406267
C97   C     C_R   0.621792 0.015477 0.960732 0.405664
C98   C     C_R   0.378209 0.983872 0.039408 0.362042
C99   C     C_R   0.377482 0.013310 0.952938 0.302643
C100  C     C_R   0.622324 0.986037 0.047122 0.408845
S1    S     S_3+6 0.355121 0.597495 0.615610 0.113902
O17   O     O_2   0.424239 0.607233 0.664375 -0.188398
O18   O     O_2   0.307827 0.567202 0.682637 -0.189110
O19   O     O_3   0.367793 0.554991 0.521807 -0.458995
H25   H     H_    0.325442 0.559746 0.481668 0.347856
S2    S     S_3+6 0.647215 0.402434 0.383383 0.077840
O20   O     O_2   0.572051 0.396561 0.353567 -0.231069
O21   O     O_2   0.653166 0.445854 0.461672 -0.246790
O22   O     O_3   0.693059 0.425817 0.291667 -0.468264
H26   H     H_    0.671202 0.463523 0.272630 0.426616
S3    S     S_3+6 0.636064 0.588018 0.487474 0.080064
O23   O     O_2   0.658346 0.560403 0.397641 -0.274256
O24   O     O_2   0.661211 0.551524 0.569608 -0.246077
O25   O     O_3   0.548680 0.591822 0.487840 -0.490274
H27   H     H_    0.532832 0.550704 0.482128 0.423000
S4    S     S_3+6 0.363327 0.412207 0.506137 0.080002
O26   O     O_2   0.338889 0.446223 0.420968 -0.272955
O27   O     O_2   0.340005 0.442436 0.593288 -0.236290
O28   O     O_3   0.450737 0.408505 0.507753 -0.484103
H28   H     H_    0.466439 0.449797 0.509556 0.425591
S5    S     S_3+6 0.850857 0.099523 0.625638 0.089387
O29   O     O_2   0.922887 0.107021 0.667010 -0.263959
O30   O     O_2   0.804870 0.074781 0.699636 -0.151981
O31   O     O_3   0.853880 0.053032 0.535246 -0.483670
H29   H     H_    0.887103 0.070883 0.491466 0.380469
S6    S     S_3+6 0.146702 0.902624 0.386562 0.088798
O32   O     O_2   0.071605 0.896676 0.356446 -0.223745
O33   O     O_2   0.152335 0.945574 0.465541 -0.225062
O34   O     O_3   0.192606 0.926702 0.295332 -0.474427
H30   H     H_    0.169914 0.963961 0.275775 0.425436
S7    S     S_3+6 0.136496 0.087864 0.489135 0.087726
O35   O     O_2   0.159378 0.059968 0.399854 -0.237090
O36   O     O_2   0.161390 0.051293 0.571345 -0.255810
O37   O     O_3   0.049054 0.090916 0.487913 -0.495112
H31   H     H_    0.036671 0.097747 0.553950 0.383514
S8    S     S_3+6 0.863544 0.911849 0.513772 0.087286
O38   O     O_2   0.839175 0.947706 0.430512 -0.256089
O39   O     O_2   0.840222 0.940079 0.602627 -0.221246
O40   O     O_3   0.950958 0.908165 0.515222 -0.485931
H32   H     H_    0.966655 0.949450 0.517939 0.434536
S9    S     S_3+6 0.853350 0.517741 0.739529 0.114460
O41   O     O_2   0.796914 0.491775 0.797773 -0.257083
O42   O     O_2   0.842489 0.582893 0.733970 -0.225599
O43   O     O_3   0.838794 0.491906 0.631631 -0.547082
H33   H     H_    0.788463 0.497866 0.618561 0.392287
S10   S     S_3+6 0.146769 0.482506 0.260326 0.122420
O44   O     O_2   0.158035 0.417400 0.265739 -0.215342
O45   O     O_2   0.202960 0.508781 0.201928 -0.226131
O46   O     O_3   0.161284 0.508249 0.368292 -0.556591
H34   H     H_    0.211856 0.503356 0.380696 0.377489
S11   S     S_3+6 0.145946 0.518025 0.749241 0.128658
O47   O     O_2   0.155836 0.583156 0.742429 -0.212519
O48   O     O_2   0.202835 0.493063 0.811800 -0.210377
O49   O     O_3   0.159772 0.490683 0.643161 -0.564320
H35   H     H_    0.210743 0.485513 0.639588 0.393093
S12   S     S_3+6 0.854126 0.482079 0.250534 0.113081
O50   O     O_2   0.797356 0.506879 0.187619 -0.244677
O51   O     O_2   0.844491 0.416933 0.257585 -0.209894
O52   O     O_3   0.839922 0.509645 0.356335 -0.561711
H36   H     H_    0.788725 0.512091 0.361070 0.386432
S13   S     S_3+6 0.353289 0.017581 0.739490 0.113520
O53   O     O_2   0.296994 0.991275 0.797614 -0.291094
O54   O     O_2   0.342104 0.082700 0.734361 -0.202343
O55   O     O_3   0.338855 0.992082 0.631328 -0.547683
H37   H     H_    0.287895 0.994995 0.620104 0.392927
S14   S     S_3+6 0.646752 0.982515 0.260315 0.124532
O56   O     O_2   0.658021 0.917405 0.265617 -0.218376
O57   O     O_2   0.702941 0.008843 0.201980 -0.223653
O58   O     O_3   0.661267 0.008194 0.368320 -0.549237
H38   H     H_    0.711575 0.002126 0.381449 0.390472
S15   S     S_3+6 0.645779 0.018196 0.749427 0.127384
O59   O     O_2   0.655043 0.083383 0.742387 -0.219300
O60   O     O_2   0.702827 0.993632 0.812118 -0.208946
O61   O     O_3   0.659891 0.990642 0.643585 -0.563504
H39   H     H_    0.711066 0.987891 0.638929 0.396414
S16   S     S_3+6 0.354084 0.982026 0.250692 0.112853
O62   O     O_2   0.297313 0.006836 0.187785 -0.260514
O63   O     O_2   0.344351 0.916893 0.257856 -0.205656
O64   O     O_3   0.339935 0.009630 0.356495 -0.559406
H40   H     H_    0.288748 0.012066 0.361342 0.386219
S17   S     S_3+6 0.154600 0.587866 0.966602 0.126779
O65   O     O_2   0.227276 0.589391 0.930244 -0.149841
O66   O     O_2   0.108847 0.628843 0.909668 -0.232867
O67   O     O_3   0.156668 0.610349 0.078739 -0.532907
H41   H     H_    0.176099 0.650477 0.076624 0.408082
S18   S     S_3+6 0.846356 0.411314 0.033776 0.136835
O68   O     O_2   0.892239 0.370748 0.091231 -0.190969
O69   O     O_2   0.773760 0.409182 0.070505 -0.176414
O70   O     O_3   0.845067 0.387967 0.921986 -0.521184
H42   H     H_    0.795797 0.390463 0.900524 0.403941
S19   S     S_3+6 0.843223 0.585793 0.957151 0.125683
O71   O     O_2   0.839959 0.605682 0.057264 -0.253326
O72   O     O_2   0.888597 0.627395 0.904127 -0.233255
O73   O     O_3   0.762222 0.586853 0.910192 -0.425642
H43   H     H_    0.748573 0.628737 0.909016 0.399933
S20   S     S_3+6 0.156333 0.413742 0.042642 0.128709
O74   O     O_2   0.228979 0.412684 0.083787 -0.156397
O75   O     O_2   0.111233 0.372171 0.096140 -0.229229
O76   O     O_3   0.158977 0.391655 0.930468 -0.529464
H44   H     H_    0.179292 0.351743 0.933533 0.410422
S21   S     S_3+6 0.654125 0.088097 0.966772 0.127155
O77   O     O_2   0.726798 0.089903 0.930433 -0.148504
O78   O     O_2   0.608184 0.128947 0.909876 -0.232359
O79   O     O_3   0.656069 0.110524 0.078940 -0.532702
H45   H     H_    0.675268 0.150733 0.076875 0.408538
S22   S     S_3+6 0.346169 0.911143 0.034040 0.126015
O80   O     O_2   0.391985 0.870567 0.091574 -0.186428
O81   O     O_2   0.273574 0.909153 0.070794 -0.193230
O82   O     O_3   0.344811 0.887699 0.922305 -0.517458
H46   H     H_    0.295544 0.890265 0.900849 0.400500
S23   S     S_3+6 0.342867 0.085447 0.957352 0.139514
O83   O     O_2   0.339962 0.105712 0.057304 -0.250490
O84   O     O_2   0.387840 0.127194 0.904066 -0.185151
O85   O     O_3   0.261795 0.086836 0.910706 -0.408188
H47   H     H_    0.235162 0.059070 0.949543 0.380550
S24   S     S_3+6 0.656393 0.913850 0.042529 0.124873
O86   O     O_2   0.729027 0.912825 0.083714 -0.160138
O87   O     O_2   0.611328 0.872195 0.095918 -0.231463
O88   O     O_3   0.659104 0.891854 0.930312 -0.531469
H48   H     H_    0.679468 0.851959 0.933311 0.405676

loop_
_geom_bond_atom_site_label_1
_geom_bond_atom_site_label_2
_geom_bond_distance
_ccdc_geom_bond_type
C84   C96   1.417086 A    
S10   O45   1.503598 D    
O22   H26   0.990334 S    
C8    C21   1.427065 S    
O5    Zn2   2.015372 S    
O2    C2    1.296069 A    
S5    O29   1.503444 D    
C63   C67   1.391590 A    
S19   O71   1.503807 D    
C14   C22   1.385004 A    
C88   C92   1.397367 A    
S23   O85   1.680844 S    
C23   C31   1.390579 A    
S16   O62   1.504051 D    
C97   C100  1.399710 A    
S8    O38   1.503167 D    
C47   C55   1.412071 A    
C45   C53   1.411488 A    
C12   C52   1.382876 A    
C58   C70   1.391882 A    
C87   C91   1.397810 A    
C26   H10   1.077389 S    
C15   C55   1.382765 A    
S21   O77   1.502661 D    
S22   O80   1.503212 D    
C7    C22   1.426952 S    
S18   O69   1.503560 D    
C93   S17   1.773249 S    
C79   C85   1.433979 A    
C99   S23   1.776191 S    
C76   C82   1.434101 A    
C13   C53   1.382431 A    
C54   C69   1.392023 A    
C97   S21   1.773387 S    
S4    O26   1.502997 D    
C66   H18   1.083731 S    
C39   C63   1.416647 A    
C53   C70   1.392869 A    
C77   N3    1.405677 A    
S17   O67   1.682486 S    
C65   H17   1.083761 S    
S1    O18   1.501778 D    
S3    O23   1.502466 D    
C59   S3    1.766848 S    
S14   O57   1.503549 D    
S10   O46   1.669321 S    
C67   H19   1.083414 S    
O46   H34   0.990342 S    
C84   C90   1.397238 A    
C46   C54   1.410364 A    
S13   O55   1.669684 S    
C29   C37   1.396680 A    
S20   O74   1.502625 D    
O13   C7    1.297088 A    
O3    C2    1.293712 A    
C20   C28   1.390364 A    
O82   H46   0.990287 S    
Zn2   N2    2.037408 S    
O14   C8    1.296877 A    
S9    O42   1.502217 D    
Zn1   N1    2.037406 S    
S6    O32   1.503738 D    
C60   S4    1.766781 S    
S22   O81   1.503563 D    
C16   C56   1.382633 A    
C39   C47   1.420010 A    
O37   H31   0.990246 S    
Zn3   N3    2.037406 S    
C41   C46   1.395996 A    
C38   C46   1.420205 A    
C80   S16   1.805893 S    
S20   O75   1.503671 D    
S24   O86   1.502620 D    
C35   C43   1.420095 A    
S11   O49   1.667214 S    
S12   O50   1.504031 D    
S3    O24   1.503095 D    
O13   Zn4   2.015372 S    
C77   S13   1.814542 S    
O14   Zn3   2.015369 S    
S19   O73   1.681161 S    
C15   C23   1.384120 A    
S2    O21   1.500099 D    
C80   N4    1.403847 A    
S7    O37   1.682603 S    
C24   C32   1.390497 A    
O16   Zn3   2.007476 S    
C44   C52   1.412032 A    
S10   O44   1.502168 D    
S7    O36   1.503426 D    
C25   C33   1.397800 A    
S11   O47   1.501753 D    
C30   H14   1.077746 S    
O70   H42   0.990283 S    
C98   S22   1.773307 S    
O1    Zn1   2.014168 S    
O8    Zn1   2.007476 S    
S5    O30   1.501447 D    
C42   C50   1.411067 A    
O61   H39   0.989848 S    
C33   C41   1.421562 A    
C15   H7    1.085017 S    
C21   C29   1.392936 A    
C10   C50   1.382202 A    
O73   H43   0.990501 S    
C9    C49   1.381568 A    
C86   C98   1.417061 A    
C69   H21   1.083728 S    
S21   O78   1.503648 D    
O8    C3    1.295461 A    
C27   H11   1.079405 S    
O49   H35   0.989581 S    
C98   C99   1.400641 A    
O52   H36   0.989968 S    
C30   C38   1.397028 A    
C44   C47   1.395236 A    
C62   S6    1.767858 S    
C64   S8    1.766485 S    
C74   C84   1.436374 A    
C38   C62   1.416998 A    
S2    O22   1.679837 S    
S19   O72   1.503768 D    
S1    O19   1.679539 S    
C57   S1    1.773526 S    
O28   H28   0.990514 S    
C9    H1    1.085282 S    
S14   O56   1.502207 D    
C58   S2    1.767894 S    
C29   H13   1.077095 S    
C34   C42   1.419640 A    
S22   O82   1.684024 S    
O58   H38   0.990351 S    
C62   C66   1.391363 A    
C19   C27   1.390974 A    
O12   C5    1.293850 A    
O10   C6    1.295973 A    
S7    O35   1.501971 D    
C9    C17   1.384010 A    
S18   O70   1.684052 S    
C68   H20   1.083586 S    
C60   C72   1.391507 A    
S9    O43   1.669303 S    
C33   C57   1.420068 A    
C2    C19   1.421028 S    
S17   O65   1.502664 D    
C83   C89   1.397839 A    
C3    C18   1.427018 S    
C95   S19   1.775903 S    
S15   O60   1.504000 D    
C5    C24   1.420808 S    
C35   C59   1.416905 A    
C85   C97   1.417449 A    
C79   N3    1.403603 A    
O64   H40   0.989910 S    
C11   C19   1.383885 A    
S24   O87   1.503671 D    
O11   Zn3   1.999109 S    
O76   H44   0.990457 S    
C57   C69   1.392487 A    
C26   C34   1.396899 A    
C36   C44   1.419952 A    
S13   O53   1.503129 D    
S3    O25   1.682702 S    
C81   C89   1.395407 A    
C16   H8    1.084970 S    
C77   C87   1.436669 A    
C72   H24   1.083566 S    
S6    O34   1.680071 S    
C78   C88   1.436102 A    
S2    O20   1.503691 D    
C88   C100  1.416938 A    
C25   H9    1.076433 S    
C55   C72   1.393471 A    
C22   C30   1.392559 A    
O4    C1    1.293657 A    
C75   N1    1.404038 A    
C31   H15   1.079634 S    
O15   C8    1.296030 A    
C12   H4    1.085191 S    
S12   O51   1.501663 D    
C85   C91   1.395207 A    
O16   C7    1.295731 A    
C87   C99   1.417692 A    
C12   C20   1.384156 A    
C76   S12   1.805200 S    
S5    O31   1.676811 S    
C75   S11   1.806900 S    
C93   C96   1.399926 A    
C31   C39   1.396219 A    
S18   O68   1.503221 D    
C17   C25   1.393244 A    
S23   O83   1.503868 D    
C82   C90   1.394808 A    
S16   O64   1.667013 S    
S15   O59   1.501683 D    
C52   C67   1.393357 A    
C83   C95   1.417540 A    
O31   H29   0.990553 S    
O9    Zn3   2.014168 S    
C27   C35   1.396262 A    
O25   H27   0.990551 S    
O10   Zn4   2.014167 S    
C28   C36   1.395918 A    
C79   S15   1.805186 S    
C43   C48   1.395187 A    
C71   H23   1.083563 S    
S21   O79   1.682492 S    
C42   C45   1.395661 A    
C59   C71   1.391410 A    
S4    O28   1.682566 S    
C64   C68   1.391232 A    
C37   C45   1.419986 A    
C100  S24   1.773485 S    
S23   O84   1.503200 D    
S14   O58   1.669299 S    
S16   O63   1.501705 D    
O2    Zn2   2.014167 S    
C74   S10   1.814370 S    
O4    Zn2   1.999110 S    
C91   C92   1.445146 A    
S8    O40   1.682644 S    
O85   H47   0.990664 S    
O5    C3    1.297387 A    
C80   C86   1.434195 A    
C48   C56   1.411909 A    
O6    C4    1.296734 A    
C89   C90   1.445164 A    
O11   C6    1.293757 A    
O1    C1    1.295916 A    
C61   S5    1.768618 S    
C36   C60   1.416395 A    
S20   O76   1.682476 S    
C63   S7    1.767237 S    
O88   H48   0.990459 S    
C41   C49   1.411738 A    
O43   H33   0.990302 S    
C14   H6    1.085252 S    
S4    O27   1.502644 D    
C13   C21   1.384992 A    
O40   H32   0.990749 S    
S17   O66   1.503648 D    
S1    O17   1.503316 D    
S15   O61   1.666959 S    
C86   C92   1.394756 A    
C4    C17   1.426648 S    
C40   C64   1.416551 A    
O9    C5    1.295814 A    
O15   Zn4   2.007472 S    
C73   C83   1.436207 A    
O7    Zn2   2.007472 S    
S24   O88   1.682487 S    
C11   H3    1.084964 S    
C96   S20   1.773444 S    
C11   C51   1.382417 A    
O67   H41   0.990462 S    
C75   C81   1.434217 A    
S8    O39   1.502742 D    
S12   O52   1.666858 S    
C76   N2    1.403637 A    
C70   H22   1.083709 S    
C78   N4    1.405465 A    
S9    O41   1.503036 D    
C82   C94   1.417055 A    
C37   C61   1.417835 A    
S6    O33   1.500020 D    
C18   C26   1.392948 A    
C16   C24   1.383973 A    
C40   C48   1.419944 A    
O34   H30   0.990296 S    
C56   C71   1.393181 A    
C51   C68   1.393290 A    
O6    Zn1   2.015369 S    
C78   S14   1.814264 S    
C94   S18   1.773535 S    
O3    Zn1   1.999109 S    
C81   C93   1.417477 A    
O55   H37   0.991309 S    
O12   Zn4   1.999110 S    
C73   S9    1.814242 S    
C32   C40   1.396070 A    
O7    C4    1.295928 A    
C10   H2    1.085463 S    
S11   O48   1.504090 D    
S13   O54   1.502077 D    
C94   C95   1.400637 A    
C32   H16   1.079423 S    
C14   C54   1.382681 A    
O19   H25   0.989822 S    
C74   N2    1.405728 A    
C10   C18   1.385155 A    
C13   H5    1.085291 S    
C50   C65   1.392387 A    
C73   N1    1.405403 A    
C43   C51   1.412017 A    
C1    C20   1.420651 S    
C6    C23   1.420969 S    
C61   C65   1.391570 A    
C49   C66   1.392743 A    
Zn4   N4    2.037408 S    
O79   H45   0.990465 S    
C34   C58   1.417272 A    
C28   H12   1.079624 S    
