data_mof_unit_10565.cif
_audit_creation_date              2012-12-11T15:19:35-0500
_audit_creation_method            fapswitch 2.2
_symmetry_space_group_name_H-M    P1
_symmetry_Int_Tables_number       1
_space_group_crystal_system       triclinic
_cell_length_a                    19.967925
_cell_length_b                    6.882681
_cell_length_c                    18.185873
_cell_angle_alpha                 90.273015
_cell_angle_beta                  104.108675
_cell_angle_gamma                 89.606341
_cell_volume                      2423.87479689

loop_
_atom_site_label
_atom_site_type_symbol
_atom_type_description
_atom_site_fract_x
_atom_site_fract_y
_atom_site_fract_z
_atom_type_partial_charge
O1    O     O_R   0.312200 0.620210 0.189560 -0.539953
O2    O     O_R   0.687800 0.379790 0.810440 -0.543088
O3    O     O_R   0.187800 0.120210 0.310440 -0.529687
O4    O     O_R   0.812200 0.879790 0.689560 -0.529245
O5    O     O_R   0.171590 0.286140 0.165000 -0.534984
O6    O     O_R   0.828410 0.713860 0.835000 -0.534262
O7    O     O_R   0.328410 0.786140 0.335000 -0.538538
O8    O     O_R   0.671590 0.213860 0.665000 -0.538047
C1    C     C_R   0.145707 0.459690 0.143788 0.694532
C2    C     C_R   0.854284 0.540308 0.856224 0.696407
C3    C     C_R   0.354300 0.959374 0.356220 0.718218
C4    C     C_R   0.645696 0.040627 0.643786 0.718519
O9    O     O_R   0.310670 0.290220 0.180540 -0.517805
O10   O     O_R   0.689330 0.709780 0.819460 -0.518419
O11   O     O_R   0.189330 0.790220 0.319460 -0.560156
O12   O     O_R   0.810670 0.209780 0.680540 -0.559886
O13   O     O_R   0.327870 0.124170 0.326080 -0.529405
O14   O     O_R   0.672130 0.875830 0.673920 -0.529254
O15   O     O_R   0.172130 0.624170 0.173920 -0.534949
O16   O     O_R   0.827870 0.375830 0.826080 -0.535273
C5    C     C_R   0.331582 0.458909 0.164484 0.743528
C6    C     C_R   0.668202 0.541188 0.835223 0.746827
C7    C     C_R   0.169003 0.960689 0.336090 0.744122
C8    C     C_R   0.831141 0.039303 0.664067 0.745246
O17   O     O_3   0.255480 0.455050 0.297740 -0.371775
O18   O     O_3   0.744520 0.544950 0.702260 -0.370880
O19   O     O_3   0.244520 0.955050 0.202260 -0.356328
O20   O     O_3   0.755480 0.044950 0.797740 -0.358064
V1    V     V_3+5 0.248980 0.178550 0.241140 1.479247
V2    V     V_3+5 0.751020 0.821450 0.758860 1.474337
V3    V     V_3+5 0.251020 0.678550 0.258860 1.417158
V4    V     V_3+5 0.748980 0.321450 0.741140 1.411993
C9    C     C_R   0.936654 0.149952 0.627358 -0.297064
C10   C     C_R   0.063792 0.849489 0.373160 -0.295757
C11   C     C_R   0.566136 0.395312 0.869131 -0.260151
C12   C     C_R   0.431577 0.609711 0.128022 -0.227658
C13   C     C_R   0.879888 0.025171 0.614243 -0.175263
C14   C     C_R   0.120462 0.974549 0.386144 -0.175623
C15   C     C_R   0.619618 0.531353 0.885299 -0.182218
C16   C     C_R   0.379410 0.469619 0.113490 -0.193645
C17   C     C_R   0.871846 0.883041 0.556163 0.402228
C18   C     C_R   0.128721 0.116050 0.444483 0.402930
C19   C     C_R   0.626794 0.654315 0.949275 0.415915
C20   C     C_R   0.372793 0.344017 0.050271 0.445090
C21   C     C_R   0.917442 0.880209 0.506818 -0.085203
C22   C     C_R   0.083250 0.118440 0.493979 -0.086462
C23   C     C_R   0.577090 0.648886 0.993740 -0.084505
C24   C     C_R   0.421093 0.353618 0.004064 -0.086068
C25   C     C_R   0.975910 0.003539 0.522914 -0.033301
C26   C     C_R   0.024738 0.995270 0.477840 -0.034368
C27   C     C_R   0.522654 0.511207 0.975507 -0.046315
C28   C     C_R   0.473847 0.496624 0.020398 -0.049945
C29   C     C_R   0.985512 0.136245 0.583839 0.072875
C30   C     C_R   0.015103 0.862666 0.416881 0.073001
C31   C     C_R   0.518089 0.383914 0.913656 0.049993
C32   C     C_R   0.478709 0.623334 0.082566 0.081128
C33   C     C_R   0.906324 0.758808 0.441639 0.451151
C34   C     C_R   0.094536 0.239144 0.559361 0.458149
C35   C     C_R   0.580506 0.775108 0.056486 0.452871
C36   C     C_R   0.417775 0.225541 0.941815 0.490777
C37   C     C_R   0.956283 0.746058 0.399496 -0.262445
C38   C     C_R   0.044487 0.252280 0.601407 -0.266069
C39   C     C_R   0.531715 0.760214 0.099959 -0.241668
C40   C     C_R   0.466747 0.241916 0.898004 -0.294217
H1    H     H_    0.943920 0.254432 0.673439 0.126638
H2    H     H_    0.056460 0.745171 0.327017 0.127476
H3    H     H_    0.561658 0.298215 0.821034 0.141021
H4    H     H_    0.436310 0.706695 0.176198 0.136556
H5    H     H_    0.947976 0.646671 0.351731 0.136736
H6    H     H_    0.052847 0.351438 0.649245 0.135288
H7    H     H_    0.536232 0.855302 0.148613 0.133702
H8    H     H_    0.466052 0.139155 0.852557 0.133579
C41   C     C_1   0.583184 0.027829 0.581558 -0.188305
C42   C     C_1   0.416804 0.972174 0.418457 -0.188288
C43   C     C_1   0.916763 0.527108 0.918449 -0.201001
C44   C     C_1   0.083227 0.472887 0.081563 -0.200517
C45   C     C_1   0.530853 0.011067 0.530175 0.009121
C46   C     C_1   0.469132 0.988938 0.469845 0.009175
C47   C     C_1   0.969113 0.510711 0.969841 -0.000780
C48   C     C_1   0.030877 0.489281 0.030171 -0.000561
O21   O     O_3   0.817342 0.754487 0.545954 -0.545392
C49   C     C_3   0.842628 0.574451 0.578723 -0.067391
H9    H     H_    0.864785 0.587871 0.640824 0.101725
H10   H     H_    0.882218 0.510128 0.552113 0.134727
H11   H     H_    0.798971 0.471233 0.569459 0.160928
O22   O     O_3   0.183271 0.244465 0.454740 -0.545152
C50   C     C_3   0.158005 0.424785 0.422235 -0.068732
H12   H     H_    0.135414 0.411709 0.360199 0.101967
H13   H     H_    0.201759 0.527621 0.431156 0.159801
H14   H     H_    0.118788 0.489358 0.449330 0.134594
O23   O     O_3   0.681726 0.781795 0.967138 -0.534273
C51   C     C_3   0.739632 0.682309 0.011337 -0.142180
H15   H     H_    0.782671 0.786881 0.028682 0.153563
H16   H     H_    0.757352 0.564442 0.978402 0.082062
H17   H     H_    0.728811 0.621943 0.063938 0.134199
O24   O     O_3   0.319537 0.210790 0.034479 -0.520074
C52   C     C_3   0.259787 0.303414 0.990770 -0.141406
H18   H     H_    0.269034 0.367828 0.938095 0.114739
H19   H     H_    0.240373 0.417053 0.024127 0.087875
H20   H     H_    0.218587 0.193270 0.973549 0.148252
O25   O     O_3   0.847417 0.647801 0.419060 -0.541587
C53   C     C_3   0.799186 0.751365 0.363212 -0.164362
H21   H     H_    0.785785 0.893931 0.385290 0.142540
H22   H     H_    0.751030 0.665361 0.346753 0.160689
H23   H     H_    0.818487 0.772610 0.311346 0.115064
O26   O     O_3   0.153710 0.348986 0.582221 -0.537988
C54   C     C_3   0.201394 0.245070 0.638517 -0.192890
H24   H     H_    0.249778 0.330026 0.655195 0.155428
H25   H     H_    0.214553 0.101808 0.616797 0.142435
H26   H     H_    0.181713 0.225168 0.690208 0.105368
O27   O     O_3   0.634527 0.903330 0.080155 -0.542514
C55   C     C_3   0.612464 0.089036 0.051726 -0.157111
H27   H     H_    0.599299 0.088290 0.988739 0.166306
H28   H     H_    0.655519 0.192645 0.071176 0.148622
H29   H     H_    0.567988 0.142429 0.073177 0.114366
O28   O     O_3   0.370994 0.073221 0.929180 -0.517564
C56   C     C_3   0.332534 0.069362 0.852871 -0.227955
H30   H     H_    0.318073 0.217487 0.829540 0.103812
H31   H     H_    0.283794 0.990040 0.850040 0.158391
H32   H     H_    0.361079 0.988473 0.817040 0.130983

loop_
_geom_bond_atom_site_label_1
_geom_bond_atom_site_label_2
_ccdc_geom_bond_type
C34   C38   A    
C50   H12   S    
O18   V4    S    
O25   C53   S    
O19   V1    S    
O13   V1    S    
O3    C7    A    
O27   C55   S    
O15   V3    S    
C10   H2    S    
C55   H28   S    
C52   H18   S    
C9    H1    S    
C45   C46   S    
O1    C5    A    
C21   C33   A    
C26   C30   A    
C20   O24   S    
O9    V1    S    
O21   C49   S    
C14   C18   A    
C56   H31   S    
C18   C22   A    
C11   C15   A    
O4    C8    A    
O26   C54   S    
O1    V3    S    
O28   C56   S    
C38   H6    S    
C53   H23   S    
O2    V4    S    
C29   C38   A    
C33   C37   A    
O3    V1    S    
C12   C16   A    
C1    O15   A    
C2    O16   A    
O2    C6    A    
C35   O27   S    
C54   H24   S    
C18   O22   S    
C1    C44   S    
C21   C25   A    
C16   C20   A    
O11   C7    A    
O12   C8    A    
C4    C41   S    
C22   C34   A    
O17   V1    S    
C54   H25   S    
O10   V2    S    
C55   H27   S    
C52   H19   S    
C24   C36   A    
O5    V1    S    
C31   C40   A    
C9    C29   A    
O7    V3    S    
C11   C31   A    
C27   C28   A    
O8    V4    S    
O20   V4    S    
C56   H32   S    
O23   C51   S    
O22   C50   S    
C15   C19   A    
O19   V3    S    
C49   H9    S    
C51   H17   S    
C19   O23   S    
C34   O26   S    
O7    C3    A    
O5    C1    A    
C12   C32   A    
C2    C43   S    
C11   H3    S    
O8    C4    A    
C17   O21   S    
O24   C52   S    
C51   H16   S    
C8    C13   S    
C32   C39   A    
O9    C5    A    
C53   H22   S    
O14   V2    S    
O6    V2    S    
C39   H7    S    
C10   C30   A    
C49   H10   S    
C50   H13   S    
C54   H26   S    
C36   O28   S    
C7    C14   S    
C52   H20   S    
O16   V4    S    
C37   H5    S    
C3    O13   A    
C17   C21   A    
C10   C14   A    
O17   V3    S    
C44   C48   T    
C3    C42   S    
O6    C2    A    
C23   C27   A    
C12   H4    S    
O11   V3    S    
C30   C37   A    
O12   V4    S    
C49   H11   S    
C33   O25   S    
C22   C26   A    
C35   C39   A    
C36   C40   A    
O10   C6    A    
O20   V2    S    
C56   H30   S    
C5    C16   S    
C19   C23   A    
C25   C29   A    
C6    C15   S    
C51   H15   S    
C27   C31   A    
C40   H8    S    
C13   C17   A    
C53   H21   S    
C9    C13   A    
C23   C35   A    
C47   C48   S    
C28   C32   A    
C24   C28   A    
C25   C26   A    
C42   C46   T    
C50   H14   S    
C4    O14   A    
C41   C45   T    
C43   C47   T    
C55   H29   S    
O4    V2    S    
C20   C24   A    
O18   V2    S    
