data_mof_unit_25637.cif
_audit_creation_date              2012-10-26T20:37:57-0400
_audit_creation_method            fapswitch 2.2
_symmetry_space_group_name_H-M    P1
_symmetry_Int_Tables_number       1
_space_group_crystal_system       triclinic
_cell_length_a                    9.952435
_cell_length_b                    11.191314
_cell_length_c                    13.106055
_cell_angle_alpha                 89.11774
_cell_angle_beta                  74.848785
_cell_angle_gamma                 111.018136
_cell_volume                      1305.58962325

loop_
_atom_site_label
_atom_site_type_symbol
_atom_type_description
_atom_site_fract_x
_atom_site_fract_y
_atom_site_fract_z
_atom_type_partial_charge
C1    C     C_R   0.441237 0.255078 0.505146 0.583079
C2    C     C_R   0.692098 0.531687 0.999355 -0.030217
C3    C     C_R   0.319429 0.371353 0.885951 0.233062
C4    C     C_R   0.675223 0.498467 0.107194 0.182678
C5    C     C_R   0.569187 0.539429 0.858620 -0.057100
C6    C     C_R   0.405421 0.445984 0.146363 -0.060526
C7    C     C_R   0.562260 0.506265 0.964326 -0.043799
C8    C     C_R   0.419580 0.438393 0.036784 -0.052038
C9    C     C_2   0.411737 0.117281 0.514263 -0.082508
C10   C     C_2   0.592372 0.881452 0.485557 -0.096826
C11   C     C_2   0.523207 0.070486 0.495109 -0.051640
C12   C     C_R   0.559349 0.744348 0.494783 0.552132
C13   C     C_2   0.487618 0.932313 0.524192 -0.051479
C14   C     C_1   0.258775 0.426861 0.217708 0.263289
C15   C     C_1   0.689798 0.654218 0.795714 0.232966
C16   C     C_1   0.157665 0.276481 0.067175 0.350213
C17   C     C_1   0.841099 0.577142 0.924303 0.303363
C18   C     C_1   0.342458 0.855223 0.598433 0.254288
C19   C     C_1   0.680057 0.152136 0.444224 0.275526
C20   C     C_1   0.808919 0.402943 0.599587 0.285490
C21   C     C_1   0.199653 0.623346 0.420692 0.294534
C22   C     C_1   0.960570 0.666381 0.383063 0.425791
C23   C     C_2   0.085262 0.516607 0.495301 0.057471
C24   C     C_1   0.040701 0.314909 0.579399 0.435969
C25   C     C_2   0.919417 0.495205 0.511593 0.060933
C26   C     C_R   0.470713 0.489277 0.702711 0.582379
C27   C     C_R   0.525093 0.495100 0.297511 0.555107
C28   C     C_R   0.535768 0.480066 0.182952 -0.025095
C29   C     C_R   0.450282 0.468461 0.817788 -0.013883
C30   C     C_R   0.298209 0.366138 0.996716 -0.007110
Cu1   Cu    Cu3+1 0.647370 0.522180 0.481340 1.095423
Cu2   Cu    Cu3+1 0.352630 0.477820 0.518660 1.093077
H1    H     H_    0.705455 0.940806 0.438458 0.127608
H2    H     H_    0.294761 0.052939 0.544168 0.138094
H3    H     H_    0.841304 0.325128 0.030732 0.360095
H4    H     H_    0.011667 0.063509 0.883191 0.383473
N1    N     N_2   0.131210 0.444490 0.546730 -0.290585
N2    N     N_1   0.290911 0.708305 0.359874 -0.258528
N3    N     N_1   0.034716 0.759303 0.324706 -0.232971
N4    N     N_1   0.966693 0.206881 0.606308 -0.240663
N5    N     N_2   0.868790 0.555510 0.453270 -0.282600
N6    N     N_1   0.140961 0.410967 0.273539 -0.213363
N7    N     N_1   0.785293 0.745773 0.745454 -0.240829
N8    N     N_1   0.045507 0.204978 0.123490 -0.168793
N9    N     N_1   0.960095 0.613196 0.864624 -0.170231
N10   N     N_1   0.227077 0.794216 0.657420 -0.224310
N11   N     N_1   0.804911 0.215585 0.403894 -0.208812
N12   N     N_1   0.721415 0.328736 0.670273 -0.252118
O1    O     O_R   0.578710 0.332530 0.490040 -0.487784
O2    O     O_2   0.756855 0.361998 0.236182 -0.257160
O3    O     O_3   0.915836 0.407996 0.040019 -0.472926
O4    O     O_2   0.078815 0.310098 0.811874 -0.253190
O5    O     O_2   0.266470 0.218249 0.732521 -0.282523
O6    O     O_3   0.087295 0.116342 0.917393 -0.500035
O7    O     O_R   0.421290 0.667470 0.509960 -0.501019
O8    O     O_R   0.329810 0.295070 0.521560 -0.478703
O9    O     O_R   0.670190 0.704930 0.478440 -0.507832
O10   O     O_R   0.604230 0.515670 0.637800 -0.517386
O11   O     O_R   0.395770 0.484330 0.362200 -0.526028
O12   O     O_R   0.355330 0.478200 0.669330 -0.434998
O13   O     O_R   0.644670 0.521800 0.330670 -0.433012
O14   O     O_2   0.929115 0.584337 0.166250 -0.217299
S1    S     S_3+6 0.820844 0.463262 0.141444 0.052424
S2    S     S_3+6 0.185988 0.253587 0.833742 0.047455

loop_
_geom_bond_atom_site_label_1
_geom_bond_atom_site_label_2
_ccdc_geom_bond_type
C3    C30   A    
C2    C4    A    
O14   S1    D    
C23   N1    D    
C6    C14   S    
C9    C11   D    
Cu1   O13   S    
Cu2   O7    S    
Cu1   Cu2   S    
O3    S1    S    
C14   N6    T    
C8    C30   A    
Cu1   O9    S    
C21   C23   S    
C24   N1    S    
C15   N7    T    
C7    C8    A    
C27   O11   A    
Cu2   N1    S    
C2    C17   S    
Cu2   O8    S    
O2    S1    D    
C11   C13   S    
C4    S1    S    
C11   C19   S    
C16   N8    T    
C20   N12   T    
C26   O12   A    
O6    S2    S    
C13   C18   S    
Cu1   O1    S    
C12   O9    A    
C10   C12   S    
Cu1   O10   S    
C24   N4    T    
C1    O8    A    
C17   N9    T    
C10   H1    S    
C5    C29   A    
C23   C25   S    
H3    O3    S    
C9    H2    S    
O5    S2    D    
C19   N11   T    
C5    C15   S    
C12   O7    A    
H4    O6    S    
C20   C25   S    
C22   N3    T    
C16   C30   S    
C22   N5    S    
C18   N10   T    
C1    C9    S    
C26   C29   S    
C3    C29   A    
O4    S2    D    
C25   N5    D    
C27   C28   S    
C5    C7    A    
Cu2   O12   S    
C6    C8    A    
Cu1   N5    S    
Cu2   O11   S    
C4    C28   A    
C3    S2    S    
C1    O1    A    
C26   O10   A    
C6    C28   A    
C21   N2    T    
C2    C7    A    
C10   C13   D    
C27   O13   A    
