data_mof_unit_61511.cif
_audit_creation_date              2012-12-10T19:49:04-0500
_audit_creation_method            fapswitch 2.2
_symmetry_space_group_name_H-M    P1
_symmetry_Int_Tables_number       1
_space_group_crystal_system       triclinic
_cell_length_a                    28.630809
_cell_length_b                    18.250926
_cell_length_c                    21.611598
_cell_angle_alpha                 89.967103
_cell_angle_beta                  140.430793
_cell_angle_gamma                 90.045
_cell_volume                      7193.68438122

loop_
_atom_site_label
_atom_site_type_symbol
_atom_type_description
_atom_site_fract_x
_atom_site_fract_y
_atom_site_fract_z
_atom_type_partial_charge
C1    C     C_R   0.858732 0.999982 0.859229 0.883141
C2    C     C_R   0.000018 0.141275 0.500039 0.939239
C3    C     C_R   0.499983 0.358723 0.499972 0.970558
C4    C     C_R   0.500017 0.641275 0.500028 0.910659
C5    C     C_R   0.001329 0.997917 0.622849 0.860724
C6    C     C_R   0.998675 0.997114 0.377169 0.901971
C7    C     C_R   0.501293 0.496709 0.622747 0.905516
C8    C     C_R   0.498694 0.496727 0.377233 0.914467
C9    C     C_R   0.499989 0.140783 0.499974 0.909818
C10   C     C_R   0.500010 0.859219 0.500025 0.913461
C11   C     C_R   0.999986 0.640782 0.499971 0.912629
C12   C     C_R   0.141273 0.000013 0.140863 0.995622
C13   C     C_R   0.000013 0.359218 0.500028 0.916672
C14   C     C_R   0.640808 0.999987 0.641457 0.908701
C15   C     C_R   0.359192 0.000005 0.358544 0.913235
C16   C     C_R   0.140807 0.499983 0.641454 0.912429
C17   C     C_R   0.859193 0.500002 0.358546 0.913786
C18   C     C_1   0.999951 0.782184 0.499916 -0.151329
C19   C     C_1   0.000049 0.217817 0.500093 -0.153461
C20   C     C_1   0.499954 0.282185 0.499920 -0.128850
C21   C     C_1   0.500046 0.717817 0.500080 -0.158978
C22   C     C_1   0.499962 0.217339 0.499922 -0.147505
C23   C     C_R   0.358725 0.499977 0.859083 0.946723
C24   C     C_1   0.500037 0.782664 0.500077 -0.148078
C25   C     C_1   0.999958 0.717338 0.499915 -0.151217
C26   C     C_1   0.000041 0.282663 0.500086 -0.144354
C27   C     C_R   0.997757 0.000122 0.876301 0.852432
C28   C     C_R   0.003084 0.000031 0.124539 0.804036
C29   C     C_R   0.498059 0.500097 0.876581 0.851077
C30   C     C_R   0.502035 0.500082 0.123537 0.917797
C31   C     C_3   0.946696 0.939771 0.730248 -0.200443
C32   C     C_3   0.021127 0.076786 0.239225 -0.201996
C33   C     C_3   0.053652 0.939216 0.270066 -0.136976
C34   C     C_R   0.641275 0.500011 0.140918 0.989263
C35   C     C_3   0.979352 0.077227 0.761124 -0.193628
C36   C     C_3   0.443480 0.442337 0.727374 -0.227078
C37   C     C_3   0.516775 0.577757 0.235105 -0.191369
C38   C     C_3   0.555517 0.441774 0.271722 -0.219097
C39   C     C_3   0.483144 0.577677 0.764758 -0.191884
C40   C     C_3   0.958040 0.932181 0.671145 -0.440351
C41   C     C_3   0.030340 0.068838 0.318952 -0.461767
C42   C     C_3   0.043800 0.932362 0.330622 -0.438059
C43   C     C_3   0.967513 0.068614 0.679282 -0.339382
C44   C     C_3   0.453414 0.434180 0.666800 -0.377323
C45   C     C_1   0.717391 0.999957 0.719171 -0.132673
C46   C     C_3   0.526745 0.569955 0.315519 -0.482709
C47   C     C_3   0.546432 0.434257 0.333059 -0.480681
C48   C     C_3   0.473311 0.569892 0.684456 -0.444993
C49   C     C_3   0.083256 0.980455 0.874626 -0.152857
C50   C     C_3   0.917409 0.980181 0.125856 -0.160832
C51   C     C_3   0.582160 0.475632 0.873169 -0.182338
C52   C     C_3   0.417424 0.476102 0.126373 -0.190414
C53   C     C_3   0.001178 0.000061 0.811686 -0.091130
C54   C     C_3   0.999585 0.999593 0.189106 -0.115944
C55   C     C_3   0.501201 0.499702 0.811639 -0.053327
C56   C     C_1   0.282609 0.000026 0.280844 -0.139645
C57   C     C_3   0.498549 0.499774 0.188131 -0.061979
C58   C     C_3   0.005123 0.997219 0.694789 0.001272
C59   C     C_3   0.994988 0.995940 0.305298 -0.003367
C60   C     C_3   0.504999 0.495429 0.694581 0.020663
C61   C     C_3   0.494914 0.495498 0.305314 0.056611
C62   C     C_3   0.087671 0.989967 0.805138 -0.156377
C63   C     C_3   0.912765 0.988069 0.195233 -0.103613
C64   C     C_3   0.586775 0.483709 0.803909 -0.166918
C65   C     C_3   0.413046 0.483879 0.195939 -0.159318
C66   C     C_1   0.782236 0.999949 0.783731 -0.155563
C67   C     C_1   0.217390 0.499948 0.719141 -0.150046
C68   C     C_1   0.217767 0.000035 0.216320 -0.118730
C69   C     C_1   0.282231 0.499939 0.783642 -0.131987
C70   C     C_1   0.717769 0.500029 0.216357 -0.106696
C71   C     C_2   0.867478 0.952832 0.668186 0.395753
C72   C     C_2   0.088010 0.113833 0.279705 0.452372
C73   C     C_2   0.133296 0.952389 0.334996 0.353139
C74   C     C_2   0.913352 0.114773 0.722447 0.500166
C75   C     C_2   0.365201 0.458987 0.667006 0.394307
C76   C     C_2   0.581827 0.618056 0.273818 0.445266
C77   C     C_2   0.634402 0.458419 0.335532 0.372617
C78   C     C_1   0.782611 0.500020 0.280858 -0.142650
C79   C     C_2   0.417837 0.617758 0.725487 0.524922
C80   C     C_2   0.100166 0.900909 0.911905 0.453346
C81   C     C_2   0.861837 0.031144 0.037312 0.229091
C82   C     C_2   0.896495 0.903272 0.080194 0.438396
C83   C     C_2   0.142523 0.027758 0.966947 0.401189
C84   C     C_2   0.595488 0.395650 0.907432 0.353310
C85   C     C_2   0.355762 0.521424 0.032967 0.414089
C86   C     C_2   0.403364 0.396319 0.091180 0.346996
C87   C     C_2   0.644123 0.520442 0.967015 0.414791
C88   C     C_2   0.126685 0.924239 0.815264 0.334205
C89   C     C_R   0.999983 0.858723 0.499979 0.930134
C90   C     C_2   0.869632 0.057412 0.170102 0.422623
C91   C     C_2   0.870563 0.922712 0.179876 0.617666
C92   C     C_2   0.135572 0.056337 0.835537 0.497128
C93   C     C_2   0.625391 0.416245 0.815301 0.469087
C94   C     C_2   0.366546 0.551018 0.167395 0.355928
C95   C     C_2   0.374464 0.416322 0.184575 0.469425
C96   C     C_2   0.633396 0.550913 0.832758 0.362084
H1    H     H_    0.959359 0.885505 0.763821 0.133073
H2    H     H_    0.089621 0.068967 0.392142 0.212540
H3    H     H_    0.098122 0.932417 0.409673 0.179733
H4    H     H_    0.907773 0.065474 0.607584 0.224320
H5    H     H_    0.399814 0.435053 0.587662 0.238029
H6    H     H_    0.586017 0.572719 0.388539 0.211335
H7    H     H_    0.600847 0.436647 0.411956 0.195380
H8    H     H_    0.414065 0.572655 0.611368 0.246102
H9    H     H_    0.985442 0.879221 0.689027 0.124584
H10   H     H_    0.006274 0.117247 0.318166 0.167598
H11   H     H_    0.019235 0.878369 0.316724 0.247280
H12   H     H_    0.975547 0.115758 0.184258 0.156362
H13   H     H_    0.986615 0.118513 0.674250 0.218127
H14   H     H_    0.476300 0.379224 0.679964 0.187599
H15   H     H_    0.500591 0.617109 0.312840 0.171860
H16   H     H_    0.524352 0.379155 0.321565 0.214049
H17   H     H_    0.499587 0.617042 0.687264 0.159113
H18   H     H_    0.852535 0.947925 0.701368 0.053073
H19   H     H_    0.119902 0.087900 0.276064 0.070485
H20   H     H_    0.165422 0.992544 0.393002 0.083304
H21   H     H_    0.880036 0.087876 0.723199 0.059012
H22   H     H_    0.350428 0.453752 0.700376 0.046580
H23   H     H_    0.040302 0.885153 0.235811 0.240796
H24   H     H_    0.615593 0.593446 0.272660 0.061826
H25   H     H_    0.664957 0.499787 0.391927 0.082897
H26   H     H_    0.383943 0.593161 0.726443 0.054644
H27   H     H_    0.076483 0.855143 0.862727 0.067342
H28   H     H_    0.879348 0.077228 0.027248 0.121300
H29   H     H_    0.865064 0.897996 0.005569 0.112144
H30   H     H_    0.199707 0.012330 0.020030 0.113576
H31   H     H_    0.568578 0.350840 0.856064 0.099540
H32   H     H_    0.299185 0.506438 0.984575 0.106395
H33   H     H_    0.429589 0.351156 0.141934 0.099654
H34   H     H_    0.025585 0.116004 0.814534 0.232139
H35   H     H_    0.700597 0.504851 0.015650 0.105216
H36   H     H_    0.097319 0.886314 0.755616 0.082859
H37   H     H_    0.884849 0.110491 0.167208 0.071604
H38   H     H_    0.813254 0.915372 0.109131 0.101608
H39   H     H_    0.193304 0.056597 0.906793 0.090942
H40   H     H_    0.682204 0.405758 0.885525 0.097619
H41   H     H_    0.379441 0.604865 0.162478 0.100246
H42   H     H_    0.317592 0.405875 0.114432 0.100268
H43   H     H_    0.620635 0.604668 0.837992 0.097567
H44   H     H_    0.453780 0.387541 0.758460 0.134641
H45   H     H_    0.469474 0.614647 0.178831 0.215657
H46   H     H_    0.544330 0.387094 0.239739 0.193551
H47   H     H_    0.530417 0.614610 0.821141 0.204626
H48   H     H_    0.904785 0.928769 0.591950 0.249630
O1    O     O_R   0.892660 0.939370 0.892650 -0.632297
O2    O     O_R   0.000020 0.060630 0.092620 -0.652080
O3    O     O_R   0.000020 0.939370 0.092620 -0.606180
O4    O     O_R   0.999980 0.060630 0.907380 -0.589109
O5    O     O_R   0.499980 0.439370 0.907380 -0.622152
O6    O     O_R   0.500020 0.560630 0.092620 -0.608811
O7    O     O_R   0.500020 0.439370 0.092620 -0.597148
O8    O     O_R   0.499980 0.560630 0.907380 -0.605951
O9    O     O_R   0.939350 0.892680 0.439340 -0.594124
O10   O     O_R   0.060650 0.107320 0.560660 -0.598559
O11   O     O_R   0.060650 0.892680 0.560660 -0.629318
O12   O     O_R   0.107340 0.060630 0.107350 -0.602401
O13   O     O_R   0.939350 0.107320 0.439340 -0.608434
O14   O     O_R   0.439350 0.392680 0.439340 -0.602581
O15   O     O_R   0.560650 0.607320 0.560660 -0.614221
O16   O     O_R   0.560650 0.392680 0.560660 -0.604256
O17   O     O_R   0.439350 0.607320 0.439340 -0.605802
O18   O     O_R   0.939380 0.000000 0.531980 -0.626936
O19   O     O_R   0.060620 0.000000 0.468020 -0.639093
O20   O     O_R   0.439380 0.500000 0.531980 -0.639778
O21   O     O_R   0.560620 0.500000 0.468020 -0.649059
O22   O     O_R   0.060570 0.000000 0.653170 -0.605457
O23   O     O_R   0.107340 0.939370 0.107350 -0.568988
O24   O     O_R   0.939430 0.000000 0.346830 -0.582023
O25   O     O_R   0.560570 0.500000 0.653170 -0.568041
O26   O     O_R   0.439430 0.500000 0.346830 -0.570248
O27   O     O_R   0.499910 0.107290 0.447610 -0.611377
O28   O     O_R   0.500090 0.892710 0.552390 -0.609507
O29   O     O_R   0.500090 0.107290 0.552390 -0.610291
O30   O     O_R   0.499910 0.892710 0.447610 -0.609395
O31   O     O_R   0.999910 0.607290 0.447610 -0.602626
O32   O     O_R   0.000090 0.392710 0.552390 -0.604259
O33   O     O_R   0.000090 0.607290 0.552390 -0.621326
O34   O     O_R   0.892660 0.060630 0.892650 -0.621496
O35   O     O_R   0.999910 0.392710 0.447610 -0.614231
O36   O     O_R   0.607280 0.000000 0.555010 -0.614045
O37   O     O_R   0.392720 0.000000 0.444990 -0.609058
O38   O     O_R   0.107280 0.500000 0.555010 -0.610582
O39   O     O_R   0.892720 0.500000 0.444990 -0.608413
O40   O     O_R   0.607300 0.000000 0.659580 -0.596959
O41   O     O_R   0.392700 0.000000 0.340420 -0.611057
O42   O     O_R   0.107300 0.500000 0.659580 -0.610754
O43   O     O_R   0.892700 0.500000 0.340420 -0.611421
O44   O     O_2   0.819976 0.968855 0.582208 -0.545574
O45   O     O_R   0.392660 0.439370 0.892650 -0.607146
O46   O     O_2   0.106186 0.174785 0.315795 -0.542252
O47   O     O_2   0.162668 0.917084 0.323920 -0.540291
O48   O     O_2   0.896969 0.176897 0.689944 -0.536666
O49   O     O_2   0.318330 0.478432 0.582261 -0.542277
O50   O     O_2   0.596513 0.680082 0.305987 -0.534768
O51   O     O_2   0.664966 0.424583 0.325409 -0.550593
O52   O     O_2   0.403121 0.679727 0.693142 -0.539188
O53   O     O_2   0.139909 0.886897 0.996531 -0.546015
O54   O     O_2   0.795963 0.021132 0.976318 -0.540793
O55   O     O_2   0.916774 0.846841 0.126031 -0.569597
O56   O     O_R   0.607340 0.560630 0.107350 -0.609924
O57   O     O_2   0.128603 0.082474 0.982903 -0.564421
O58   O     O_2   0.636193 0.380239 0.992072 -0.545536
O59   O     O_2   0.367300 0.573889 0.011128 -0.567900
O60   O     O_2   0.362866 0.381463 0.006477 -0.544826
O61   O     O_2   0.632926 0.573265 0.988820 -0.569574
O62   O     O_2   0.191542 0.912316 0.891645 -0.558324
O63   O     O_2   0.817005 0.054927 0.151385 -0.535856
O64   O     O_2   0.898980 0.877976 0.243424 -0.576092
O65   O     O_2   0.112525 0.108304 0.782290 -0.575269
O66   O     O_2   0.594615 0.373366 0.749128 -0.594602
O67   O     O_R   0.607340 0.439370 0.107350 -0.578072
O68   O     O_2   0.313664 0.545778 0.147925 -0.542230
O69   O     O_2   0.405329 0.373323 0.250687 -0.594423
O70   O     O_2   0.686227 0.545819 0.852118 -0.544675
O71   O     O_R   0.392660 0.560630 0.892650 -0.601534
O72   O     O_R   0.999980 0.939370 0.907380 -0.624059
Zn1   Zn    Zn3+2 1.000000 0.919050 0.000000 1.047044
Zn2   Zn    Zn3+2 0.500050 0.000000 0.569860 1.045039
Zn3   Zn    Zn3+2 0.999950 0.500000 0.430140 1.037797
Zn4   Zn    Zn3+2 0.000050 0.500000 0.569860 1.026798
Zn5   Zn    Zn3+2 0.000000 0.080950 0.000000 1.034545
Zn6   Zn    Zn3+2 0.500000 0.419050 0.000000 1.075128
Zn7   Zn    Zn3+2 0.500000 0.580950 0.000000 1.068041
Zn8   Zn    Zn3+2 0.919050 0.000000 0.419040 1.071441
Zn9   Zn    Zn3+2 0.080950 0.000000 0.580960 1.026738
Zn10  Zn    Zn3+2 0.419050 0.500000 0.419040 1.077774
Zn11  Zn    Zn3+2 0.580950 0.500000 0.580960 1.056711
Zn12  Zn    Zn3+2 0.499950 0.000000 0.430140 1.034824

loop_
_geom_bond_atom_site_label_1
_geom_bond_atom_site_label_2
_ccdc_geom_bond_type
C58   C62   S    
C13   O32   A    
C77   H25   S    
C28   O2    A    
C35   C74   S    
C94   O68   D    
O39   Zn4   S    
C35   C53   S    
O6    Zn7   S    
C23   C69   S    
C1    O1    A    
C71   O44   D    
C83   O57   D    
C93   H40   S    
C6    O19   A    
C96   H43   S    
C91   O64   D    
C39   H47   S    
C32   C72   S    
O16   Zn11  S    
O43   Zn3   S    
C46   H6    S    
C72   H19   S    
C50   C54   S    
C73   H20   S    
C37   H45   S    
C5    C58   S    
C33   C42   S    
C52   C85   S    
C12   O12   A    
C64   C93   S    
C8    O21   A    
C2    O13   A    
C16   O38   A    
C9    C22   S    
C89   O11   A    
C4    O15   A    
C70   C78   T    
C11   C25   S    
C10   O28   A    
C47   H16   S    
C48   H8    S    
C30   C57   S    
O21   Zn11  S    
C96   O70   D    
C31   C40   S    
C87   H35   S    
C19   C26   T    
O30   Zn12  S    
C87   O61   D    
C12   O23   A    
C43   C58   S    
C39   C55   S    
C27   O4    A    
C28   O3    A    
C62   C92   S    
C3    O14   A    
C32   C41   S    
O25   Zn11  S    
O34   Zn5   S    
C9    O29   A    
C11   O33   A    
O15   Zn11  S    
C35   C43   S    
C42   H11   S    
O14   Zn10  S    
C8    C61   S    
C84   H31   S    
O40   Zn2   S    
C48   H17   S    
O38   Zn3   S    
C2    O10   A    
C46   H15   S    
C50   C63   S    
C38   H46   S    
C92   O65   D    
C18   C25   T    
O24   Zn8   S    
C72   O46   D    
C8    O26   A    
C48   C60   S    
C14   C45   S    
C79   H26   S    
C6    O24   A    
C44   C60   S    
C40   C58   S    
C41   H10   S    
C81   H28   S    
C47   H7    S    
C43   H4    S    
C41   C59   S    
O9    Zn8   S    
C52   C57   S    
C51   C87   S    
C81   O54   D    
C90   H37   S    
C28   C54   S    
O45   Zn6   S    
O20   Zn10  S    
C23   O71   A    
C46   C61   S    
C10   C24   S    
C56   C68   T    
O41   Zn12  S    
C62   C88   S    
O36   Zn12  S    
C31   C53   S    
C79   O52   D    
C71   H18   S    
O12   Zn5   S    
C67   C69   T    
C39   C79   S    
O4    Zn5   S    
C82   H29   S    
O3    Zn1   S    
C36   C75   S    
C34   O56   A    
O13   Zn8   S    
C38   C57   S    
C15   O41   A    
C1    O34   A    
C17   O39   A    
C89   O9    A    
C5    O22   A    
C16   O42   A    
C93   O66   D    
C1    C66   S    
C21   C24   T    
C32   H12   S    
C3    C20   S    
C16   C67   S    
C76   H24   S    
O10   Zn9   S    
O72   Zn1   S    
O29   Zn2   S    
C36   H44   S    
C35   H34   S    
C64   C96   S    
C38   C47   S    
C73   O47   D    
C76   O50   D    
C74   O48   D    
C75   O49   D    
C33   C73   S    
C65   C94   S    
C37   C76   S    
C20   C22   T    
C43   H13   S    
C33   H23   S    
C40   H48   S    
C75   H22   S    
C27   O72   A    
C95   O69   D    
C13   C26   S    
C9    O27   A    
C92   H39   S    
O5    Zn6   S    
C88   H36   S    
C83   H30   S    
C86   O60   D    
C7    C60   S    
C23   O45   A    
O28   Zn2   S    
C50   C82   S    
C18   C89   S    
O17   Zn10  S    
C84   O58   D    
C33   C54   S    
O2    Zn5   S    
C74   H21   S    
C34   C70   S    
O11   Zn9   S    
C95   H42   S    
C49   C62   S    
C30   O6    A    
O35   Zn3   S    
C2    C19   S    
C4    O17   A    
O56   Zn7   S    
O31   Zn3   S    
C6    C59   S    
C51   C64   S    
C88   O62   D    
O37   Zn2   S    
O71   Zn7   S    
C42   C59   S    
C47   C61   S    
C14   O40   A    
C44   H5    S    
C27   C53   S    
C86   H33   S    
C37   C57   S    
C94   H41   S    
C38   C77   S    
C29   C55   S    
C7    O20   A    
C59   C63   S    
C32   C54   S    
O7    Zn6   S    
C60   C64   S    
C10   O30   A    
C5    O18   A    
C12   C68   S    
O26   Zn10  S    
C77   O51   D    
C82   O55   D    
C36   C55   S    
C13   O35   A    
C42   H3    S    
C15   C56   S    
C29   O8    A    
C4    C21   S    
O67   Zn6   S    
C49   C83   S    
C30   O7    A    
C3    O16   A    
C91   H38   S    
O42   Zn4   S    
C17   O43   A    
O22   Zn9   S    
C49   C53   S    
C80   O53   D    
C15   O37   A    
C63   C90   S    
C52   C86   S    
C17   C78   S    
C51   C55   S    
C31   H1    S    
C31   C71   S    
C11   O31   A    
C36   C44   S    
C34   O67   A    
C85   O59   D    
C29   O5    A    
C90   O63   D    
C61   C65   S    
C65   C95   S    
O1    Zn1   S    
O27   Zn12  S    
O32   Zn4   S    
O8    Zn7   S    
C63   C91   S    
C45   C66   T    
C49   C80   S    
C41   H2    S    
C39   C48   S    
C85   H32   S    
O18   Zn8   S    
O33   Zn4   S    
C37   C46   S    
O19   Zn9   S    
C51   C84   S    
O23   Zn1   S    
C7    O25   A    
C14   O36   A    
C52   C65   S    
C50   C81   S    
C40   H9    S    
C80   H27   S    
C44   H14   S    
