data_mof_unit_52774.cif
_audit_creation_date              2013-03-05T16:44:34-0500
_audit_creation_method            fapswitch 2.2
_symmetry_space_group_name_H-M    P1
_symmetry_Int_Tables_number       1
_space_group_crystal_system       triclinic
_cell_length_a                    27.691769
_cell_length_b                    10.673543
_cell_length_c                    9.84215
_cell_angle_alpha                 89.998133
_cell_angle_beta                  90.21447
_cell_angle_gamma                 90.058651
_cell_volume                      2909.01535425

loop_
_atom_site_label
_atom_site_type_symbol
_atom_site_description
_atom_site_fract_x
_atom_site_fract_y
_atom_site_fract_z
_atom_type_partial_charge
O1    O     O_R   0.500010 0.316790 0.614690 -0.596762
O2    O     O_R   0.500000 0.316760 0.385350 -0.619347
C1    C     C_R   0.498607 0.259903 0.500081 0.888187
O3    O     O_R   0.428760 0.500040 0.614660 -0.623996
O4    O     O_R   0.428750 0.500000 0.385310 -0.623657
C2    C     C_R   0.405930 0.500700 0.499745 0.874099
Zn1   Zn    Zn3+2 0.500000 0.500020 0.653130 0.962964
Zn2   Zn    Zn3+2 0.500000 0.499980 0.346870 0.950808
O5    O     O_R   0.500000 0.683240 0.614650 -0.616180
O6    O     O_R   0.499990 0.683210 0.385310 -0.629917
O7    O     O_R   0.571250 0.500000 0.614690 -0.626449
O8    O     O_R   0.571240 0.499960 0.385340 -0.616958
C3    C     C_R   0.498576 0.740082 0.500002 0.898329
C4    C     C_R   0.594053 0.499993 0.500354 0.895123
C5    C     C_R   0.176449 0.408418 0.457531 0.505919
O9    O     O_2   0.200848 0.307176 0.412745 -0.553126
N1    N     N_R   0.201008 0.512796 0.499213 -0.357858
C6    C     C_R   0.177622 0.617624 0.543973 0.504431
C7    C     C_R   0.277640 0.508633 0.622137 -0.100099
C8    C     C_R   0.327759 0.505190 0.622500 -0.208638
C9    C     C_R   0.327583 0.507114 0.375717 -0.212011
C10   C     C_R   0.277417 0.510656 0.375645 -0.092813
C11   C     C_R   0.252468 0.511207 0.498838 0.314024
C12   C     C_R   0.101250 0.511331 0.512506 -0.055918
C13   C     C_R   0.126039 0.405708 0.463159 -0.020827
C14   C     C_R   0.099905 0.301667 0.417337 -0.141613
C15   C     C_R   0.127192 0.619236 0.550700 -0.019755
C16   C     C_R   0.353123 0.503894 0.499255 -0.040896
H1    H     H_    0.346231 0.507300 0.279353 0.153881
H2    H     H_    0.257871 0.513014 0.280169 0.142611
H3    H     H_    0.117834 0.222730 0.370277 0.190898
C17   C     C_R   0.646848 0.500141 0.502011 -0.080629
C18   C     C_R   0.975033 0.390566 0.520964 0.007472
C19   C     C_R   0.974355 0.620726 0.547929 0.060048
C20   C     C_R   0.949413 0.505169 0.532521 0.048091
C21   C     C_R   0.949349 0.275592 0.540697 0.087276
C22   C     C_R   0.898839 0.277041 0.533025 -0.172313
C23   C     C_R   0.873445 0.389782 0.522854 -0.058425
C24   C     C_R   0.898527 0.504241 0.528848 -0.055720
C25   C     C_R   0.872662 0.617845 0.530683 -0.020277
C26   C     C_R   0.822279 0.614680 0.521803 0.548697
N2    N     N_R   0.798812 0.502439 0.513039 -0.336754
C27   C     C_R   0.822995 0.391066 0.514536 0.560418
C28   C     C_R   0.721657 0.496719 0.629151 -0.204796
C29   C     C_R   0.671617 0.496147 0.626567 -0.211766
C30   C     C_R   0.672856 0.504581 0.379872 -0.334808
C31   C     C_R   0.723499 0.505283 0.382104 0.518871
C32   C     C_R   0.747450 0.501366 0.507725 0.294371
O10   O     O_2   0.798178 0.282276 0.508316 -0.545039
C33   C     C_R   0.025056 0.397192 0.493800 0.030601
C34   C     C_R   0.050425 0.509337 0.522258 0.069461
C35   C     C_R   0.025302 0.620006 0.557209 0.048176
C36   C     C_R   0.049955 0.299036 0.429491 -0.211565
H4    H     H_    0.652403 0.492563 0.722146 0.174311
H5    H     H_    0.740587 0.493692 0.725595 0.159520
H6    H     H_    0.879081 0.189693 0.541439 0.188154
H7    H     H_    0.030924 0.223531 0.380140 0.148737
O11   O     O_2   0.203175 0.719858 0.581201 -0.551713
C37   C     C_R   0.102312 0.725612 0.594838 -0.134868
H8    H     H_    0.346496 0.503750 0.719071 0.154221
H9    H     H_    0.258259 0.508803 0.717511 0.141384
H10   H     H_    0.121487 0.809233 0.626558 0.189969
C38   C     C_R   0.947496 0.733124 0.550953 -0.220704
C39   C     C_R   0.897487 0.731510 0.541307 -0.133066
O12   O     O_2   0.796820 0.722469 0.522215 -0.545065
C40   C     C_R   0.052134 0.726572 0.596788 -0.226833
H11   H     H_    0.964343 0.824231 0.555310 0.139007
H12   H     H_    0.653952 0.507808 0.283367 0.161103
H13   H     H_    0.878355 0.820008 0.542202 0.188220
H14   H     H_    0.035167 0.810895 0.633108 0.144242
C41   C     C_R   0.493310 0.063867 0.623793 0.185335
C42   C     C_R   0.491207 0.128506 0.501079 -0.182606
C43   C     C_R   0.480093 0.064749 0.380326 -0.199989
H15   H     H_    0.474741 0.113878 0.285158 0.175065
C44   C     C_R   0.480028 0.935196 0.380275 -0.210270
H16   H     H_    0.474606 0.886068 0.285095 0.175051
C45   C     C_R   0.491117 0.871417 0.500957 -0.110727
C46   C     C_R   0.493334 0.936033 0.623611 0.081243
C47   C     C_3   0.529808 0.928260 0.735726 -0.542325
C48   C     C_3   0.530013 0.070438 0.735515 0.238141
H17   H     H_    0.514356 0.886354 0.829444 0.225980
H18   H     H_    0.564621 0.886872 0.702154 0.171249
H19   H     H_    0.564762 0.114623 0.704644 0.101215
C49   C     C_R   0.480754 0.401371 0.071120 0.212468
N3    N     N_R   0.499670 0.499140 0.142800 -0.112586
C50   C     C_R   0.523272 0.590967 0.072300 -0.134361
H20   H     H_    0.541269 0.665621 0.126958 0.153280
C51   C     C_R   0.523377 0.590781 0.928149 -0.145871
H21   H     H_    0.541636 0.664909 0.873848 0.150915
N4    N     N_R   0.499670 0.499180 0.857150 -0.118787
C52   C     C_R   0.480624 0.401635 0.928454 0.297544
C53   C     C_3   0.429597 0.357530 0.922333 -0.478135
C54   C     C_3   0.429802 0.356699 0.076565 -0.513711
H22   H     H_    0.404868 0.428855 0.878653 0.198813
H23   H     H_    0.426352 0.262509 0.877061 0.245368
H24   H     H_    0.405035 0.427129 0.121301 0.212735
H25   H     H_    0.426927 0.261070 0.120468 0.210927
O13   O     O_3   0.750357 0.509867 0.264329 -0.751584
H26   H     H_    0.728064 0.512286 0.185270 0.329403
O14   O     O_3   0.510019 0.120453 0.854148 -0.757722
H27   H     H_    0.536532 0.121457 0.922199 0.332224
C55   C     C_3   0.972532 0.155697 0.595259 -0.427170
C56   C     C_3   0.998532 0.178928 0.731115 -0.308853
C57   C     C_3   0.021581 0.059088 0.785370 -0.877665
H28   H     H_    0.993883 0.984682 0.798165 0.260575
H29   H     H_    0.049920 0.026017 0.714368 0.259424
H30   H     H_    0.038628 0.077976 0.885596 0.259275
H31   H     H_    0.027370 0.250320 0.719113 0.235382
H32   H     H_    0.972174 0.214315 0.806895 0.228255
H33   H     H_    0.944335 0.083448 0.614008 0.193892
H34   H     H_    0.996897 0.110399 0.521933 0.196143

loop_
_geom_bond_atom_site_label_1
_geom_bond_atom_site_label_2
_geom_bond_distance
_ccdc_geom_bond_type
C26   N2    1.364899 A    
C17   C29   1.403162 A    
C20   C24   1.409479 A    
C7    C8    1.388380 A    
C12   C15   1.407182 A    
C57   H29   1.110627 S    
C40   H14   1.077370 S    
C45   C46   1.391444 A    
Zn1   O7    2.010375 S    
N1    C11   1.425158 S    
C31   O13   1.380425 S    
C53   C54   1.517994 S    
C21   C22   1.400586 A    
Zn2   N3    2.008494 S    
C48   H19   1.114414 S    
C37   C40   1.389779 A    
O4    C2    1.293539 A    
O7    C4    1.292436 A    
C50   C51   1.418771 A    
C5    C13   1.397515 A    
C5    O9    1.349920 S    
C18   C21   1.431360 A    
C21   C55   1.528787 S    
C19   C20   1.420846 A    
C43   H15   1.083213 S    
O5    C3    1.281625 A    
C41   C48   1.496168 S    
C22   H6    1.083830 S    
C6    O11   1.349882 S    
C2    C16   1.462736 S    
C56   H31   1.109844 S    
C49   C52   1.404136 A    
C8    H8    1.081291 S    
C12   C34   1.411192 A    
C14   H3    1.083274 S    
O1    Zn1   1.991985 S    
C9    C10   1.389755 A    
C48   O14   1.400112 S    
C43   C44   1.382786 A    
C55   H34   1.101890 S    
O3    Zn1   2.007375 S    
C57   H28   1.110997 S    
C33   C34   1.414775 A    
C3    C45   1.417199 S    
C38   H11   1.078908 S    
C33   C36   1.406575 A    
C34   C35   1.414608 A    
C12   C13   1.407911 A    
O3    C2    1.293672 A    
C4    C17   1.462016 S    
C24   C25   1.409083 A    
C47   H17   1.111968 S    
C36   H7    1.077224 S    
C46   C47   1.495478 S    
C27   O10   1.349965 S    
C26   O12   1.349941 S    
C8    C16   1.404022 A    
C18   C33   1.413457 A    
N3    C50   1.367944 A    
Zn1   N4    2.008070 S    
C9    H1    1.081586 S    
C53   H23   1.111208 S    
C38   C39   1.387836 A    
O1    C1    1.281498 A    
C7    C11   1.397506 A    
C44   H16   1.083462 S    
C30   H12   1.083365 S    
C22   C23   1.397758 A    
C47   H18   1.112196 S    
C31   C32   1.401504 A    
Zn2   O8    2.007375 S    
C53   H22   1.110025 S    
N1    C6    1.367120 A    
N2    C32   1.423096 S    
C39   H13   1.083536 S    
C49   N3    1.362802 A    
C44   C45   1.402196 A    
C25   C26   1.397973 A    
C9    C16   1.404755 A    
O8    C4    1.294273 A    
C29   H4    1.083134 S    
C54   H24   1.110270 S    
C55   H33   1.112768 S    
N2    C27   1.365048 A    
C14   C36   1.389049 A    
C54   H25   1.111275 S    
C52   C53   1.489924 S    
C35   C40   1.411996 A    
C28   C29   1.385830 A    
C5    N1    1.366872 A    
C30   C31   1.402496 A    
C37   H10   1.083432 S    
C10   H2    1.082961 S    
C50   H20   1.081625 S    
C17   C30   1.404431 A    
O2    Zn2   1.991929 S    
C6    C15   1.398435 A    
C51   N4    1.367654 A    
C42   C43   1.402555 A    
O6    C3    1.282442 A    
O4    Zn2   2.010377 S    
C19   C35   1.413456 A    
C25   C39   1.397551 A    
C56   H32   1.111923 S    
O2    C1    1.282610 A    
C13   C14   1.398677 A    
C41   C42   1.391973 A    
C15   C37   1.398719 A    
C28   H5    1.083121 S    
N4    C52   1.362443 A    
C23   C24   1.405838 A    
C7    H9    1.083031 S    
C19   C38   1.412547 A    
C18   C20   1.419481 A    
C1    C42   1.417200 S    
C49   C54   1.490042 S    
C57   H30   1.110355 S    
C55   C56   1.536295 S    
C47   C48   1.517545 S    
Zn1   O5    1.991928 S    
C23   C27   1.399227 A    
C51   H21   1.080970 S    
Zn2   O6    1.991984 S    
O13   H26   0.991793 S    
C56   C57   1.525690 S    
C10   C11   1.397765 A    
O14   H27   0.991991 S    
C41   C46   1.364452 A    
C28   C32   1.395412 A    
