data_mof_unit_14284.cif
_audit_creation_date              2012-12-10T18:22:27-0500
_audit_creation_method            fapswitch 2.2
_symmetry_space_group_name_H-M    P1
_symmetry_Int_Tables_number       1
_space_group_crystal_system       triclinic
_cell_length_a                    23.452404
_cell_length_b                    10.600644
_cell_length_c                    9.538993
_cell_angle_alpha                 89.874921
_cell_angle_beta                  90.15274
_cell_angle_gamma                 89.375843
_cell_volume                      2371.33969678

loop_
_atom_site_label
_atom_site_type_symbol
_atom_type_description
_atom_site_fract_x
_atom_site_fract_y
_atom_site_fract_z
_atom_type_partial_charge
C1    C     C_R   0.500645 0.260053 0.500279 0.885406
C2    C     C_R   0.499455 0.739982 0.499716 0.883503
C3    C     C_R   0.239426 0.574954 0.590332 -0.102529
C4    C     C_R   0.761706 0.432716 0.412291 -0.102737
C5    C     C_R   0.298657 0.574343 0.592147 -0.065403
C6    C     C_R   0.702455 0.431442 0.407867 -0.068602
C7    C     C_R   0.329170 0.496955 0.499830 -0.011446
C8    C     C_R   0.670826 0.505635 0.501152 -0.013484
C9    C     C_R   0.300000 0.417748 0.407441 -0.171074
C10   C     C_R   0.698882 0.583102 0.597364 -0.169929
C11   C     C_R   0.240255 0.417461 0.404424 0.047784
C12   C     C_R   0.758530 0.584137 0.604211 0.045673
C13   C     C_R   0.209821 0.497672 0.496800 0.281092
C14   C     C_R   0.790148 0.507727 0.510377 0.280371
C15   C     C_3   0.488357 0.041320 0.630675 -0.176170
C16   C     C_3   0.511960 0.958814 0.369242 -0.176789
C17   C     C_3   0.539650 0.954982 0.590793 -0.273349
C18   C     C_3   0.460671 0.045138 0.409132 -0.272046
C19   C     C_3   0.499466 0.876787 0.498717 -0.176460
C20   C     C_3   0.500815 0.123306 0.501236 -0.176291
C21   C     C_3   0.449039 0.961710 0.537664 0.490349
C22   C     C_3   0.551270 0.038490 0.462264 0.488789
C23   C     C_R   0.391423 0.498932 0.499940 0.837468
C24   C     C_R   0.608585 0.501328 0.500127 0.838515
C25   C     C_3   0.543889 0.556663 0.048792 0.405984
C26   C     C_3   0.456109 0.443319 0.951181 0.405429
C27   C     C_3   0.499397 0.614169 0.948066 -0.273904
C28   C     C_3   0.500581 0.385828 0.051933 -0.272747
C29   C     C_3   0.544445 0.443411 0.951533 0.399969
C30   C     C_3   0.455541 0.556544 0.048465 0.399516
C31   C     C_R   0.879681 0.610082 0.465426 0.580379
C32   C     C_R   0.120444 0.398084 0.550811 0.587445
C33   C     C_R   0.879665 0.400399 0.557068 0.566626
C34   C     C_R   0.120196 0.605510 0.453170 0.552483
C35   C     C_R   0.940158 0.394589 0.557401 -0.140473
C36   C     C_R   0.059878 0.613639 0.460344 -0.134997
C37   C     C_R   0.969857 0.503513 0.510619 -0.061487
C38   C     C_R   0.030200 0.504988 0.507746 -0.053002
C39   C     C_R   0.939277 0.611326 0.465737 -0.068556
C40   C     C_R   0.060843 0.397354 0.552670 -0.077532
C41   C     C_R   0.972391 0.286327 0.602045 0.443373
C42   C     C_R   0.027818 0.723726 0.421535 0.359845
C43   C     C_R   0.031895 0.290558 0.598995 -0.196387
C44   C     C_R   0.968320 0.719247 0.422832 -0.189922
Cu1   Cu    Cu3+1 0.500010 0.499990 0.643150 1.110212
Cu2   Cu    Cu3+1 0.499990 0.500010 0.356850 1.111718
H1    H     H_    0.498822 0.710615 0.902436 0.222987
H2    H     H_    0.501140 0.289383 0.097568 0.222944
H3    H     H_    0.056224 0.208602 0.632670 0.233547
H4    H     H_    0.944150 0.802075 0.391075 0.238831
H5    H     H_    0.216261 0.635515 0.662152 0.161607
H6    H     H_    0.785782 0.374769 0.339639 0.164146
H7    H     H_    0.320662 0.635200 0.664770 0.226646
H8    H     H_    0.681351 0.371328 0.332857 0.226241
H9    H     H_    0.323835 0.356459 0.337457 0.180814
H10   H     H_    0.674190 0.641668 0.668416 0.182490
H11   H     H_    0.572360 0.916077 0.663847 0.206190
H12   H     H_    0.427961 0.084044 0.336078 0.206822
H13   H     H_    0.478634 0.075355 0.737966 0.232641
H14   H     H_    0.521687 0.924781 0.261952 0.232646
N1    N     N_R   0.851399 0.506500 0.511779 -0.477827
N2    N     N_R   0.148594 0.499950 0.499461 -0.475865
N3    N     N_3   0.500040 0.499970 0.858290 -0.295520
N4    N     N_3   0.499960 0.500030 0.141710 -0.295419
O1    O     O_R   0.500030 0.316850 0.620870 -0.522941
O2    O     O_R   0.499970 0.683150 0.379130 -0.523033
O3    O     O_R   0.500000 0.316860 0.379090 -0.585269
O4    O     O_R   0.500000 0.683140 0.620910 -0.586461
O5    O     O_R   0.417890 0.499960 0.620920 -0.528016
O6    O     O_R   0.582110 0.500040 0.379080 -0.526651
O7    O     O_R   0.417870 0.499970 0.379140 -0.533310
O8    O     O_R   0.582130 0.500030 0.620860 -0.535160
O9    O     O_2   0.849946 0.711527 0.418419 -0.519497
O10   O     O_2   0.150300 0.297630 0.599941 -0.520272
O11   O     O_2   0.848577 0.302634 0.602395 -0.436848
O12   O     O_2   0.150825 0.699631 0.397392 -0.436343
S1    S     S_3+6 0.942292 0.142540 0.663001 0.059826
O13   O     O_2   0.905385 0.087050 0.550247 -0.211258
O14   O     O_2   0.988146 0.048118 0.700849 -0.307442
O15   O     O_3   0.902814 0.171663 0.806564 -0.496712
H15   H     H_    0.888717 0.088127 0.836445 0.367132
S2    S     S_3+6 0.058216 0.871860 0.376341 0.068802
O16   O     O_2   0.087737 0.860464 0.237211 -0.235763
O17   O     O_2   0.013124 0.973321 0.364842 -0.252354
O18   O     O_3   0.105803 0.915348 0.498860 -0.455027
H16   H     H_    0.084661 0.912483 0.588527 0.358648
S3    S     S_3+6 0.605807 0.642224 0.100652 0.073662
O19   O     O_2   0.592218 0.732119 0.217395 -0.269940
O20   O     O_2   0.651981 0.551909 0.146367 -0.259449
O21   O     O_3   0.628848 0.724569 0.961352 -0.537020
H17   H     H_    0.666524 0.757414 0.989785 0.381137
S4    S     S_3+6 0.394196 0.357838 0.899073 0.074483
O22   O     O_2   0.348125 0.448119 0.852590 -0.257585
O23   O     O_2   0.407916 0.267543 0.782796 -0.270734
O24   O     O_3   0.370917 0.275976 0.038468 -0.534722
H18   H     H_    0.333686 0.241469 0.009010 0.381400
S5    S     S_3+6 0.606554 0.357603 0.896477 0.089616
O25   O     O_2   0.591561 0.264563 0.784325 -0.255733
O26   O     O_2   0.650772 0.447019 0.843560 -0.259134
O27   O     O_3   0.633727 0.278971 0.034462 -0.473836
H19   H     H_    0.668714 0.237054 0.998715 0.381924
S6    S     S_3+6 0.393255 0.641623 0.103645 0.090518
O28   O     O_2   0.349443 0.551774 0.157802 -0.257588
O29   O     O_2   0.408195 0.735585 0.214899 -0.255219
O30   O     O_3   0.365544 0.718898 0.965360 -0.474080
H20   H     H_    0.330435 0.760279 0.001138 0.382681
C45   C     C_R   0.210667 0.332210 0.305898 0.108310
C46   C     C_R   0.222552 0.201943 0.308497 -0.100895
C47   C     C_R   0.193845 0.120659 0.217915 -0.046828
C48   C     C_R   0.153459 0.168771 0.123409 -0.044623
C49   C     C_R   0.141872 0.298322 0.118952 -0.123314
C50   C     C_R   0.170392 0.379928 0.209553 -0.126543
H21   H     H_    0.253407 0.163190 0.382012 0.172280
H22   H     H_    0.202795 0.020305 0.221278 0.191868
H23   H     H_    0.131236 0.105710 0.053448 0.173108
H24   H     H_    0.110808 0.335551 0.045167 0.157748
H25   H     H_    0.161306 0.480141 0.203970 0.166100
C51   C     C_R   0.786610 0.664723 0.710082 0.109303
C52   C     C_R   0.825654 0.612644 0.806764 -0.123342
C53   C     C_R   0.851772 0.689391 0.906598 -0.099966
C54   C     C_R   0.838890 0.818325 0.911313 -0.086201
C55   C     C_R   0.799713 0.870687 0.816477 -0.100942
C56   C     C_R   0.773524 0.794321 0.716431 -0.078063
H26   H     H_    0.835387 0.512620 0.806045 0.168147
H27   H     H_    0.881820 0.648782 0.980751 0.154282
H28   H     H_    0.859110 0.877549 0.988764 0.156682
H29   H     H_    0.789620 0.970490 0.820432 0.168876
H30   H     H_    0.743430 0.836342 0.643196 0.169083
S7    S     S_3+6 0.379791 0.912158 0.586437 0.010743
O31   O     O_2   0.353948 0.837076 0.469480 -0.281688
O32   O     O_2   0.384611 0.832152 0.715770 -0.275613
O33   O     O_3   0.338830 0.039753 0.619324 -0.504305
H31   H     H_    0.300972 0.005654 0.643792 0.382130
S8    S     S_3+6 0.620377 0.089268 0.413565 0.012113
O34   O     O_2   0.614950 0.175413 0.289310 -0.277266
O35   O     O_2   0.647300 0.158427 0.533574 -0.276460
O36   O     O_3   0.660686 0.962869 0.371645 -0.500248
H32   H     H_    0.698184 0.997744 0.345279 0.382567

loop_
_geom_bond_atom_site_label_1
_geom_bond_atom_site_label_2
_ccdc_geom_bond_type
C38   C40   A    
S3    O19   D    
C29   N3    S    
C8    C24   S    
C30   N4    S    
C18   C21   S    
C45   C50   A    
C23   O5    A    
C11   C45   S    
C36   C42   A    
C49   C50   A    
C42   S2    S    
C34   N2    A    
C33   N1    A    
S8    O36   S    
S5    O25   D    
C56   H30   S    
C24   O6    A    
Cu1   Cu2   S    
C4    H6    S    
C5    H7    S    
C28   C29   S    
C35   C37   A    
Cu2   O2    S    
C2    O4    A    
C41   S1    S    
C50   H25   S    
C31   O9    S    
C44   H4    S    
C25   S3    S    
C46   C47   A    
S6    O30   S    
C7    C9    A    
C16   H14   S    
C55   H29   S    
C31   N1    A    
C51   C52   A    
O27   H19   S    
C17   C19   S    
C48   C49   A    
C33   O11   S    
C40   C43   A    
C13   N2    S    
O24   H18   S    
O33   H31   S    
C1    O1    A    
C45   C46   A    
C49   H24   S    
C9    H9    S    
C10   H10   S    
C18   C20   S    
C3    C13   A    
S7    O33   S    
C52   H26   S    
C27   C30   S    
C41   C43   A    
C42   C44   A    
C6    H8    S    
S5    O26   D    
C18   H12   S    
S1    O14   D    
C25   C29   S    
C15   C20   S    
Cu2   O7    S    
Cu1   O5    S    
C23   O7    A    
C4    C6    A    
C5    C7    A    
C3    H5    S    
C53   H27   S    
C43   H3    S    
S8    O35   D    
C3    C5    A    
S1    O13   D    
C14   N1    S    
Cu1   N3    S    
S4    O24   S    
Cu2   N4    S    
C25   N4    S    
C46   H21   S    
C26   N3    S    
C37   C38   A    
C15   C21   S    
C30   S6    S    
Cu1   O4    S    
S4    O23   D    
C54   C55   A    
S6    O29   D    
C9    C11   A    
C21   S7    S    
O18   H16   S    
S8    O34   D    
C10   C12   A    
C47   H22   S    
C12   C51   S    
C28   N4    S    
C8    C10   A    
C22   S8    S    
C26   C30   S    
S2    O17   D    
S3    O20   D    
Cu1   O1    S    
S5    O27   S    
C53   C54   A    
C24   O8    A    
S7    O31   D    
O36   H32   S    
S1    O15   S    
C27   H1    S    
C15   C17   S    
C28   H2    S    
C1    C20   S    
C16   C22   S    
C19   C21   S    
C2    C19   S    
C15   H13   S    
C20   C22   S    
O15   H15   S    
C2    O2    A    
C6    C8    A    
C52   C53   A    
C39   C44   A    
C1    O3    A    
C25   C27   S    
S2    O18   S    
O30   H20   S    
C26   C28   S    
C17   C22   S    
C29   S5    S    
C36   C38   A    
C12   C14   A    
C32   N2    A    
C54   H28   S    
C37   C39   A    
C47   C48   A    
C32   O10   S    
C11   C13   A    
O21   H17   S    
C16   C19   S    
C7    C23   S    
S4    O22   D    
C33   C35   A    
C31   C39   A    
C34   C36   A    
C51   C56   A    
C32   C40   A    
C4    C14   A    
S6    O28   D    
C35   C41   A    
Cu2   O6    S    
Cu2   O3    S    
C16   C18   S    
S2    O16   D    
S3    O21   S    
C17   H11   S    
C27   N3    S    
S7    O32   D    
C55   C56   A    
C26   S4    S    
C48   H23   S    
C34   O12   S    
Cu1   O8    S    
