data_mof_unit_36741.cif
_audit_creation_date              2012-12-10T17:24:53-0500
_audit_creation_method            fapswitch 2.2
_symmetry_space_group_name_H-M    P1
_symmetry_Int_Tables_number       1
_space_group_crystal_system       triclinic
_cell_length_a                    10.116172
_cell_length_b                    10.830709
_cell_length_c                    19.142775
_cell_angle_alpha                 90.08331
_cell_angle_beta                  80.850909
_cell_angle_gamma                 95.423187
_cell_volume                      2061.23564732

loop_
_atom_site_label
_atom_site_type_symbol
_atom_type_description
_atom_site_fract_x
_atom_site_fract_y
_atom_site_fract_z
_atom_type_partial_charge
C1    C     C_R   0.556306 0.732700 0.497177 0.950816
C2    C     C_R   0.443685 0.267305 0.506529 0.948853
C3    C     C_2   0.588354 0.864629 0.501576 -0.383005
C4    C     C_2   0.411605 0.135405 0.516261 -0.382737
C5    C     C_2   0.487604 0.934015 0.522203 -0.149331
C6    C     C_2   0.512286 0.066080 0.520142 -0.148895
C7    C     C_2   0.926871 0.509904 0.505926 -0.140128
C8    C     C_2   0.073011 0.489758 0.494289 -0.136335
C9    C     C_R   0.500230 0.500321 0.634685 0.877044
C10   C     C_R   0.500729 0.501074 0.365261 0.882747
C11   C     C_R   0.403603 0.556566 0.756697 -0.236497
C12   C     C_R   0.620686 0.477975 0.244345 -0.226531
C13   C     C_R   0.415212 0.572464 0.827976 0.108505
C14   C     C_R   0.633135 0.492784 0.171531 0.110521
C15   C     C_R   0.532723 0.538437 0.851768 0.028765
C16   C     C_R   0.527879 0.541107 0.143103 0.021761
C17   C     C_R   0.637346 0.490030 0.804931 0.091461
C18   C     C_R   0.411330 0.575286 0.187393 0.092361
C19   C     C_R   0.620223 0.473167 0.734584 -0.204270
C20   C     C_R   0.402430 0.558800 0.260695 -0.207949
C21   C     C_R   0.505711 0.507606 0.710222 -0.098317
C22   C     C_R   0.506358 0.510572 0.288910 -0.104611
C23   C     C_R   0.533599 0.542903 0.067096 0.252512
C24   C     C_R   0.541030 0.541865 0.926465 0.256395
H1    H     H_    0.315749 0.584037 0.737144 0.158038
H2    H     H_    0.701733 0.441337 0.266185 0.163085
H3    H     H_    0.696511 0.433934 0.697603 0.159019
H4    H     H_    0.315927 0.584156 0.296566 0.156298
H5    H     H_    0.615902 0.106092 0.517073 0.188203
H6    H     H_    0.383954 0.894032 0.536375 0.187116
H7    H     H_    0.308270 0.094961 0.519215 0.149338
H8    H     H_    0.691722 0.905042 0.487336 0.149543
H9    H     H_    0.109753 0.421877 0.456059 0.163434
H10   H     H_    0.890054 0.577558 0.544289 0.163309
H11   H     H_    0.119182 0.614762 0.564563 0.157628
H12   H     H_    0.880879 0.385418 0.435339 0.158621
N1    N     N_R   0.529375 0.433650 0.963089 -0.189458
N2    N     N_R   0.546847 0.651493 0.030494 -0.184855
N3    N     N_R   0.525882 0.434184 0.032523 -0.181108
N4    N     N_R   0.550073 0.650983 0.960856 -0.180961
N5    N     N_2   0.842710 0.448880 0.471430 -0.196199
N6    N     N_2   0.157290 0.551120 0.528570 -0.195435
O1    O     O_R   0.431050 0.692470 0.505750 -0.611855
O2    O     O_R   0.568950 0.307530 0.494250 -0.612140
O3    O     O_R   0.651120 0.659650 0.487410 -0.609953
O4    O     O_R   0.348880 0.340350 0.512590 -0.610552
O5    O     O_R   0.389930 0.516430 0.611030 -0.614229
O6    O     O_R   0.610070 0.483570 0.388970 -0.613968
O7    O     O_R   0.610000 0.483610 0.592700 -0.622647
O8    O     O_R   0.390000 0.516390 0.407300 -0.617858
Zn1   Zn    Zn3+2 0.353060 0.521920 0.512240 0.935163
Zn2   Zn    Zn3+2 0.646940 0.478080 0.487760 0.933860
C25   C     C_3   0.303342 0.629704 0.876241 -0.421538
C26   C     C_3   0.221401 0.536531 0.930793 -0.327442
C27   C     C_3   0.096963 0.591032 0.969802 -0.916361
H13   H     H_    0.126902 0.677678 0.996784 0.272607
H14   H     H_    0.028287 0.611733 0.932434 0.264611
H15   H     H_    0.042119 0.523495 0.010240 0.254358
H16   H     H_    0.190011 0.450020 0.904187 0.230535
H17   H     H_    0.282356 0.511666 0.970922 0.238491
H18   H     H_    0.346515 0.710546 0.903683 0.214881
H19   H     H_    0.233471 0.667158 0.844044 0.195631
C28   C     C_3   0.761097 0.458153 0.126151 -0.436581
C29   C     C_3   0.759784 0.317070 0.118667 -0.318421
C30   C     C_3   0.884118 0.282318 0.069240 -0.886379
H20   H     H_    0.886040 0.320673 0.015242 0.265094
H21   H     H_    0.977003 0.318695 0.089520 0.260318
H22   H     H_    0.881736 0.179790 0.065993 0.254495
H23   H     H_    0.757257 0.273370 0.171433 0.216044
H24   H     H_    0.668632 0.279369 0.097212 0.242527
H25   H     H_    0.776384 0.502836 0.072925 0.215524
H26   H     H_    0.848770 0.493685 0.151160 0.197804
C31   C     C_3   0.766576 0.460551 0.830817 -0.410154
C32   C     C_3   0.879307 0.422476 0.773244 -0.364316
C33   C     C_3   0.008253 0.409115 0.803009 -0.885548
H27   H     H_    0.049182 0.501112 0.819627 0.265569
H28   H     H_    0.988841 0.343492 0.848844 0.265510
H29   H     H_    0.084388 0.373609 0.761487 0.257238
H30   H     H_    0.846855 0.332053 0.750701 0.226211
H31   H     H_    0.902337 0.494116 0.730366 0.222355
H32   H     H_    0.806470 0.544396 0.857235 0.206154
H33   H     H_    0.741613 0.384369 0.870904 0.217704
C34   C     C_3   0.298955 0.626558 0.154781 -0.407190
C35   C     C_3   0.174564 0.656872 0.206891 -0.364589
C36   C     C_3   0.071042 0.709076 0.168073 -0.885178
H34   H     H_    0.113757 0.797728 0.140718 0.265106
H35   H     H_    0.040175 0.642046 0.128492 0.258688
H36   H     H_    0.980701 0.726709 0.206568 0.254503
H37   H     H_    0.126988 0.571271 0.236152 0.222241
H38   H     H_    0.204459 0.727325 0.245167 0.226909
H39   H     H_    0.341412 0.712904 0.124832 0.219743
H40   H     H_    0.265181 0.557706 0.116569 0.208273

loop_
_geom_bond_atom_site_label_1
_geom_bond_atom_site_label_2
_ccdc_geom_bond_type
C27   H13   S    
C31   C32   S    
C1    O3    A    
C7    C8    S    
C26   H17   S    
C36   H34   S    
C10   C22   S    
C34   H40   S    
C19   C21   A    
C8    N6    D    
C5    C6    S    
C11   H1    S    
C12   C22   A    
H11   N6    S    
C17   C19   A    
C25   H18   S    
C1    O1    A    
C2    O2    A    
C30   H21   S    
C29   H24   S    
C19   H3    S    
N5    Zn2   S    
N6    Zn1   S    
O2    Zn2   S    
C32   H31   S    
C17   C31   S    
H12   N5    S    
C35   H38   S    
C31   H32   S    
C18   C34   S    
C13   C25   S    
C26   H16   S    
C36   H35   S    
C32   C33   S    
C9    O7    A    
C35   C36   S    
C4    C6    D    
O5    Zn1   S    
C20   H4    S    
O3    Zn2   S    
O8    Zn1   S    
C25   C26   S    
O4    Zn1   S    
C11   C21   A    
C2    O4    A    
C12   H2    S    
C1    C3    S    
C2    C4    S    
C33   H27   S    
C25   H19   S    
C34   C35   S    
C30   H22   S    
C24   N1    A    
C29   H23   S    
C33   H28   S    
C28   H25   S    
C15   C24   S    
C20   C22   A    
C9    O5    A    
C16   C23   S    
C32   H30   S    
C13   C15   A    
C10   O6    A    
C7    H10   S    
C14   C16   A    
C35   H37   S    
C10   O8    A    
C31   H33   S    
C5    H6    S    
C36   H36   S    
C15   C17   A    
C26   C27   S    
O7    Zn2   S    
C12   C14   A    
C3    C5    D    
C23   N2    A    
C34   H39   S    
C29   C30   S    
C27   H14   S    
N1    N3    A    
N2    N4    A    
C11   C13   A    
C9    C21   S    
O1    Zn1   S    
C23   N3    A    
C14   C28   S    
C24   N4    A    
C18   C20   A    
C8    H9    S    
C7    N5    D    
C3    H8    S    
C33   H29   S    
C4    H7    S    
C28   C29   S    
O6    Zn2   S    
C6    H5    S    
C28   H26   S    
C16   C18   A    
C30   H20   S    
C27   H15   S    
