data_mof_unit_37762.cif
_audit_creation_date              2012-12-11T14:54:28-0500
_audit_creation_method            fapswitch 2.2
_symmetry_space_group_name_H-M    P1
_symmetry_Int_Tables_number       1
_space_group_crystal_system       triclinic
_cell_length_a                    18.900126
_cell_length_b                    11.008816
_cell_length_c                    18.710863
_cell_angle_alpha                 89.998042
_cell_angle_beta                  90.226357
_cell_angle_gamma                 90.48472
_cell_volume                      3892.9623234

loop_
_atom_site_label
_atom_site_type_symbol
_atom_type_description
_atom_site_fract_x
_atom_site_fract_y
_atom_site_fract_z
_atom_type_partial_charge
C1    C     C_R   0.711291 0.330792 0.637594 0.581342
C2    C     C_R   0.267348 0.382848 0.351336 0.567156
C3    C     C_R   0.232761 0.882663 0.648338 0.579102
C4    C     C_R   0.788697 0.830266 0.362507 0.573063
C5    C     C_3   0.425552 0.350776 0.471981 0.140018
C6    C     C_3   0.432651 0.335551 0.552865 0.119204
C7    C     C_3   0.068169 0.837456 0.447851 0.114742
C8    C     C_3   0.074490 0.852697 0.528826 0.142397
C9    C     C_R   0.720426 0.801318 0.555416 0.075553
C10   C     C_R   0.328608 0.933187 0.474045 0.119084
C11   C     C_R   0.172251 0.425481 0.524772 0.131499
C12   C     C_R   0.776212 0.301712 0.443083 0.063999
C13   C     C_R   0.724950 0.786917 0.480714 0.203272
C14   C     C_R   0.320633 0.902385 0.546789 0.189542
C15   C     C_R   0.181056 0.396282 0.452614 0.236629
C16   C     C_R   0.772494 0.285431 0.518067 0.152679
C17   C     C_R   0.781351 0.842576 0.441749 -0.039246
C18   C     C_R   0.261422 0.945122 0.584330 0.047801
C19   C     C_R   0.239249 0.443550 0.415305 0.028249
C20   C     C_R   0.717958 0.343134 0.558189 -0.022784
C21   C     C_R   0.835072 0.903389 0.481572 0.172665
C22   C     C_R   0.223891 0.042082 0.554648 0.263344
C23   C     C_R   0.275804 0.542652 0.444863 0.260735
C24   C     C_R   0.665044 0.406545 0.519297 0.193598
C25   C     C_R   0.828116 0.918244 0.554616 -0.072972
C26   C     C_R   0.226657 0.063243 0.481388 -0.120226
C27   C     C_R   0.272221 0.564188 0.518124 -0.114152
C28   C     C_R   0.671472 0.422034 0.446343 -0.087456
C29   C     C_R   0.765715 0.885134 0.589413 -0.070307
C30   C     C_R   0.274953 0.000868 0.438818 -0.006959
C31   C     C_R   0.224521 0.498655 0.560757 -0.046946
C32   C     C_R   0.732745 0.387434 0.410821 -0.024102
C33   C     C_R   0.546817 0.058028 0.980178 0.201470
C34   C     C_R   0.540994 0.071061 0.053230 0.212323
C35   C     C_R   0.046816 0.558039 0.980179 0.199695
C36   C     C_R   0.041001 0.571079 0.053232 0.213309
C37   C     C_R   0.503681 0.170661 0.079509 -0.016821
C38   C     C_R   0.540850 0.162091 0.936210 -0.008881
C39   C     C_R   0.003680 0.670670 0.079509 -0.013319
C40   C     C_R   0.040836 0.662095 0.936207 -0.008830
C41   C     C_R   0.487234 0.269506 0.034091 0.068356
C42   C     C_R   0.518308 0.273707 0.966574 0.067456
C43   C     C_R   0.987224 0.769510 0.034091 0.068685
C44   C     C_R   0.018288 0.773710 0.966568 0.066465
C45   C     C_R   0.537314 0.153690 0.643491 0.633936
C46   C     C_R   0.468849 0.156794 0.352372 0.559431
C47   C     C_R   0.030865 0.656375 0.647864 0.567467
C48   C     C_R   0.963168 0.654013 0.356297 0.614185
C49   C     C_R   0.770154 0.064524 0.982570 -0.170383
C50   C     C_R   0.217995 0.888510 0.047854 -0.086387
C51   C     C_R   0.270122 0.564572 0.982585 -0.172930
C52   C     C_R   0.718062 0.388410 0.047866 -0.090427
C53   C     C_R   0.776297 0.032933 0.053854 -0.159077
C54   C     C_R   0.209342 0.855251 0.977292 -0.185176
C55   C     C_R   0.276270 0.532971 0.053869 -0.154405
C56   C     C_R   0.709407 0.355160 0.977301 -0.182827
C57   C     C_R   0.748094 0.922090 0.077924 0.047158
C58   C     C_R   0.248158 0.913962 0.923738 0.049022
C59   C     C_R   0.248086 0.422109 0.077931 0.048103
C60   C     C_R   0.748164 0.413969 0.923740 0.050780
C61   C     C_R   0.711701 0.844481 0.029709 0.249791
C62   C     C_R   0.299347 0.002129 0.941106 0.243738
C63   C     C_R   0.211705 0.344495 0.029712 0.246749
C64   C     C_R   0.799284 0.502256 0.941105 0.242438
C65   C     C_R   0.709855 0.873797 0.958312 -0.025780
C66   C     C_R   0.308858 0.034136 0.012652 -0.079849
C67   C     C_R   0.209858 0.373816 0.958316 -0.022342
C68   C     C_R   0.808790 0.534262 0.012650 -0.075740
C69   C     C_R   0.736533 0.984964 0.935082 -0.010674
C70   C     C_R   0.266637 0.979709 0.065347 0.036824
C71   C     C_R   0.236521 0.484996 0.935089 -0.014447
C72   C     C_R   0.766637 0.479715 0.065352 0.040387
C73   C     C_R   0.744811 0.959134 0.652137 0.562656
C74   C     C_R   0.273842 0.021360 0.360271 0.581552
C75   C     C_R   0.226122 0.520796 0.639357 0.570790
C76   C     C_R   0.754817 0.459931 0.347913 0.573847
C77   C     C_R   0.731016 0.380544 0.851209 0.580009
C78   C     C_R   0.269532 0.378708 0.147748 0.563298
C79   C     C_R   0.231015 0.880540 0.851210 0.585120
C80   C     C_R   0.769534 0.878700 0.147746 0.559227
C81   C     C_R   0.561027 0.153534 0.861166 0.563573
C82   C     C_R   0.468622 0.157915 0.147651 0.564472
C83   C     C_R   0.061018 0.653535 0.861165 0.559136
C84   C     C_R   0.968625 0.657917 0.147653 0.574948
C85   C     C_R   0.728336 0.019799 0.861573 0.522827
C86   C     C_R   0.272480 0.019984 0.138419 0.546532
C87   C     C_R   0.228332 0.519815 0.861573 0.528185
C88   C     C_R   0.772481 0.519986 0.138421 0.542589
C89   C     C_R   0.505757 0.173655 0.419104 0.022407
C90   C     C_R   0.525386 0.158375 0.567072 0.066043
C91   C     C_R   0.975182 0.658156 0.432721 0.072759
C92   C     C_R   0.994231 0.672539 0.580973 0.015700
C93   C     C_R   0.487820 0.269639 0.464250 0.006874
C94   C     C_R   0.495164 0.259420 0.536490 0.005505
C95   C     C_R   0.005772 0.759109 0.463763 0.012776
C96   C     C_R   0.012514 0.769123 0.536032 0.008448
C97   C     C_R   0.559903 0.076045 0.520556 0.051513
C98   C     C_R   0.550084 0.083887 0.445860 0.043660
C99   C     C_R   0.950333 0.581410 0.553677 0.046382
C100  C     C_R   0.940642 0.574336 0.478931 0.064027
Cr1   Cr    Cr6+3 0.771950 0.169480 0.750100 1.123480
Cr2   Cr    Cr6+3 0.228050 0.169480 0.249900 1.162059
Cr3   Cr    Cr6+3 0.271950 0.669480 0.750100 1.130409
Cr4   Cr    Cr6+3 0.728050 0.669480 0.249900 1.156047
Cr5   Cr    Cr6+3 0.614930 0.323340 0.749170 1.108693
Cr6   Cr    Cr6+3 0.385070 0.323340 0.250830 1.111133
Cr7   Cr    Cr6+3 0.114930 0.823340 0.749170 1.117157
Cr8   Cr    Cr6+3 0.885070 0.823340 0.250830 1.106284
Cr9   Cr    Cr6+3 0.616590 0.010620 0.750610 1.115126
Cr10  Cr    Cr6+3 0.383410 0.010620 0.249390 1.141277
Cr11  Cr    Cr6+3 0.116590 0.510620 0.750610 1.123134
Cr12  Cr    Cr6+3 0.883410 0.510620 0.249390 1.126480
H1    H     H_    0.792675 0.149616 0.964145 0.155590
H2    H     H_    0.186452 0.844154 0.088637 0.161389
H3    H     H_    0.292626 0.649680 0.964164 0.154823
H4    H     H_    0.686569 0.343974 0.088657 0.151948
H5    H     H_    0.804900 0.093205 0.089734 0.168763
H6    H     H_    0.171886 0.783723 0.964175 0.077926
H7    H     H_    0.304862 0.593249 0.089756 0.174969
H8    H     H_    0.671990 0.283572 0.964186 0.078480
H9    H     H_    0.685274 0.810622 0.921155 0.208862
H10   H     H_    0.347286 0.103499 0.026950 0.103342
H11   H     H_    0.185289 0.310632 0.921157 0.214476
H12   H     H_    0.847158 0.603720 0.026943 0.104262
H13   H     H_    0.054845 0.921492 0.418024 0.232618
H14   H     H_    0.123837 0.816298 0.552463 0.126797
H15   H     H_    0.376107 0.312617 0.448618 0.129619
H16   H     H_    0.446131 0.420012 0.582595 0.231157
H17   H     H_    0.869086 0.968251 0.582878 0.252832
H18   H     H_    0.192780 0.130979 0.458188 0.209287
H19   H     H_    0.304985 0.634660 0.541288 0.204391
H20   H     H_    0.631076 0.472953 0.418611 0.249101
O1    O     O_R   0.787510 0.042610 0.670410 -0.459651
O2    O     O_R   0.212490 0.042610 0.329590 -0.456424
O3    O     O_R   0.287510 0.542610 0.670410 -0.432738
O4    O     O_R   0.712490 0.542610 0.329590 -0.485954
O5    O     O_R   0.556450 0.252890 0.823790 -0.459529
O6    O     O_R   0.443550 0.252890 0.176210 -0.482701
O7    O     O_R   0.056450 0.752890 0.823790 -0.462788
O8    O     O_R   0.943550 0.752890 0.176210 -0.480581
O9    O     O_R   0.545750 0.051070 0.830560 -0.405807
O10   O     O_R   0.454250 0.051070 0.169440 -0.452807
O11   O     O_R   0.045750 0.551070 0.830560 -0.407296
O12   O     O_R   0.954250 0.551070 0.169440 -0.451933
O13   O     O_R   0.681210 0.959150 0.825320 -0.497045
O14   O     O_R   0.318790 0.959150 0.174680 -0.484716
O15   O     O_R   0.181210 0.459150 0.825320 -0.472932
O16   O     O_R   0.818790 0.459150 0.174680 -0.502789
O17   O     O_3   0.667820 0.167810 0.749960 -0.365305
O18   O     O_3   0.332180 0.167810 0.250040 -0.366458
O19   O     O_3   0.167820 0.667810 0.749960 -0.376766
O20   O     O_3   0.832180 0.667810 0.250040 -0.353901
O21   O     O_R   0.765670 0.292090 0.675090 -0.430261
O22   O     O_R   0.234330 0.292090 0.324910 -0.488176
O23   O     O_R   0.265670 0.792090 0.675090 -0.479344
O24   O     O_R   0.734330 0.792090 0.324910 -0.439493
O25   O     O_R   0.670220 0.409020 0.668560 -0.447835
O26   O     O_R   0.329780 0.409020 0.331440 -0.444583
O27   O     O_R   0.170220 0.909020 0.668560 -0.444795
O28   O     O_R   0.829780 0.909020 0.331440 -0.453082
O29   O     O_R   0.556580 0.251590 0.674980 -0.488828
O30   O     O_R   0.443420 0.251590 0.325020 -0.499246
O31   O     O_R   0.056580 0.751590 0.674980 -0.485245
O32   O     O_R   0.943420 0.751590 0.325020 -0.495708
O33   O     O_R   0.545890 0.049670 0.670030 -0.438665
O34   O     O_R   0.454110 0.049670 0.329970 -0.465174
O35   O     O_R   0.045890 0.549670 0.670030 -0.508046
O36   O     O_R   0.954110 0.549670 0.329970 -0.437273
O37   O     O_R   0.681340 0.957860 0.676500 -0.497391
O38   O     O_R   0.318660 0.957860 0.323500 -0.410958
O39   O     O_R   0.181340 0.457860 0.676500 -0.467042
O40   O     O_R   0.818660 0.457860 0.323500 -0.453078
O41   O     O_R   0.787380 0.044010 0.830940 -0.478445
O42   O     O_R   0.212620 0.044010 0.169060 -0.436891
O43   O     O_R   0.287380 0.544010 0.830940 -0.460772
O44   O     O_R   0.712620 0.544010 0.169060 -0.451926
O45   O     O_R   0.765540 0.293390 0.823910 -0.497230
O46   O     O_R   0.234460 0.293390 0.176090 -0.439969
O47   O     O_R   0.265540 0.793390 0.823910 -0.500127
O48   O     O_R   0.734460 0.793390 0.176090 -0.438043
O49   O     O_R   0.670090 0.410410 0.829090 -0.520964
O50   O     O_R   0.329910 0.410410 0.170910 -0.504848
O51   O     O_R   0.170090 0.910410 0.829090 -0.508522
O52   O     O_R   0.829910 0.910410 0.170910 -0.512805
N1    N     N_3   0.605292 0.985956 0.548715 -0.581897
H21   H     H_    0.586288 0.901670 0.531308 0.290952
H22   H     H_    0.655159 0.002964 0.526995 0.222609
N2    N     N_3   0.580544 0.997297 0.397877 -0.561864
H23   H     H_    0.635480 0.998188 0.404424 0.249271
H24   H     H_    0.560717 0.911105 0.410370 0.298138
N3    N     N_3   0.919906 0.493141 0.601210 -0.554231
H25   H     H_    0.864965 0.492715 0.594811 0.254880
H26   H     H_    0.939585 0.407630 0.588207 0.299269
N4    N     N_3   0.895155 0.483602 0.450440 -0.562119
H27   H     H_    0.914229 0.400109 0.467818 0.284357
H28   H     H_    0.845467 0.499305 0.472439 0.220240
Cl1   Cl    Cl    0.664527 0.712182 0.053600 -0.497454
Cl2   Cl    Cl    0.350021 0.075524 0.875022 -0.496863
Cl3   Cl    Cl    0.164544 0.212180 0.053595 -0.497185
Cl4   Cl    Cl    0.849880 0.575816 0.875029 -0.537084
Cl5   Cl    Cl    0.450728 0.499117 0.442935 -0.455172
Cl6   Cl    Cl    0.361683 0.249495 0.590708 -0.564976
Cl7   Cl    Cl    0.139557 0.753621 0.410676 -0.590923
Cl8   Cl    Cl    0.048115 0.999555 0.558022 -0.433684
N5    N     N_3   0.670854 0.729137 0.595377 -0.483443
H29   H     H_    0.632973 0.783289 0.619625 0.283979
H30   H     H_    0.698681 0.683554 0.635493 0.256040
N6    N     N_3   0.393034 0.904166 0.438079 -0.513222
H31   H     H_    0.433583 0.951064 0.464351 0.245841
H32   H     H_    0.403739 0.812106 0.444563 0.330506
N7    N     N_3   0.105176 0.393929 0.554934 -0.499176
H33   H     H_    0.076316 0.473167 0.558416 0.237148
H34   H     H_    0.108534 0.349345 0.603677 0.325161
N8    N     N_3   0.822146 0.231286 0.398892 -0.543595
H35   H     H_    0.873922 0.234762 0.418114 0.319505
H36   H     H_    0.804339 0.141344 0.401279 0.286704
Cl9   Cl    Cl    0.652878 0.713962 0.438733 -0.533609
Cl10  Cl    Cl    0.389000 0.823126 0.591337 -0.533198
Cl11  Cl    Cl    0.112118 0.316586 0.407638 -0.474903
Cl12  Cl    Cl    0.843043 0.209261 0.559220 -0.580963
Cl13  Cl    Cl    0.908700 0.979101 0.444034 -0.542575
Cl14  Cl    Cl    0.182410 0.147875 0.610360 -0.438466
Cl15  Cl    Cl    0.317021 0.649652 0.388672 -0.449493
Cl16  Cl    Cl    0.593142 0.484469 0.557450 -0.490075
Cl17  Cl    Cl    0.549045 0.907303 0.947225 -0.465914
Cl18  Cl    Cl    0.573341 0.955283 0.110178 -0.460482
Cl19  Cl    Cl    0.049051 0.407311 0.947232 -0.464730
Cl20  Cl    Cl    0.073366 0.455320 0.110183 -0.448970
N9    N     N_3   0.433063 0.355310 0.053164 -0.538048
H37   H     H_    0.386832 0.304509 0.061047 0.216252
H38   H     H_    0.418677 0.410757 0.010434 0.251269
N10   N     N_3   0.523718 0.387562 0.928568 -0.530686
H39   H     H_    0.577033 0.401280 0.917445 0.256332
H40   H     H_    0.513764 0.461237 0.962020 0.259442
N11   N     N_3   0.933059 0.855313 0.053174 -0.538417
H41   H     H_    0.886827 0.804524 0.061046 0.216319
H42   H     H_    0.918682 0.910789 0.010459 0.250686
N12   N     N_3   0.023672 0.887561 0.928552 -0.532863
H43   H     H_    0.076978 0.901286 0.917393 0.257448
H44   H     H_    0.013745 0.961234 0.962010 0.260050

loop_
_geom_bond_atom_site_label_1
_geom_bond_atom_site_label_2
_ccdc_geom_bond_type
C58   C62   A    
C49   H1    S    
C49   C53   A    
C15   C19   A    
C93   C94   A    
Cr6   O18   S    
C44   N12   S    
C55   C59   A    
Cr8   O32   S    
C34   C37   A    
C27   H19   S    
C41   C42   A    
C14   C18   A    
N4    H28   S    
C95   C96   A    
C8    C96   S    
C12   N8    S    
C82   O10   A    
C25   H17   S    
C68   H12   S    
Cr3   O19   S    
C83   O7    A    
C97   C98   A    
C76   O4    A    
C69   C85   S    
C7    C8    S    
Cr4   O44   S    
C46   C89   S    
Cr12  O40   S    
N5    H29   S    
C97   N1    S    
C22   Cl14  S    
C50   C54   A    
C87   O15   A    
C37   C41   A    
C35   Cl19  S    
C10   N6    S    
C80   O48   A    
C16   C20   A    
C34   Cl18  S    
C85   O13   A    
C39   C84   S    
C38   C42   A    
C33   Cl17  S    
C5    Cl5   S    
C5    C6    S    
C30   C74   S    
C53   H5    S    
N1    H22   S    
C29   C73   S    
C84   O12   A    
C86   O42   A    
Cr12  O36   S    
C92   C96   A    
C45   O29   A    
C3    C18   S    
N2    H24   S    
C47   C92   S    
C23   Cl15  S    
C57   C61   A    
C76   O40   A    
C9    C13   A    
Cr6   O50   S    
C7    Cl7   S    
Cr1   O17   S    
C11   N7    S    
Cr8   O20   S    
C11   C15   A    
Cr10  O10   S    
Cr5   O25   S    
C35   C36   A    
C63   Cl3   S    
N6    H31   S    
C6    C94   S    
C48   C91   S    
C98   N2    S    
N11   H41   S    
C66   H10   S    
C4    O28   A    
C65   H9    S    
C91   C100  A    
C17   C21   A    
C18   C22   A    
C46   O34   A    
Cr2   O22   S    
C90   C97   A    
Cr3   O47   S    
C26   H18   S    
C9    C29   A    
C47   O31   A    
C81   O9    A    
N4    H27   S    
C48   O32   A    
C11   C31   A    
C36   Cl20  S    
C49   C69   A    
C12   C32   A    
C3    O27   A    
N11   H42   S    
C57   C80   S    
C40   C83   S    
C51   C71   A    
C86   O14   A    
C59   C78   S    
N10   H40   S    
C72   C88   S    
Cr9   O37   S    
C90   C94   A    
C63   C67   A    
Cr5   O17   S    
C52   H4    S    
C25   C29   A    
Cr7   O27   S    
N12   H44   S    
C60   C77   S    
Cr1   O41   S    
Cr8   O52   S    
C27   C31   A    
N3    H25   S    
C12   C16   A    
C28   C32   A    
C62   Cl2   S    
C10   C14   A    
C61   Cl1   S    
C77   O49   A    
Cr8   O8    S    
C62   C66   A    
N8    H35   S    
Cr9   O9    S    
C55   H7    S    
C56   H8    S    
C51   C55   A    
Cr1   O21   S    
Cr6   O26   S    
Cr5   O5    S    
C77   O45   A    
Cr12  O16   S    
Cr7   O51   S    
N2    H23   S    
C28   H20   S    
C81   O5    A    
C43   C44   A    
N3    H26   S    
N9    H37   S    
C52   C72   A    
Cr11  O15   S    
C47   O35   A    
C10   C30   A    
C85   O41   A    
N7    H33   S    
C48   O36   A    
C8    Cl8   S    
Cr9   O17   S    
C68   C72   A    
Cr1   O1    S    
C5    H15   S    
Cr3   O43   S    
C33   C34   A    
C88   O16   A    
C78   O50   A    
C7    H13   S    
C1    O21   A    
C45   C90   S    
Cr9   O33   S    
C58   C79   S    
Cr2   O18   S    
C71   C87   S    
C4    C17   S    
Cr10  O38   S    
Cr3   O23   S    
N7    H34   S    
Cr6   O6    S    
C41   N9    S    
C26   C30   A    
C23   C27   A    
C64   Cl4   S    
C38   C81   S    
C75   O39   A    
Cr2   O46   S    
Cr5   O29   S    
C37   C82   S    
Cr4   O24   S    
Cr11  O35   S    
C3    O23   A    
C15   Cl11  S    
C70   C86   S    
C64   C68   A    
C31   C75   S    
C7    C95   S    
C19   C23   A    
C54   C58   A    
C8    H14   S    
C21   C25   A    
N12   H43   S    
C1    C20   S    
C53   C57   A    
C21   Cl13  S    
Cr4   O4    S    
C4    O24   A    
C2    C19   S    
C78   O46   A    
C6    H16   S    
C67   H11   S    
C36   C39   A    
Cr9   O13   S    
C24   C28   A    
C80   O52   A    
C73   O1    A    
Cr10  O18   S    
Cr11  O19   S    
Cr12  O20   S    
C32   C76   S    
C5    C93   S    
C6    Cl6   S    
Cr8   O28   S    
C100  N4    S    
Cr2   O42   S    
C87   O43   A    
C66   C70   A    
C59   C63   A    
C33   C38   A    
C88   O44   A    
C99   C100  A    
C13   C17   A    
C89   C98   A    
C60   C64   A    
C13   Cl9   S    
Cr12  O12   S    
C54   H6    S    
C35   C40   A    
C50   C70   A    
N8    H36   S    
Cr7   O19   S    
N9    H38   S    
N6    H32   S    
C9    N5    S    
C82   O6    A    
C99   N3    S    
Cr10  O34   S    
Cr11  O11   S    
Cr4   O20   S    
N1    H21   S    
Cr4   O48   S    
C75   O3    A    
C45   O33   A    
C65   C69   A    
C74   O2    A    
C1    O25   A    
N10   H39   S    
C79   O51   A    
C16   Cl12  S    
C67   C71   A    
Cr6   O30   S    
C24   Cl16  S    
C89   C93   A    
Cr3   O3    S    
C74   O38   A    
Cr1   O45   S    
C51   H3    S    
C91   C95   A    
Cr2   O2    S    
C61   C65   A    
C40   C44   A    
C79   O47   A    
C56   C60   A    
C2    O26   A    
C84   O8    A    
C2    O22   A    
C22   C26   A    
C39   C43   A    
C50   H2    S    
C14   Cl10  S    
C83   O11   A    
C43   N11   S    
Cr7   O31   S    
Cr5   O49   S    
Cr10  O14   S    
N5    H30   S    
C73   O37   A    
C20   C24   A    
Cr7   O7    S    
C52   C56   A    
C92   C99   A    
C46   O30   A    
Cr11  O39   S    
C42   N10   S    
