data_mof_unit_35897.cif
_audit_creation_date              2012-12-11T18:40:01-0500
_audit_creation_method            fapswitch 2.2
_symmetry_space_group_name_H-M    P1
_symmetry_Int_Tables_number       1
_space_group_crystal_system       triclinic
_cell_length_a                    8.253679
_cell_length_b                    14.257367
_cell_length_c                    19.073911
_cell_angle_alpha                 96.975501
_cell_angle_beta                  92.073885
_cell_angle_gamma                 91.530614
_cell_volume                      2225.36846149

loop_
_atom_site_label
_atom_site_type_symbol
_atom_type_description
_atom_site_fract_x
_atom_site_fract_y
_atom_site_fract_z
_atom_type_partial_charge
Ba1   Ba    Ba6+2 0.843770 0.541130 0.463760 1.665153
Ba2   Ba    Ba6+2 0.346040 0.458940 0.536250 1.679217
Br1   Br    Br    0.964039 0.018588 0.659911 -0.648409
C1    C     C_3   0.626238 0.890780 0.280522 -0.286203
C2    C     C_R   0.011397 0.534977 0.725155 0.031767
C3    C     C_R   0.871931 0.417652 0.813937 -0.166622
C4    C     C_3   0.086660 0.751176 0.262203 0.316634
C5    C     C_R   0.802652 0.423334 0.746748 -0.002210
C6    C     C_R   0.316817 0.583021 0.186668 -0.177026
C7    C     C_R   0.388166 0.576140 0.253362 0.001329
C8    C     C_R   0.146030 0.447317 0.200918 -0.146260
C9    C     C_R   0.179695 0.464224 0.274824 0.056751
C10   C     C_R   0.985670 0.488025 0.845564 0.005295
C11   C     C_R   0.884136 0.473149 0.700314 -0.247640
C12   C     C_3   0.606178 0.794457 0.306376 0.337127
C13   C     C_R   0.203784 0.512335 0.154830 0.001200
C14   C     C_R   0.308950 0.524518 0.299474 -0.236871
C15   C     C_R   0.768774 0.441564 0.961729 -0.085138
C16   C     C_3   0.035545 0.774708 0.188606 0.365380
C17   C     C_R   0.671433 0.405036 0.010360 -0.071438
C18   C     C_R   0.719116 0.418298 0.080858 -0.057456
C19   C     C_R   0.867449 0.462953 0.101091 -0.083782
C20   C     C_R   0.985356 0.479134 0.051843 0.019449
C21   C     C_R   0.932851 0.470763 0.978425 0.045891
C22   C     C_R   0.148251 0.507169 0.075501 -0.008197
C23   C     C_3   0.505847 0.311508 0.324665 0.305122
C24   C     C_R   0.256070 0.530093 0.022093 0.044975
C25   C     C_R   0.203789 0.521019 0.948641 0.014208
C26   C     C_R   0.040779 0.493468 0.924997 -0.003628
C27   C     C_R   0.420009 0.559781 0.038779 -0.088049
C28   C     C_3   0.242906 0.747979 0.625051 0.348103
C29   C     C_R   0.517377 0.595549 0.989837 -0.039327
C30   C     C_R   0.470504 0.580381 0.919300 0.019431
C31   C     C_R   0.322156 0.535613 0.899298 -0.077696
C32   C     C_R   0.686918 0.940893 0.543622 -0.012307
C33   C     C_R   0.510309 0.801595 0.497691 0.009563
C34   C     C_3   0.486476 0.283451 0.245245 -0.366837
C35   C     C_R   0.370753 0.765943 0.458743 -0.289002
C36   C     C_R   0.265677 0.826246 0.428815 0.010286
C37   C     C_R   0.309552 0.921297 0.429532 -0.119747
C38   C     C_R   0.454823 0.957648 0.464346 -0.005011
C39   C     C_R   0.552739 0.899321 0.502034 -0.044753
C40   C     C_3   0.239637 0.854651 0.628949 -0.288773
C41   C     C_R   0.639465 0.092541 0.501322 -0.054208
C42   C     C_R   0.731857 0.036941 0.543754 -0.020423
C43   C     C_R   0.686732 0.187861 0.499682 0.015188
C44   C     C_R   0.827112 0.225522 0.536518 -0.325803
C45   C     C_3   0.114496 0.258634 0.740789 0.374491
C46   C     C_R   0.923324 0.170511 0.575481 0.002812
C47   C     C_R   0.869146 0.078418 0.584195 0.164738
C48   C     C_R   0.500408 0.052269 0.463072 -0.031112
C49   C     C_3   0.010662 0.247879 0.388902 0.291590
C50   C     C_3   0.007591 0.140403 0.375981 -0.334736
C51   C     C_3   0.686508 0.674180 0.672721 0.321559
C52   C     C_3   0.729831 0.706250 0.750673 0.371008
C53   C     C_3   0.156520 0.232189 0.814126 -0.329331
C54   C     C_3   0.586310 0.207165 0.700063 0.333345
C55   C     C_3   0.556079 0.112645 0.727608 -0.308482
C56   C     C_R   0.044864 0.552287 0.799153 -0.144297
H1    H     H_    0.676330 0.795122 0.357235 0.085321
H2    H     H_    0.791882 0.639116 0.648251 -0.077412
H3    H     H_    0.583017 0.622634 0.668845 0.050156
H4    H     H_    0.755644 0.906857 0.272307 0.178410
H5    H     H_    0.843827 0.750121 0.755328 0.057244
H6    H     H_    0.749187 0.643378 0.778448 -0.106772
H7    H     H_    0.475755 0.782567 0.315347 -0.068890
H8    H     H_    0.581116 0.946248 0.320113 0.065126
H9    H     H_    0.387364 0.334953 0.344795 0.008368
H10   H     H_    0.596668 0.371054 0.334489 0.072706
H11   H     H_    0.391701 0.226236 0.233313 0.150921
H12   H     H_    0.221110 0.886337 0.684181 0.202709
H13   H     H_    0.450117 0.345420 0.219101 0.048784
H14   H     H_    0.603425 0.258376 0.223897 0.131551
H15   H     H_    0.555938 0.891748 0.229957 0.168599
H16   H     H_    0.097372 0.727449 0.148136 -0.044413
H17   H     H_    0.153755 0.333556 0.739080 0.042232
H18   H     H_    0.981250 0.250085 0.731715 -0.038576
H19   H     H_    0.287307 0.246521 0.827718 0.145550
H20   H     H_    0.085722 0.274416 0.854187 0.060293
H21   H     H_    0.127882 0.155954 0.815967 0.160529
H22   H     H_    0.719309 0.217727 0.696346 -0.055465
H23   H     H_    0.356506 0.883656 0.612621 0.065331
H24   H     H_    0.527432 0.204463 0.646482 0.080517
H25   H     H_    0.605056 0.054767 0.690719 0.131182
H26   H     H_    0.423744 0.098290 0.731835 0.162288
H27   H     H_    0.058842 0.674293 0.263916 -0.024997
H28   H     H_    0.617131 0.113183 0.780798 0.133849
H29   H     H_    0.122452 0.612685 0.819024 0.118940
H30   H     H_    0.830551 0.360010 0.841250 0.072223
H31   H     H_    0.356693 0.641244 0.159597 0.089948
H32   H     H_    0.069054 0.386712 0.180938 0.071186
H33   H     H_    0.841422 0.468566 0.645671 0.068619
H34   H     H_    0.140938 0.873660 0.592525 0.136210
H35   H     H_    0.353492 0.527320 0.353759 0.064472
H36   H     H_    0.706606 0.451451 0.913132 0.069969
H37   H     H_    0.550159 0.377713 0.994599 0.080769
H38   H     H_    0.635850 0.401050 0.120280 0.084631
H39   H     H_    0.219651 0.765934 0.270759 -0.046088
H40   H     H_    0.886970 0.485928 0.155819 0.129660
H41   H     H_    0.482392 0.550573 0.087498 0.078328
H42   H     H_    0.638559 0.623145 0.005464 0.100740
H43   H     H_    0.554776 0.595911 0.879844 0.134939
H44   H     H_    0.302754 0.510923 0.844786 0.130121
H45   H     H_    0.888316 0.271859 0.402211 0.000958
H46   H     H_    0.337236 0.691692 0.456251 0.071119
H47   H     H_    0.228789 0.966982 0.404473 0.097157
H48   H     H_    0.865627 0.297761 0.532458 0.068463
H49   H     H_    0.759095 0.898463 0.574882 0.160834
H50   H     H_    0.902905 0.761156 0.179202 0.074651
H51   H     H_    0.425586 0.093534 0.431566 0.096575
H52   H     H_    0.363664 0.729454 0.644363 0.089830
H53   H     H_    0.218525 0.716466 0.569362 -0.031665
H54   H     H_    0.502999 0.918153 0.793897 0.359643
H55   H     H_    0.936983 0.008555 0.146117 0.362936
H56   H     H_    0.098012 0.271031 0.433604 0.072591
H57   H     H_    0.913499 0.114623 0.334563 0.144817
H58   H     H_    0.980219 0.110099 0.425196 0.048584
H59   H     H_    0.127887 0.115809 0.358563 0.148682
O1    O     O_2   0.890230 0.433890 0.328780 -0.467040
O2    O     O_2   0.254154 0.172528 0.557230 -0.474709
O3    O     O_3   0.194781 0.198912 0.690431 -0.552451
O4    O     O_3   0.136580 0.442380 0.417110 -0.497041
O5    O     O_3   0.551510 0.615640 0.531790 -0.504988
O6    O     O_2   0.394780 0.268760 0.474430 -0.464543
O7    O     O_3   0.557157 0.233475 0.356907 -0.639735
O8    O     O_2   0.478914 0.462937 0.758829 -0.495020
O9    O     O_3   0.520986 0.279420 0.746302 -0.592985
O10   O     O_3   0.636390 0.607640 0.365630 -0.475502
O11   O     O_2   0.714203 0.542127 0.240508 -0.504207
O12   O     O_3   0.647812 0.752774 0.638740 -0.605532
O13   O     O_3   0.056752 0.283458 0.327238 -0.628129
O14   O     O_3   0.663612 0.724642 0.255702 -0.592004
O15   O     O_2   0.794910 0.731270 0.525620 -0.439761
O16   O     O_3   0.045950 0.658760 0.399470 -0.478659
O17   O     O_2   0.936536 0.827584 0.446221 -0.483037
O18   O     O_2   0.418330 0.714716 0.789191 -0.316183
O19   O     O_2   0.625791 0.799626 0.870023 -0.276145
O20   O     O_3   0.544040 0.871836 0.755414 -0.504996
O21   O     O_2   0.121939 0.955026 0.246636 -0.326317
O22   O     O_2   0.228125 0.897887 0.131127 -0.257044
O23   O     O_3   0.999304 0.806110 0.313256 -0.573402
O24   O     O_3   0.922202 0.938815 0.136251 -0.492408
O25   O     O_2   0.299470 0.566150 0.671260 -0.462539
O26   O     O_3   0.053110 0.557700 0.582890 -0.483501
O27   O     O_3   0.553300 0.392440 0.634370 -0.469023
O28   O     O_3   0.126623 0.716295 0.668936 -0.607688
O29   O     O_3   0.638180 0.384440 0.468210 -0.482473
O30   O     O_3   0.143740 0.341320 0.600540 -0.491543
P1    P     P_3+3 0.064140 0.407250 0.340900 0.978817
P2    P     P_3+3 0.622060 0.719380 0.547490 0.973776
P3    P     P_3+3 0.063294 0.780571 0.396963 0.980740
P4    P     P_3+3 0.125560 0.592830 0.659110 1.019739
P5    P     P_3+3 0.126861 0.219957 0.606083 0.995947
P6    P     P_3+3 0.598926 0.614190 0.276821 0.942958
P7    P     P_3+3 0.572985 0.266412 0.448384 0.933703
P8    P     P_3+3 0.590658 0.387999 0.723481 0.940696
S1    S     S_3+6 0.573662 0.773061 0.793731 -0.057205
S2    S     S_3+6 0.083671 0.895261 0.176750 -0.056388

loop_
_geom_bond_atom_site_label_1
_geom_bond_atom_site_label_2
_ccdc_geom_bond_type
O1    P1    D    
Ba2   O25   S    
C4    H39   S    
C36   P3    S    
Ba2   O26   S    
C38   C39   A    
C45   H17   S    
C33   C39   A    
C29   H42   S    
Ba1   O10   S    
C55   H28   S    
C7    P6    S    
C44   C46   A    
Ba2   O5    S    
C49   C50   S    
Ba2   O27   S    
C43   P7    S    
C1    H4    S    
C53   H20   S    
O3    P5    S    
C15   C21   A    
H55   O24   S    
C46   P5    S    
C25   C26   A    
C6    C13   A    
C35   C36   A    
C50   H58   S    
C4    H27   S    
C7    C14   A    
Ba2   O30   S    
C51   C52   S    
C27   H41   S    
C53   H19   S    
Ba1   Ba2   S    
Ba1   O1    S    
C32   C39   A    
C56   H29   S    
C32   H49   S    
O22   S2    D    
Ba1   O4    S    
O27   P8    S    
C12   O14   S    
O21   S2    D    
C9    C14   A    
O12   P2    S    
O14   P6    S    
C28   H53   S    
C54   H24   S    
Ba1   P1    S    
O29   P7    S    
C6    C7    A    
C1    H15   S    
C50   H57   S    
O10   P6    S    
C16   H50   S    
C17   H37   S    
O5    P2    S    
C25   C31   A    
C18   C19   A    
C24   C27   A    
C15   H36   S    
C28   O28   S    
C34   H13   S    
O7    P7    S    
O24   S2    S    
Ba1   O15   S    
C52   H6    S    
Br1   C47   S    
C41   C43   A    
Ba2   O4    S    
Ba2   P4    S    
C51   O12   S    
C2    C56   A    
C30   H43   S    
O4    P1    S    
C40   H12   S    
C36   C37   A    
C50   H59   S    
C3    C5    A    
C51   H3    S    
Ba2   O29   S    
C12   H7    S    
C23   O7    S    
C45   H18   S    
C6    H31   S    
Ba1   O5    S    
C55   H25   S    
C18   H38   S    
C8    C13   A    
C52   S1    S    
C20   C21   A    
C52   H5    S    
C30   C31   A    
Ba1   P2    S    
C2    P4    S    
C11   H33   S    
C2    C11   A    
C28   C40   S    
O28   P4    S    
O18   S1    D    
C41   C48   A    
C37   C38   A    
C48   H51   S    
C44   H48   S    
C54   H22   S    
C16   S2    S    
O13   P1    S    
O30   P5    S    
Ba1   O16   S    
C32   C42   A    
C55   H26   S    
C4    O23   S    
C41   C42   A    
O23   P3    S    
C37   H47   S    
C49   H56   S    
C10   C26   S    
C13   C22   S    
C45   C53   S    
C34   H14   S    
C43   C44   A    
C49   H45   S    
C5    C11   A    
C19   H40   S    
C19   C20   A    
C49   O13   S    
C9    P1    S    
O15   P2    D    
O9    P8    S    
C54   O9    S    
C1    H8    S    
C8    C9    A    
C23   C34   S    
C10   C56   A    
C51   H2    S    
Ba2   O6    S    
C22   C24   A    
C3    H30   S    
C4    C16   S    
C31   H44   S    
C53   H21   S    
O19   S1    D    
C23   H9    S    
C29   C30   A    
C1    C12   S    
C16   H16   S    
O26   P4    S    
Ba1   O26   S    
C3    C10   A    
C27   C29   A    
O20   S1    S    
C33   P2    S    
C54   C55   S    
O11   P6    D    
C42   C47   A    
C35   H46   S    
O17   P3    D    
O16   P3    S    
C33   C35   A    
O2    P5    D    
C40   H34   S    
C15   C17   A    
C20   C22   A    
C5    P8    S    
Ba1   O29   S    
C8    H32   S    
C21   C26   A    
C17   C18   A    
C46   C47   A    
O6    P7    D    
C24   C25   A    
C23   H10   S    
C28   H52   S    
H54   O20   S    
C14   H35   S    
C45   O3    S    
C34   H11   S    
C38   C48   A    
C12   H1    S    
O25   P4    D    
C40   H23   S    
O8    P8    D    
