data_mof_unit_36757.cif
_audit_creation_date              2012-12-10T17:32:14-0500
_audit_creation_method            fapswitch 2.2
_symmetry_space_group_name_H-M    P1
_symmetry_Int_Tables_number       1
_space_group_crystal_system       triclinic
_cell_length_a                    12.31742
_cell_length_b                    12.951735
_cell_length_c                    14.993902
_cell_angle_alpha                 78.67427
_cell_angle_beta                  100.439006
_cell_angle_gamma                 115.998183
_cell_volume                      2095.77704423

loop_
_atom_site_label
_atom_site_type_symbol
_atom_type_description
_atom_site_fract_x
_atom_site_fract_y
_atom_site_fract_z
_atom_type_partial_charge
C1    C     C_R   0.855498 0.285346 0.505537 0.819182
C2    C     C_R   0.041714 0.604162 0.083896 0.057894
C3    C     C_R   0.912855 0.286774 0.065256 0.346231
C4    C     C_R   0.917746 0.290562 0.972092 0.342475
C5    C     C_R   0.965511 0.398028 0.916542 -0.048534
C6    C     C_R   0.006447 0.503016 0.953499 -0.000228
C7    C     C_R   0.049427 0.611436 0.896186 0.049900
C8    C     C_R   0.107523 0.715555 0.936913 -0.006456
C9    C     C_R   0.091628 0.712474 0.028624 -0.071277
C10   C     C_R   0.970423 0.402421 0.823778 -0.028513
C11   C     C_R   0.001912 0.506547 0.766221 -0.118427
C12   C     C_R   0.000477 0.502433 0.670316 0.803075
C13   C     C_R   0.035147 0.611372 0.799907 -0.070439
C14   C     C_R   0.271747 0.045210 0.429447 0.442379
C15   C     C_R   0.226241 0.840660 0.480786 -0.198141
C16   C     C_R   0.814806 0.072829 0.549363 -0.085608
C17   C     C_R   0.729811 0.963701 0.583269 0.348503
C18   C     C_R   0.606435 0.937184 0.566773 -0.183549
C19   C     C_R   0.562954 0.013828 0.508255 0.051198
C20   C     C_R   0.648122 0.124879 0.476020 0.002431
C21   C     C_R   0.436951 0.984305 0.482960 0.004952
C22   C     C_R   0.396778 0.069684 0.435519 -0.066411
C23   C     C_R   0.144662 0.715038 0.489271 0.785992
C24   C     C_R   0.483378 0.174168 0.394072 0.394798
C25   C     C_R   0.606022 0.197647 0.411633 -0.196618
C26   C     C_R   0.350581 0.870278 0.499776 -0.205047
C27   C     C_R   0.185626 0.930173 0.451941 -0.124327
C28   C     C_R   0.773776 0.159432 0.506271 -0.155009
C29   C     C_R   0.351909 0.330906 0.645569 -0.272649
C30   C     C_R   0.749346 0.622298 0.363418 0.007327
C31   C     C_R   0.640526 0.625271 0.318619 -0.091709
C32   C     C_R   0.533576 0.569072 0.364254 0.011532
C33   C     C_R   0.541742 0.518533 0.457450 -0.075348
C34   C     C_R   0.999992 0.498100 0.329599 0.755874
C35   C     C_R   0.655892 0.516630 0.497083 0.140610
C36   C     C_R   0.442765 0.467681 0.514386 -0.011821
C37   C     C_R   0.451578 0.390618 0.594471 -0.000201
C38   C     C_R   0.564600 0.385401 0.626144 -0.068133
C39   C     C_R   0.667162 0.475394 0.590053 0.002221
C40   C     C_R   0.339177 0.493649 0.498925 -0.024555
C41   C     C_R   0.250130 0.354957 0.623746 0.609736
C42   C     C_R   0.028345 0.598172 0.175591 -0.181505
C43   C     C_R   0.000152 0.494594 0.233722 -0.103550
C44   C     C_R   0.977378 0.391619 0.201337 -0.096601
C45   C     C_R   0.966023 0.390976 0.105594 -0.038538
C46   C     C_R   0.005826 0.499415 0.047759 0.022172
Cu1   Cu    Cu3+1 0.098270 0.475420 0.521130 1.030053
Cu2   Cu    Cu3+1 0.901730 0.524580 0.478870 0.956546
H1    H     H_    0.046398 0.675077 0.204689 0.120970
H2    H     H_    0.379573 0.801329 0.522753 0.172396
H3    H     H_    0.546758 0.855000 0.600188 0.169570
H4    H     H_    0.668329 0.272966 0.372268 0.191546
H5    H     H_    0.353673 0.270550 0.706060 0.170551
H6    H     H_    0.333715 0.562166 0.447140 0.147543
H7    H     H_    0.829500 0.662013 0.327386 0.146194
H8    H     H_    0.944764 0.324303 0.793790 0.215599
N1    N     N_R   0.246280 0.438190 0.553160 -0.208262
N2    N     N_R   0.754320 0.561190 0.447410 -0.214438
O1    O     O_R   0.972510 0.318130 0.526570 -0.512896
O2    O     O_R   0.806530 0.359650 0.490890 -0.575123
O3    O     O_R   0.082980 0.479210 0.647590 -0.534243
O4    O     O_R   0.917000 0.520730 0.611900 -0.601592
O5    O     O_R   0.193470 0.640350 0.509110 -0.582125
O6    O     O_R   0.027490 0.681870 0.473430 -0.612836
O7    O     O_R   0.083000 0.479270 0.388100 -0.574491
O8    O     O_R   0.917020 0.520790 0.352410 -0.585599
Cl1   Cl    Cl    0.446087 0.271070 0.307600 -0.514756
Cl2   Cl    Cl    0.224793 0.159600 0.411588 -0.440925
C47   C     C_2   0.943106 0.090774 0.555506 0.521182
H9    H     H_    0.983421 0.051744 0.614823 0.149226
O9    O     O_2   0.003052 0.143778 0.491616 -0.473329
Cl3   Cl    Cl    0.773933 0.855912 0.646918 -0.576707
Cl4   Cl    Cl    0.131865 0.279292 0.693754 -0.565894
C48   C     C_2   0.581275 0.298073 0.701721 0.480590
H10   H     H_    0.504667 0.225513 0.730413 0.077042
O10   O     O_2   0.682725 0.303590 0.730642 -0.500948
C49   C     C_2   0.976906 0.290984 0.269120 0.567242
H11   H     H_    0.930879 0.267543 0.330068 0.050564
O11   O     O_2   0.033266 0.237156 0.259334 -0.388533
C50   C     C_2   0.414176 0.554141 0.312631 0.461382
H12   H     H_    0.338576 0.469111 0.316658 0.133949
O12   O     O_2   0.397525 0.637227 0.269430 -0.509644
C51   C     C_2   0.643827 0.680415 0.221704 0.497868
H13   H     H_    0.728545 0.748250 0.199464 0.090158
O13   O     O_2   0.555893 0.647361 0.164688 -0.447089
C52   C     C_2   0.745204 0.565017 0.650441 0.511759
H14   H     H_    0.807354 0.649511 0.620792 0.104169
O14   O     O_2   0.740237 0.546712 0.733040 -0.466334
Cl5   Cl    Cl    0.819825 0.151832 0.124210 -0.446458
Cl6   Cl    Cl    0.857660 0.158330 0.925005 -0.410815
C53   C     C_2   0.044111 0.715871 0.733130 0.350886
H15   H     H_    0.079056 0.730757 0.668184 0.022002
O15   O     O_2   0.007311 0.783497 0.748513 -0.444826
C54   C     C_2   0.203833 0.819282 0.889850 0.499007
H16   H     H_    0.249534 0.807505 0.839752 0.034943
O16   O     O_2   0.233827 0.917642 0.905507 -0.450883
C55   C     C_2   0.133130 0.821594 0.068664 0.506800
H17   H     H_    0.194002 0.835364 0.131638 0.063905
O17   O     O_2   0.095533 0.894679 0.033189 -0.404009
C56   C     C_2   0.055210 0.905321 0.447607 0.497983
H18   H     H_    0.002558 0.849161 0.502740 0.068582
O18   O     O_2   0.005068 0.946173 0.382006 -0.442742

loop_
_geom_bond_atom_site_label_1
_geom_bond_atom_site_label_2
_ccdc_geom_bond_type
C16   C28   A    
C21   C26   A    
C19   C20   A    
C34   O8    A    
C55   H17   S    
C7    C8    A    
C49   H11   S    
C2    C46   A    
C48   O10   D    
C35   N2    A    
C5    C6    A    
C36   C37   A    
C19   C21   A    
C1    O1    A    
Cu1   O5    S    
C30   C31   A    
C50   H12   S    
C52   O14   D    
Cu2   O6    S    
C32   C50   S    
C20   C25   A    
C33   C36   A    
C31   C51   S    
C18   C19   A    
C47   O9    D    
C24   Cl1   S    
C15   C27   A    
C31   C32   A    
C8    C9    A    
C1    C28   S    
C14   C27   A    
C10   H8    S    
C15   C23   S    
C21   C22   A    
C13   C53   S    
C47   H9    S    
C34   O7    A    
C55   O17   D    
C18   H3    S    
Cu2   O2    S    
C4    Cl6   S    
C49   O11   D    
C27   C56   S    
C48   H10   S    
C16   C47   S    
C36   C40   A    
C8    C54   S    
C24   C25   A    
C50   O12   D    
C1    O2    A    
C53   H15   S    
C52   H14   S    
C16   C17   A    
C15   C26   A    
C20   C28   A    
C45   C46   A    
Cu1   O1    S    
C3    C45   A    
C35   C39   A    
C43   C44   A    
C37   C38   A    
C53   O15   D    
C12   O4    A    
Cu2   O4    S    
Cu1   Cu2   S    
C56   O18   D    
C17   C18   A    
C54   O16   D    
C23   O6    A    
C51   O13   D    
C40   H6    S    
C22   C24   A    
C51   H13   S    
C42   C43   A    
C3    C4    A    
C44   C45   A    
C38   C48   S    
C44   C49   S    
C9    C55   S    
C40   N1    A    
C6    C46   A    
C29   C41   A    
C34   C43   S    
C4    C5    A    
Cu1   O3    S    
C11   C12   S    
Cu2   N2    S    
C6    C7    A    
C30   H7    S    
C3    Cl5   S    
C32   C33   A    
C14   C22   A    
C26   H2    S    
C25   H4    S    
C41   N1    A    
C5    C10   A    
C12   O3    A    
C11   C13   A    
C38   C39   A    
C29   H5    S    
C2    C42   A    
C30   N2    A    
C23   O5    A    
C56   H18   S    
C33   C35   A    
C54   H16   S    
C10   C11   A    
C42   H1    S    
C41   Cl4   S    
C7    C13   A    
C17   Cl3   S    
C29   C37   A    
Cu1   N1    S    
C14   Cl2   S    
C39   C52   S    
Cu2   O8    S    
C2    C9    A    
Cu1   O7    S    
