data_mof_unit_55951.cif
_audit_creation_date              2012-12-10T16:57:41-0500
_audit_creation_method            fapswitch 2.2
_symmetry_space_group_name_H-M    P1
_symmetry_Int_Tables_number       1
_space_group_crystal_system       triclinic
_cell_length_a                    7.713425
_cell_length_b                    8.426747
_cell_length_c                    19.049557
_cell_angle_alpha                 91.851809
_cell_angle_beta                  83.181359
_cell_angle_gamma                 93.930383
_cell_volume                      1226.18887409

loop_
_atom_site_label
_atom_site_type_symbol
_atom_type_description
_atom_site_fract_x
_atom_site_fract_y
_atom_site_fract_z
_atom_type_partial_charge
C1    C     C_R   0.545276 0.794995 0.508492 0.926384
C2    C     C_R   0.671993 0.500649 0.169343 0.155132
C3    C     C_R   0.494083 0.385736 0.851760 -0.025089
C4    C     C_R   0.522269 0.427249 0.142517 -0.040465
C5    C     C_R   0.616635 0.322978 0.799588 0.144384
C6    C     C_R   0.366573 0.391306 0.187466 0.166115
C7    C     C_R   0.610873 0.362658 0.729737 -0.274342
C8    C     C_R   0.364260 0.424003 0.259508 -0.284998
C9    C     C_R   0.487373 0.463518 0.710824 -0.130935
C10   C     C_R   0.511681 0.493433 0.287579 -0.143859
C11   C     C_R   0.524533 0.409187 0.066373 0.285932
C12   C     C_R   0.454292 0.209351 0.516254 0.962531
C13   C     C_R   0.521487 0.386860 0.925632 0.310094
C14   C     C_3   0.221003 0.632005 0.746251 -0.405474
C15   C     C_3   0.300420 0.802711 0.742623 -0.892063
C16   C     C_3   0.828020 0.623201 0.270118 -0.363488
C17   C     C_3   0.790936 0.791168 0.297815 -0.854443
C18   C     C_3   0.096912 0.435343 0.917791 -0.801951
C19   C     C_3   0.869413 0.692285 0.099120 -0.758786
C20   C     C_3   0.762970 0.223897 0.816271 -0.417286
C21   C     C_3   0.733271 0.051064 0.791605 -0.850042
C22   C     C_3   0.198821 0.322428 0.160848 -0.395531
C23   C     C_2   0.570612 0.958810 0.530406 -0.092852
C24   C     C_3   0.176945 0.142576 0.169832 -0.845491
C25   C     C_3   0.881688 0.011118 0.483868 -0.641165
C26   C     C_3   0.159785 0.095218 0.622328 -0.796326
C27   C     C_2   0.430359 0.049360 0.542675 -0.066054
C28   C     C_R   0.497215 0.497717 0.635378 0.862221
C29   C     C_R   0.503548 0.503189 0.364753 0.919146
C30   C     C_R   0.356215 0.519350 0.762962 0.109396
C31   C     C_R   0.667440 0.537211 0.242309 0.131191
C32   C     C_R   0.361137 0.478533 0.833886 0.178166
H1    H     H_    0.707339 0.316061 0.689668 0.171025
H2    H     H_    0.748098 0.861557 0.255460 0.252915
H3    H     H_    0.688069 0.788758 0.343711 0.254909
H4    H     H_    0.912236 0.851357 0.314767 0.242086
H5    H     H_    0.878902 0.553871 0.310627 0.217770
H6    H     H_    0.941752 0.635323 0.229056 0.221884
H7    H     H_    0.218002 0.659992 0.888730 0.238298
H8    H     H_    0.973187 0.473938 0.901441 0.228887
H9    H     H_    0.087554 0.440073 0.976373 0.252877
H10   H     H_    0.113721 0.310111 0.899383 0.245729
H11   H     H_    0.860024 0.443918 0.084961 0.223282
H12   H     H_    0.246209 0.391697 0.294309 0.165386
H13   H     H_    0.003258 0.733613 0.110361 0.237957
H14   H     H_    0.775131 0.775419 0.125771 0.250984
H15   H     H_    0.865832 0.696291 0.041101 0.252401
H16   H     H_    0.610941 0.997134 0.820370 0.268227
H17   H     H_    0.724243 0.042949 0.733818 0.250508
H18   H     H_    0.844312 0.982521 0.802933 0.248115
H19   H     H_    0.889748 0.274559 0.789488 0.206130
H20   H     H_    0.776286 0.225048 0.873581 0.215778
H21   H     H_    0.288591 0.084049 0.139924 0.274256
H22   H     H_    0.169481 0.113390 0.226614 0.251816
H23   H     H_    0.016303 0.385859 0.444081 0.181634
H24   H     H_    0.054108 0.095105 0.149471 0.247638
H25   H     H_    0.084917 0.377380 0.191004 0.202572
H26   H     H_    0.193421 0.350250 0.104654 0.216781
H27   H     H_    0.754700 0.113552 0.577679 0.231563
H28   H     H_    0.963619 0.124335 0.480902 0.218407
H29   H     H_    0.827863 0.990203 0.432563 0.221086
H30   H     H_    0.966396 0.914033 0.492551 0.254651
H31   H     H_    0.263351 0.880451 0.599486 0.260425
H32   H     H_    0.100559 0.183324 0.592294 0.274095
H33   H     H_    0.241854 0.156330 0.660539 0.236653
H34   H     H_    0.984367 0.617050 0.554868 0.192429
H35   H     H_    0.048582 0.026786 0.652481 0.226768
H36   H     H_    0.409230 0.814346 0.699001 0.257070
H37   H     H_    0.198259 0.883756 0.733873 0.255922
H38   H     H_    0.351174 0.838944 0.793253 0.258665
H39   H     H_    0.161258 0.597333 0.697757 0.229519
H40   H     H_    0.105272 0.627762 0.786810 0.205698
N1    N     N_R   0.486426 0.254940 0.965052 -0.171830
N2    N     N_2   0.261811 0.987974 0.575511 -0.298086
N3    N     N_R   0.559639 0.539875 0.026662 -0.161126
N4    N     N_R   0.489436 0.265842 0.034748 -0.177325
N5    N     N_R   0.558473 0.528896 0.957355 -0.170251
N6    N     N_2   0.950330 0.457950 0.481240 -0.179335
N7    N     N_2   0.049670 0.542050 0.518760 -0.179831
N8    N     N_2   0.242164 0.541332 0.889475 -0.298005
N9    N     N_2   0.830312 0.530633 0.123111 -0.332540
N10   N     N_2   0.743480 0.019129 0.542274 -0.309497
O1    O     O_R   0.389250 0.738570 0.504600 -0.626656
O2    O     O_R   0.610750 0.261430 0.495400 -0.616077
O3    O     O_R   0.678400 0.711620 0.492580 -0.598176
O4    O     O_R   0.321600 0.288380 0.507420 -0.618893
O5    O     O_R   0.355380 0.513500 0.607880 -0.636998
O6    O     O_R   0.644620 0.486500 0.392120 -0.610973
O7    O     O_R   0.644530 0.486550 0.595850 -0.639716
O8    O     O_R   0.355470 0.513450 0.404150 -0.617489
Zn1   Zn    Zn3+2 0.306930 0.517990 0.508030 0.911107
Zn2   Zn    Zn3+2 0.693070 0.482010 0.491970 0.918852

loop_
_geom_bond_atom_site_label_1
_geom_bond_atom_site_label_2
_ccdc_geom_bond_type
C23   N10   S    
O5    Zn1   S    
C14   H39   S    
H27   N10   S    
C22   H25   S    
C21   H17   S    
C19   H14   S    
C5    C20   S    
C16   C31   S    
H34   N7    S    
C26   H35   S    
C20   H19   S    
O4    Zn1   S    
C18   H10   S    
C19   H15   S    
C24   H22   S    
C6    C22   S    
C12   O2    A    
C18   H8    S    
C21   H18   S    
C29   O6    A    
C26   H32   S    
C10   C31   A    
O6    Zn2   S    
C16   C17   S    
C28   O7    A    
C17   H4    S    
C23   C27   D    
C27   N2    S    
N7    Zn1   S    
C3    C13   S    
C16   H5    S    
C21   H16   S    
C7    H1    S    
C14   C30   S    
C29   O8    A    
O3    Zn2   S    
C1    O3    A    
C15   H37   S    
C13   N5    A    
C12   C27   S    
C4    C6    A    
C18   H9    S    
C5    C7    A    
H23   N6    S    
N6    N7    D    
C6    C8    A    
N6    Zn2   S    
C24   H21   S    
C2    C31   A    
O7    Zn2   S    
C2    C4    A    
C32   N8    S    
C28   O5    A    
C25   H29   S    
C4    C11   S    
O2    Zn2   S    
N3    N5    A    
C9    C30   A    
C18   N8    S    
C25   H28   S    
C13   N1    A    
C1    C23   S    
C25   N10   S    
H11   N9    S    
N1    N4    A    
C22   C24   S    
C24   H24   S    
C17   H2    S    
C7    C9    A    
C15   H38   S    
C26   H33   S    
C14   H40   S    
C8    H12   S    
C3    C5    A    
C22   H26   S    
C19   H13   S    
H31   N2    S    
C1    O1    A    
O1    Zn1   S    
C12   O4    A    
C11   N4    A    
H7    N8    S    
C20   H20   S    
C11   N3    A    
C30   C32   A    
C10   C29   S    
O8    Zn1   S    
C15   H36   S    
C26   N2    S    
C25   H30   S    
C3    C32   A    
C20   C21   S    
C8    C10   A    
C14   C15   S    
C2    N9    S    
C17   H3    S    
C19   N9    S    
C9    C28   S    
C16   H6    S    
