data_mof_unit_16551.cif
_audit_creation_date              2012-12-10T18:55:14-0500
_audit_creation_method            fapswitch 2.2
_symmetry_space_group_name_H-M    P1
_symmetry_Int_Tables_number       1
_space_group_crystal_system       triclinic
_cell_length_a                    10.652699
_cell_length_b                    9.95653
_cell_length_c                    27.68953
_cell_angle_alpha                 90.226974
_cell_angle_beta                  90.274742
_cell_angle_gamma                 89.903516
_cell_volume                      2936.79913769

loop_
_atom_site_label
_atom_site_type_symbol
_atom_type_description
_atom_site_fract_x
_atom_site_fract_y
_atom_site_fract_z
_atom_type_partial_charge
C1    C     C_R   0.260495 0.500071 0.500014 0.993489
C2    C     C_R   0.739545 0.499886 0.499928 0.990450
C3    C     C_R   0.529019 0.495640 0.100809 -0.131534
C4    C     C_R   0.545182 0.542006 0.897810 -0.132354
C5    C     C_R   0.412778 0.492330 0.125073 -0.233538
C6    C     C_R   0.659264 0.527763 0.872646 -0.226508
C7    C     C_R   0.300391 0.491952 0.098069 0.466826
C8    C     C_R   0.773154 0.526639 0.898671 0.459651
C9    C     C_R   0.641410 0.486713 0.127606 0.001839
C10   C     C_R   0.432672 0.562280 0.871843 0.005316
C11   C     C_R   0.509033 0.497957 0.353456 -0.374401
C12   C     C_R   0.516672 0.503435 0.646149 -0.372434
C13   C     C_R   0.425833 0.542474 0.973045 0.123517
C14   C     C_R   0.651821 0.506625 0.026017 0.123034
C15   C     C_R   0.656988 0.524817 0.975113 -0.158682
C16   C     C_R   0.420077 0.516923 0.023225 -0.162546
C17   C     C_R   0.542878 0.535538 0.948848 0.019620
C18   C     C_R   0.533567 0.507587 0.049862 0.022984
C19   C     C_R   0.318771 0.581869 0.946365 -0.168533
C20   C     C_R   0.760091 0.477973 0.053849 -0.179597
C21   C     C_R   0.321378 0.588213 0.896513 -0.174839
C22   C     C_R   0.755685 0.474064 0.103738 -0.175698
C23   C     C_R   0.501341 0.499650 0.406187 0.941768
C24   C     C_R   0.502519 0.500494 0.593722 0.943328
C25   C     C_R   0.304827 0.492561 0.047572 0.365604
C26   C     C_R   0.771605 0.539575 0.949154 0.368777
C27   C     C_R   0.064834 0.399366 0.525096 0.481920
C28   C     C_R   0.935317 0.599200 0.474185 0.480139
C29   C     C_R   0.936305 0.400000 0.525413 0.474955
C30   C     C_R   0.063871 0.600368 0.474718 0.482205
C31   C     C_R   0.872099 0.499640 0.499824 -0.508998
C32   C     C_R   0.128018 0.500090 0.500005 -0.513434
C33   C     C_R   0.501202 0.071470 0.542368 0.360023
C34   C     C_R   0.508077 0.928365 0.457792 0.360816
C35   C     C_R   0.496220 0.070880 0.457743 0.342376
C36   C     C_R   0.490181 0.928940 0.542125 0.351911
C37   C     C_R   0.413059 0.485416 0.175852 0.602400
C38   C     C_R   0.655267 0.518524 0.821882 0.611208
C39   C     C_R   0.636935 0.487285 0.177959 0.611921
C40   C     C_R   0.434347 0.558560 0.821543 0.610202
C41   C     C_R   0.576825 0.388175 0.279612 0.618333
C42   C     C_R   0.468979 0.414496 0.725198 0.600105
C43   C     C_R   0.576319 0.394380 0.329889 0.324006
C44   C     C_R   0.453374 0.409672 0.675154 0.292664
C45   C     C_R   0.449232 0.598731 0.326064 0.438526
C46   C     C_R   0.594566 0.601771 0.667716 0.468689
C47   C     C_R   0.460158 0.597141 0.275939 -0.312516
C48   C     C_R   0.602315 0.610507 0.717781 -0.289054
C49   C     C_R   0.520853 0.490776 0.252611 0.027766
C50   C     C_R   0.539957 0.517376 0.746489 0.031360
H1    H     H_    0.418212 0.677206 0.254923 0.201581
H2    H     H_    0.657025 0.689980 0.734397 0.209174
H3    H     H_    0.235452 0.613139 0.877427 0.204240
H4    H     H_    0.842206 0.456994 0.123513 0.200810
H5    H     H_    0.232275 0.612226 0.963304 0.211425
H6    H     H_    0.849512 0.453312 0.038272 0.222479
N1    N     N_R   0.523896 0.487057 0.200970 -0.316185
N2    N     N_R   0.543532 0.531370 0.797832 -0.315845
N3    N     N_R   0.500000 0.857200 0.500000 -0.196192
N4    N     N_R   0.500000 0.142800 0.500000 -0.198141
O1    O     O_R   0.316770 0.614620 0.500000 -0.586091
O2    O     O_R   0.683230 0.385380 0.500000 -0.586132
O3    O     O_R   0.683230 0.614620 0.500000 -0.579568
O4    O     O_R   0.316770 0.385380 0.500000 -0.581091
O5    O     O_R   0.500030 0.614650 0.428760 -0.523199
O6    O     O_R   0.499970 0.385350 0.571240 -0.533466
O7    O     O_R   0.499970 0.614650 0.571240 -0.552183
O8    O     O_R   0.500030 0.385350 0.428760 -0.556319
O9    O     O_2   0.304019 0.476614 0.200239 -0.508077
O10   O     O_2   0.761030 0.494697 0.796627 -0.512564
O11   O     O_2   0.327515 0.580839 0.796332 -0.549017
O12   O     O_2   0.744729 0.490214 0.203800 -0.537793
Zn1   Zn    Zn3+2 0.500000 0.653120 0.500000 1.064574
Zn2   Zn    Zn3+2 0.500000 0.346880 0.500000 1.057900
O13   O     O_3   0.383636 0.701606 0.348179 -0.542922
C51   C     C_3   0.254260 0.673561 0.344718 -0.134960
H7    H     H_    0.230594 0.579319 0.364159 0.149699
H8    H     H_    0.222237 0.667532 0.306451 0.144925
H9    H     H_    0.201812 0.757023 0.361991 0.231118
O14   O     O_3   0.659338 0.693693 0.640105 -0.543289
C52   C     C_3   0.779411 0.640724 0.630322 -0.243438
H10   H     H_    0.773439 0.543057 0.610727 0.153594
H11   H     H_    0.835311 0.629119 0.664110 0.170329
H12   H     H_    0.830024 0.711946 0.606676 0.188457
O15   O     O_3   0.503738 0.137963 0.586042 -0.519464
C53   C     C_3   0.625416 0.126537 0.605985 -0.093776
H13   H     H_    0.631756 0.192830 0.638199 0.182138
H14   H     H_    0.698528 0.159750 0.580123 0.191548
H15   H     H_    0.645058 0.022266 0.618115 0.185642
O16   O     O_3   0.518554 0.861213 0.414433 -0.522598
C54   C     C_3   0.640512 0.880226 0.395994 -0.080741
H16   H     H_    0.657735 0.803327 0.367668 0.183371
H17   H     H_    0.714510 0.867845 0.424163 0.182292
H18   H     H_    0.649158 0.980341 0.378792 0.196562
O17   O     O_3   0.483714 0.136284 0.414328 -0.524209
C55   C     C_3   0.356075 0.133321 0.400595 -0.133213
H19   H     H_    0.344843 0.191258 0.366700 0.172262
H20   H     H_    0.295457 0.181604 0.428378 0.146066
H21   H     H_    0.323914 0.028922 0.393205 0.180767
O18   O     O_3   0.474413 0.863143 0.585293 -0.530258
C56   C     C_3   0.345526 0.864134 0.596676 -0.142237
H22   H     H_    0.331778 0.805021 0.630115 0.169560
H23   H     H_    0.288268 0.816063 0.567654 0.150177
H24   H     H_    0.311295 0.967931 0.603840 0.191507
O19   O     O_3   0.185387 0.476733 0.120459 -0.538469
C57   C     C_3   0.124214 0.602535 0.121489 -0.178225
H25   H     H_    0.096122 0.634937 0.084589 0.162448
H26   H     H_    0.183491 0.680884 0.139126 0.140893
H27   H     H_    0.037398 0.592979 0.143137 0.195720
O20   O     O_3   0.886802 0.533508 0.874719 -0.546529
C58   C     C_3   0.948850 0.408769 0.879055 -0.155043
H28   H     H_    0.889830 0.324937 0.864983 0.149101
H29   H     H_    0.977518 0.388717 0.917003 0.160463
H30   H     H_    0.035600 0.411822 0.857080 0.200275
O21   O     O_3   0.377973 0.311612 0.654831 -0.524824
C59   C     C_3   0.253119 0.358789 0.654425 -0.075186
H31   H     H_    0.242535 0.446465 0.629909 0.116589
H32   H     H_    0.220018 0.385116 0.691360 0.165159
H33   H     H_    0.191583 0.277345 0.640683 0.229873
O22   O     O_3   0.638458 0.295817 0.355684 -0.518014
C60   C     C_3   0.761618 0.340460 0.365370 -0.174801
H34   H     H_    0.761823 0.434700 0.387155 0.130500
H35   H     H_    0.815167 0.354928 0.331367 0.181942
H36   H     H_    0.810878 0.262507 0.386846 0.178916
F1    F     F_    0.411697 0.321586 0.753268 -0.626732
F2    F     F_    0.632779 0.282617 0.257112 -0.612589
O23   O     O_3   0.195030 0.462382 0.022969 -0.603463
C61   C     C_3   0.194710 0.323983 0.011996 -0.243531
H37   H     H_    0.198811 0.262186 0.045393 0.176017
H38   H     H_    0.273250 0.296792 0.987444 0.156393
H39   H     H_    0.105654 0.299521 0.993025 0.179942
O24   O     O_3   0.883423 0.573318 0.971627 -0.606285
C62   C     C_3   0.885950 0.713557 0.978775 -0.259872
H40   H     H_    0.809223 0.747127 0.003173 0.156314
H41   H     H_    0.880576 0.768055 0.943790 0.177035
H42   H     H_    0.976381 0.740538 0.996291 0.182847
F3    F     F_    0.127224 0.302565 0.550000 -0.627879
F4    F     F_    0.872986 0.692670 0.447754 -0.649029
F5    F     F_    0.875024 0.305761 0.551534 -0.649297
F6    F     F_    0.125340 0.696923 0.449701 -0.632950

loop_
_geom_bond_atom_site_label_1
_geom_bond_atom_site_label_2
_ccdc_geom_bond_type
C21   H3    S    
C38   O10   S    
C56   H22   S    
C40   O11   S    
C5    C37   A    
C27   C29   A    
C8    C26   A    
C14   C18   A    
C58   H28   S    
C51   H9    S    
C20   H6    S    
C36   N3    A    
C61   H37   S    
C52   H10   S    
O5    Zn1   S    
C47   C49   A    
O15   C53   S    
O22   C60   S    
C27   F3    S    
C19   C21   A    
C51   H8    S    
C37   O9    S    
C53   H14   S    
C9    C22   A    
C57   H25   S    
O8    Zn2   S    
O21   C59   S    
O6    Zn2   S    
C55   H21   S    
C9    C39   A    
C33   C36   A    
C49   N1    S    
C59   H31   S    
C3    C18   A    
C10   C40   A    
C34   C35   A    
N4    Zn2   S    
C33   O15   S    
O20   C58   S    
C60   H36   S    
C24   O7    A    
C38   N2    A    
O17   C55   S    
C44   O21   S    
O24   C62   S    
C55   H20   S    
C62   H42   S    
C39   O12   S    
C6    C38   A    
C11   C43   A    
O7    Zn1   S    
N3    Zn1   S    
C42   F1    S    
C24   O6    A    
C43   O22   S    
C48   C50   A    
C56   H23   S    
C41   C43   A    
C42   C44   A    
C41   C49   A    
C52   H11   S    
C45   C47   A    
C10   C21   A    
C29   F5    S    
C46   C48   A    
C40   N2    A    
C13   C19   A    
C50   N2    S    
C14   C20   A    
C28   F4    S    
C51   H7    S    
C22   H4    S    
C54   H16   S    
C5    C7    A    
C53   H13   S    
C15   C26   A    
C47   H1    S    
O3    Zn1   S    
O1    Zn1   S    
C53   H15   S    
C1    C32   S    
C1    O1    A    
C35   N4    A    
C12   C46   A    
C23   O8    A    
O13   C51   S    
C34   O16   S    
C3    C9    A    
C8    O20   S    
C54   H17   S    
C55   H19   S    
C7    O19   S    
C58   H29   S    
C16   C18   A    
C60   H34   S    
C42   C50   A    
C4    C17   A    
C4    C6    A    
C20   C22   A    
C56   H24   S    
C34   N3    A    
C11   C45   A    
C4    C10   A    
O23   C61   S    
C61   H39   S    
C52   H12   S    
C26   O24   S    
C2    O3    A    
C19   H5    S    
C16   C25   A    
C15   C17   A    
C27   C32   A    
C41   F2    S    
C28   C31   A    
O2    Zn2   S    
O14   C52   S    
C3    C5    A    
C30   F6    S    
C61   H38   S    
C6    C8    A    
C36   O18   S    
C35   O17   S    
C33   N4    A    
O19   C57   S    
C12   C24   S    
C7    C25   A    
C59   H33   S    
C13   C17   A    
C45   O13   S    
C23   O5    A    
C28   C30   A    
C25   O23   S    
C12   C44   A    
C54   H18   S    
C30   C32   A    
O16   C54   S    
C62   H40   S    
C57   H26   S    
C11   C23   S    
O18   C56   S    
C59   H32   S    
C58   H30   S    
C60   H35   S    
C48   H2    S    
C29   C31   A    
C13   C16   A    
C62   H41   S    
O4    Zn2   S    
C14   C15   A    
C2    C31   S    
C46   O14   S    
C1    O4    A    
C37   N1    A    
C2    O2    A    
C57   H27   S    
C39   N1    A    
