data_mof_unit_44848.cif
_audit_creation_date              2013-03-05T15:59:40-0500
_audit_creation_method            fapswitch 2.2
_symmetry_space_group_name_H-M    P1
_symmetry_Int_Tables_number       1
_space_group_crystal_system       triclinic
_cell_length_a                    15.043319
_cell_length_b                    13.69675
_cell_length_c                    27.808518
_cell_angle_alpha                 90.207876
_cell_angle_beta                  90.623761
_cell_angle_gamma                 89.616236
_cell_volume                      5729.29012232

loop_
_atom_site_label
_atom_site_type_symbol
_atom_site_description
_atom_site_fract_x
_atom_site_fract_y
_atom_site_fract_z
_atom_type_partial_charge
O1    O     O_R   0.370260 0.582280 0.500010 -0.602221
O2    O     O_R   0.629740 0.417720 0.499990 -0.570200
O3    O     O_R   0.629740 0.582280 0.499990 -0.586426
O4    O     O_R   0.370260 0.417720 0.500010 -0.588110
C1    C     C_R   0.328716 0.500714 0.498158 0.855476
C2    C     C_R   0.671242 0.499629 0.500021 0.806634
O5    O     O_R   0.500020 0.582260 0.430260 -0.603730
O6    O     O_R   0.499980 0.417740 0.569740 -0.599702
O7    O     O_R   0.499980 0.582260 0.569740 -0.547946
O8    O     O_R   0.500020 0.417740 0.430260 -0.552098
C3    C     C_R   0.501416 0.499853 0.407541 0.827412
C4    C     C_R   0.496728 0.500043 0.592555 0.810310
Cu1   Cu    Cu3+1 0.500000 0.597420 0.500000 0.933773
Cu2   Cu    Cu3+1 0.500000 0.402580 0.500000 0.955722
C5    C     C_R   0.427560 0.479751 0.178397 0.542536
C6    C     C_R   0.572807 0.506402 0.821802 0.537228
O9    O     O_2   0.353099 0.461135 0.203320 -0.538496
O10   O     O_2   0.648732 0.513807 0.796691 -0.557080
N1    N     N_R   0.505637 0.497839 0.202407 -0.453994
N2    N     N_R   0.493062 0.499574 0.797978 -0.453480
C7    C     C_R   0.582460 0.515418 0.178101 0.534849
C8    C     C_R   0.414895 0.492762 0.822357 0.535528
C9    C     C_R   0.555168 0.428366 0.279649 -0.165077
C10   C     C_R   0.455045 0.578359 0.721270 -0.217335
C11   C     C_R   0.556205 0.429098 0.329904 0.418248
C12   C     C_R   0.451005 0.577292 0.670791 0.420836
C13   C     C_R   0.458133 0.571289 0.328979 -0.286100
C14   C     C_R   0.523864 0.418381 0.671119 -0.320831
C15   C     C_R   0.458704 0.570793 0.278894 -0.105735
C16   C     C_R   0.524249 0.418389 0.721190 -0.124831
C17   C     C_R   0.506673 0.499086 0.254030 0.287151
C18   C     C_R   0.491368 0.499078 0.746413 0.318532
C19   C     C_R   0.502824 0.497580 0.102114 -0.044507
C20   C     C_R   0.496349 0.499236 0.898210 -0.045466
C21   C     C_R   0.424610 0.479837 0.127926 -0.026020
C22   C     C_R   0.575922 0.506481 0.872294 -0.022299
C23   C     C_R   0.345366 0.461917 0.102963 -0.148374
C24   C     C_R   0.656741 0.513166 0.897179 -0.151507
C25   C     C_R   0.582567 0.515106 0.127591 -0.020707
C26   C     C_R   0.415091 0.492361 0.872840 -0.021802
C27   C     C_R   0.505298 0.499714 0.354861 -0.146243
C28   C     C_R   0.491085 0.499410 0.645455 -0.115691
H1    H     H_    0.419517 0.626537 0.347537 0.185665
H2    H     H_    0.549966 0.355072 0.652541 0.171860
H3    H     H_    0.421227 0.625647 0.259242 0.153427
H4    H     H_    0.550746 0.355908 0.740463 0.149186
H5    H     H_    0.284547 0.446596 0.121958 0.185861
H6    H     H_    0.718995 0.517510 0.878095 0.183436
C29   C     C_R   0.417325 0.488197 0.974860 0.041979
C30   C     C_R   0.581393 0.512837 0.025492 0.041565
C31   C     C_R   0.580345 0.508966 0.974374 0.041940
C32   C     C_R   0.419558 0.483270 0.025913 0.041638
C33   C     C_R   0.498018 0.498808 0.949360 0.067951
C34   C     C_R   0.501263 0.497876 0.050962 0.068327
C35   C     C_R   0.336766 0.483657 0.948168 -0.205703
C36   C     C_R   0.659967 0.531953 0.052299 -0.205617
C37   C     C_R   0.335895 0.485519 0.898245 -0.151585
C38   C     C_R   0.660354 0.532920 0.102253 -0.150149
O11   O     O_2   0.337322 0.485503 0.797791 -0.556644
O12   O     O_2   0.658307 0.534024 0.202741 -0.555285
C39   C     C_R   0.342719 0.463403 0.053047 -0.204913
C40   C     C_R   0.659125 0.514252 0.947127 -0.205358
H7    H     H_    0.428645 0.640293 0.740950 0.139603
H8    H     H_    0.592564 0.373026 0.260473 0.157516
H9    H     H_    0.272397 0.481585 0.879595 0.183928
H10   H     H_    0.722338 0.547906 0.120980 0.185005
H11   H     H_    0.272491 0.480495 0.964694 0.138933
H12   H     H_    0.722498 0.548508 0.035857 0.139245
H13   H     H_    0.279269 0.446690 0.036882 0.139382
H14   H     H_    0.724443 0.517442 0.963209 0.138787
C41   C     C_R   0.811767 0.563218 0.470284 -0.326968
C42   C     C_R   0.187660 0.435283 0.525320 -0.325824
C43   C     C_R   0.767796 0.498884 0.500615 -0.178155
C44   C     C_R   0.232056 0.502739 0.496937 -0.165597
C45   C     C_R   0.815965 0.434137 0.530701 0.396527
C46   C     C_R   0.184091 0.571049 0.468469 0.385802
C47   C     C_R   0.909103 0.431973 0.528364 0.020177
C48   C     C_R   0.090738 0.566290 0.467018 0.026643
C49   C     C_R   0.953166 0.497978 0.497901 0.023758
C50   C     C_R   0.046529 0.499249 0.496905 0.013521
C51   C     C_R   0.904099 0.563037 0.468573 0.119245
C52   C     C_R   0.095458 0.433664 0.525976 0.123240
C53   C     C_R   0.959244 0.366087 0.556395 -0.218740
C54   C     C_R   0.040489 0.626790 0.436219 -0.181399
C55   C     C_R   0.051590 0.367463 0.555434 -0.203455
C56   C     C_R   0.948028 0.625874 0.437364 -0.216087
H15   H     H_    0.773689 0.612210 0.447270 0.167820
H16   H     H_    0.225467 0.385806 0.548123 0.157261
H17   H     H_    0.927450 0.313342 0.579293 0.180604
H18   H     H_    0.072165 0.674751 0.410924 0.177486
H19   H     H_    0.088794 0.317025 0.577977 0.150482
H20   H     H_    0.910821 0.674343 0.413770 0.149626
C57   C     C_R   0.451484 0.794002 0.533200 0.027876
C58   C     C_R   0.553248 0.206307 0.468886 0.089225
C59   C     C_R   0.549885 0.792523 0.467277 0.055114
C60   C     C_R   0.446054 0.207419 0.530722 0.062919
N3    N     N_R   0.500000 0.743810 0.500000 -0.214911
N4    N     N_R   0.500000 0.256190 0.500000 -0.209803
C61   C     C_R   0.551463 0.895787 0.466345 -0.103877
C62   C     C_R   0.445108 0.104241 0.531784 -0.103075
C63   C     C_R   0.450013 0.897201 0.533973 -0.100618
C64   C     C_R   0.554550 0.103086 0.467815 -0.108361
C65   C     C_R   0.500226 0.948331 0.499919 -0.061808
C66   C     C_R   0.500027 0.051820 0.499857 -0.062639
C67   C     C_R   0.602616 0.947173 0.432623 0.332213
C68   C     C_R   0.390919 0.052849 0.564020 0.337188
C69   C     C_R   0.400519 0.949914 0.568311 0.331374
C70   C     C_R   0.609274 0.050534 0.435761 0.343823
H21   H     H_    0.413150 0.753249 0.558767 0.191570
H22   H     H_    0.594283 0.247453 0.444692 0.180593
H23   H     H_    0.589003 0.750440 0.442110 0.164666
H24   H     H_    0.404428 0.249401 0.554755 0.166009
O13   O     O_3   0.772711 0.369332 0.560540 -0.614763
C71   C     C_3   0.739046 0.418834 0.601388 0.087887
H25   H     H_    0.682444 0.375494 0.614447 0.171937
H26   H     H_    0.712381 0.493166 0.593333 0.116058
C72   C     C_3   0.808956 0.424854 0.641772 -0.433999
H27   H     H_    0.835697 0.350685 0.649540 0.228101
H28   H     H_    0.864492 0.472199 0.630342 0.223916
C73   C     C_3   0.769273 0.467213 0.687681 -0.802636
H29   H     H_    0.739872 0.540503 0.680717 0.259702
H30   H     H_    0.822171 0.474407 0.715598 0.262187
H31   H     H_    0.717131 0.418077 0.701532 0.267839
O14   O     O_3   0.227845 0.635593 0.438578 -0.617996
C74   C     C_3   0.249309 0.723059 0.463624 0.091646
H32   H     H_    0.321884 0.734466 0.459893 0.199835
H33   H     H_    0.234673 0.721763 0.502915 0.119452
C75   C     C_3   0.201929 0.810882 0.440835 -0.384429
H34   H     H_    0.207491 0.806989 0.401046 0.237924
H35   H     H_    0.130537 0.810218 0.450508 0.210645
C76   C     C_3   0.242179 0.906729 0.458546 -0.920855
H36   H     H_    0.238392 0.911623 0.498330 0.257255
H37   H     H_    0.204824 0.969127 0.442650 0.265102
H38   H     H_    0.312811 0.911873 0.447612 0.258954
O15   O     O_3   0.650561 0.895625 0.398495 -0.634317
C77   C     C_3   0.610467 0.907150 0.352501 0.082845
H39   H     H_    0.662116 0.891268 0.325265 0.172738
H40   H     H_    0.586988 0.983200 0.345502 0.173942
C78   C     C_3   0.533825 0.835084 0.345104 -0.399404
H41   H     H_    0.558406 0.759379 0.351178 0.233835
H42   H     H_    0.480328 0.850973 0.371285 0.214067
C79   C     C_3   0.494663 0.842546 0.294413 -0.882648
H43   H     H_    0.472057 0.918451 0.287027 0.259081
H44   H     H_    0.436513 0.793522 0.290991 0.252417
H45   H     H_    0.544962 0.820494 0.267442 0.263555
O16   O     O_3   0.332980 0.104510 0.593282 -0.632650
C80   C     C_3   0.243650 0.082904 0.580658 0.064418
H46   H     H_    0.201220 0.108197 0.610744 0.166909
H47   H     H_    0.231385 0.003234 0.576774 0.168977
C81   C     C_3   0.214192 0.136936 0.534846 -0.390332
H48   H     H_    0.224564 0.216340 0.539929 0.225205
H49   H     H_    0.254851 0.112351 0.503921 0.223376
C82   C     C_3   0.116381 0.118462 0.523022 -0.912481
H50   H     H_    0.105378 0.039651 0.515770 0.258924
H51   H     H_    0.096600 0.160598 0.490539 0.272002
H52   H     H_    0.073742 0.141852 0.553359 0.253417
O17   O     O_3   0.360390 0.899779 0.605382 -0.637357
C83   C     C_3   0.402674 0.922275 0.649898 0.078935
H53   H     H_    0.362827 0.888495 0.678705 0.159329
H54   H     H_    0.402402 0.001956 0.657672 0.173759
C84   C     C_3   0.498319 0.881794 0.652902 -0.370201
H55   H     H_    0.500699 0.806164 0.638670 0.274490
H56   H     H_    0.542642 0.927296 0.630588 0.200928
C85   C     C_3   0.533540 0.881981 0.704548 -0.880658
H57   H     H_    0.532229 0.957248 0.719547 0.252353
H58   H     H_    0.603163 0.854541 0.705263 0.261920
H59   H     H_    0.492638 0.833599 0.727283 0.257516
O18   O     O_3   0.664222 0.101023 0.404947 -0.617062
C86   C     C_3   0.754337 0.088641 0.419136 0.061401
H60   H     H_    0.795648 0.101746 0.386958 0.168372
H61   H     H_    0.770542 0.013104 0.431349 0.166422
C87   C     C_3   0.780509 0.162631 0.458264 -0.369802
H62   H     H_    0.761908 0.237434 0.446511 0.230382
H63   H     H_    0.744374 0.146359 0.491904 0.223955
C88   C     C_3   0.880245 0.159136 0.468725 -0.896703
H64   H     H_    0.900757 0.084856 0.480521 0.255225
H65   H     H_    0.896666 0.211673 0.497848 0.276450
H66   H     H_    0.917960 0.179356 0.436156 0.255786
O19   O     O_3   0.410771 0.653513 0.646066 -0.624998
C89   C     C_3   0.318200 0.656933 0.655180 0.043614
H67   H     H_    0.298965 0.734510 0.660387 0.183102
H68   H     H_    0.297294 0.617640 0.688242 0.146032
C90   C     C_3   0.266779 0.616579 0.611880 -0.328713
H69   H     H_    0.286971 0.655880 0.579021 0.223055
H70   H     H_    0.282918 0.537831 0.607295 0.203209
C91   C     C_3   0.166684 0.629099 0.618132 -0.907060
H71   H     H_    0.143956 0.586914 0.649691 0.263318
H72   H     H_    0.131245 0.602188 0.585569 0.260681
H73   H     H_    0.149446 0.707428 0.623192 0.255188
O20   O     O_3   0.605808 0.358899 0.353986 -0.597207
C92   C     C_3   0.685168 0.400354 0.372672 0.062371
H74   H     H_    0.688991 0.383348 0.411573 0.160868
H75   H     H_    0.689180 0.481601 0.369500 0.107920
C93   C     C_3   0.765344 0.353942 0.347987 -0.341393
H76   H     H_    0.762088 0.273245 0.351380 0.240768
H77   H     H_    0.763638 0.372704 0.309137 0.229076
C94   C     C_3   0.852519 0.389621 0.370290 -0.892457
H78   H     H_    0.858197 0.469978 0.366224 0.266574
H79   H     H_    0.909363 0.354122 0.351867 0.260963
H80   H     H_    0.856057 0.370830 0.409094 0.260359

loop_
_geom_bond_atom_site_label_1
_geom_bond_atom_site_label_2
_geom_bond_distance
_ccdc_geom_bond_type
C63   C69   1.410925 A    
C54   C56   1.391770 A    
C93   H77   1.111409 S    
O20   C92   1.418126 S    
C13   C15   1.392895 A    
C43   C45   1.412477 A    
C86   H60   1.110811 S    
C61   C65   1.409645 A    
C80   H46   1.110836 S    
C76   H38   1.111122 S    
N1    C17   1.435532 S    
C75   H34   1.111606 S    
C92   H75   1.118720 S    
C84   H55   1.108056 S    
C55   H19   1.083415 S    
O15   C77   1.417019 S    
C88   H65   1.108375 S    
C12   O19   1.384415 S    
C73   H29   1.111041 S    
O5    C3    1.291646 A    
C60   H24   1.082072 S    
O17   C83   1.419415 S    
C44   C46   1.416555 A    
O1    C1    1.284360 A    
C85   H57   1.110826 S    
C80   H47   1.112599 S    
C46   C48   1.406416 A    
O16   C80   1.418084 S    
C32   C39   1.415728 A    
C72   H28   1.110878 S    
C73   H30   1.110270 S    
C78   C79   1.525375 S    
C48   C50   1.414913 A    
C93   C94   1.527061 S    
C68   C69   1.421612 A    
C58   N4    1.364022 A    
C62   C66   1.410568 A    
C35   H11   1.076266 S    
C40   H14   1.076236 S    
C14   C28   1.405336 A    
C1    C44   1.454203 S    
C94   H79   1.110090 S    
O7    Cu1   1.951200 S    
C4    C28   1.474509 S    
C83   C84   1.540019 S    
C69   O17   1.386694 S    
C38   H10   1.083508 S    
C89   H68   1.116243 S    
C14   C16   1.392363 A    
C81   C82   1.526773 S    
C60   N4    1.364262 A    
C74   C75   1.529961 S    
C64   C70   1.412003 A    
C45   O13   1.387305 S    
C24   C40   1.389072 A    
C82   H51   1.110503 S    
C24   H6    1.083531 S    
C51   C56   1.398630 A    
O3    Cu1   1.961325 S    
C89   C90   1.527874 S    
C6    N2    1.367670 A    
C67   O15   1.386582 S    
O3    C2    1.289136 A    
C93   H76   1.111100 S    
C70   O18   1.386769 S    
C63   C65   1.408994 A    
Cu1   Cu2   2.668673 S    
C83   H54   1.111801 S    
C86   H61   1.114707 S    
C79   H45   1.110825 S    
O2    C2    1.287548 A    
C31   C40   1.415967 A    
C54   H18   1.080858 S    
C77   C78   1.534437 S    
C53   H17   1.082004 S    
C5    C21   1.403761 A    
C84   H56   1.111498 S    
C32   C34   1.421126 A    
Cu2   N4    2.005067 S    
C88   H66   1.110867 S    
C47   C49   1.414261 A    
C61   C67   1.412339 A    
C67   C70   1.422208 A    
C92   H74   1.108188 S    
C46   O14   1.389520 S    
C80   C81   1.535312 S    
C7    O12   1.349774 S    
C42   C44   1.395590 A    
O8    Cu2   1.951205 S    
C72   C73   1.526242 S    
C11   C27   1.414355 A    
C8    O11   1.349842 S    
C49   C51   1.409741 A    
O4    C1    1.294458 A    
C36   H12   1.076240 S    
C25   C38   1.395841 A    
C14   H2    1.081484 S    
C30   C36   1.415974 A    
C49   C50   1.405282 A    
C15   H3    1.082402 S    
C31   C33   1.421216 A    
C73   H31   1.110002 S    
C9    C17   1.400789 A    
C94   H80   1.110883 S    
C5    N1    1.368321 A    
C90   H69   1.108513 S    
C10   C18   1.398511 A    
C81   H49   1.110699 S    
C48   C54   1.405085 A    
C13   C27   1.402558 A    
C23   C39   1.388447 A    
C88   H64   1.110822 S    
C7    C25   1.404634 A    
O6    C4    1.292456 A    
C29   C32   1.421557 A    
C8    C26   1.403862 A    
C59   N3    1.364688 A    
C30   C31   1.422229 A    
Cu1   N3    2.005067 S    
C19   C25   1.408074 A    
C82   H52   1.110349 S    
C64   C66   1.409931 A    
C45   C47   1.403427 A    
C41   H15   1.085352 S    
C50   C52   1.409164 A    
C9    H8    1.083158 S    
C53   C55   1.389995 A    
N2    C8    1.367603 A    
C10   H7    1.083364 S    
C35   C37   1.388534 A    
C83   H53   1.109930 S    
C86   C87   1.534265 S    
C79   H44   1.109386 S    
C90   C91   1.526106 S    
C23   H5    1.083518 S    
C57   C63   1.413608 A    
C76   H36   1.110165 S    
C56   H20   1.083841 S    
C75   C76   1.527128 S    
C57   N3    1.364189 A    
C84   C85   1.525394 S    
C87   H62   1.109706 S    
C12   C28   1.411745 A    
C2    C43   1.452361 S    
C41   C43   1.396708 A    
O13   C71   1.417332 S    
N2    C18   1.433871 S    
C39   H13   1.076271 S    
C19   C34   1.422425 A    
C5    O9    1.349849 S    
O18   C86   1.417020 S    
O6    Cu2   1.949701 S    
C26   C37   1.395543 A    
N1    C7    1.368328 A    
C79   H43   1.110855 S    
C16   H4    1.082860 S    
C85   H59   1.111053 S    
C10   C12   1.404433 A    
C77   H39   1.110876 S    
C76   H37   1.110190 S    
C75   H35   1.110081 S    
C71   H26   1.114379 S    
C78   H41   1.111405 S    
C87   C88   1.525660 S    
C71   H25   1.106506 S    
C52   C55   1.397831 A    
C62   C68   1.411293 A    
C68   O16   1.387634 S    
C11   O20   1.383443 S    
C6    O10   1.349770 S    
C91   H73   1.110863 S    
C90   H70   1.111179 S    
C82   H50   1.110575 S    
C92   C93   1.527955 S    
C58   H22   1.080647 S    
C21   C23   1.395667 A    
C30   C34   1.421152 A    
C29   C35   1.415834 A    
C72   H27   1.111186 S    
C6    C22   1.404373 A    
C22   C24   1.395751 A    
C16   C18   1.397389 A    
C78   H42   1.111009 S    
C19   C21   1.407879 A    
C74   H32   1.109963 S    
C29   C33   1.421045 A    
C60   C62   1.413796 A    
C85   H58   1.110385 S    
C87   H63   1.111080 S    
C20   C22   1.408209 A    
C36   C38   1.389111 A    
C3    C27   1.466759 S    
C59   C61   1.415083 A    
C9    C11   1.397454 A    
O4    Cu2   1.961327 S    
C94   H78   1.110780 S    
O2    Cu2   1.964088 S    
O7    C4    1.295998 A    
C71   C72   1.532565 S    
O8    C3    1.292386 A    
O19   C89   1.418597 S    
C13   H1    1.083616 S    
O5    Cu1   1.949707 S    
O1    Cu1   1.964089 S    
C58   C64   1.414011 A    
C20   C33   1.422384 A    
C15   C17   1.399957 A    
C77   H40   1.114752 S    
C65   C66   1.417457 A    
C74   H33   1.117158 S    
C47   C53   1.405047 A    
C81   H48   1.108074 S    
C20   C26   1.408221 A    
C59   H23   1.081569 S    
C41   C51   1.390294 A    
C91   H71   1.110767 S    
C42   H16   1.083940 S    
C91   H72   1.108944 S    
C42   C52   1.387672 A    
C89   H67   1.108775 S    
C57   H21   1.079678 S    
O14   C74   1.420841 S    
C37   H9    1.083526 S    
