data_mof_unit_30892.cif
_audit_creation_date              2012-12-11T17:05:25-0500
_audit_creation_method            fapswitch 2.2
_symmetry_space_group_name_H-M    P1
_symmetry_Int_Tables_number       1
_space_group_crystal_system       triclinic
_cell_length_a                    6.986293
_cell_length_b                    14.566321
_cell_length_c                    15.991156
_cell_angle_alpha                 90.200094
_cell_angle_beta                  90.253163
_cell_angle_gamma                 89.750643
_cell_volume                      1627.2922654

loop_
_atom_site_label
_atom_site_type_symbol
_atom_type_description
_atom_site_fract_x
_atom_site_fract_y
_atom_site_fract_z
_atom_type_partial_charge
O1    O     O_R   0.494380 0.415640 0.412830 -0.540333
O2    O     O_R   0.823960 0.405540 0.586560 -0.550581
O3    O     O_R   0.994270 0.584360 0.587170 -0.540779
C1    C     C_R   0.655583 0.383420 0.615094 0.675704
O4    O     O_R   0.824090 0.404620 0.413450 -0.540783
O5    O     O_R   0.994400 0.583430 0.412820 -0.513893
C2    C     C_R   0.655189 0.382174 0.384838 0.733706
O6    O     O_R   0.494250 0.416570 0.587180 -0.545767
O7    O     O_3   0.660800 0.558670 0.500000 -0.337894
V1    V     V_3+5 0.935650 0.489120 0.500000 1.463949
O8    O     O_R   0.324110 0.594460 0.413440 -0.514543
C3    C     C_R   0.154586 0.613936 0.382817 0.763984
O9    O     O_R   0.323980 0.595380 0.586550 -0.542661
C4    C     C_R   0.155445 0.615961 0.616293 0.699920
V2    V     V_3+5 0.435660 0.510880 0.500000 1.496254
O10   O     O_3   0.160640 0.441330 0.500000 -0.388338
C5    C     C_3   0.010060 0.652239 0.757063 -0.373381
H1    H     H_    0.868407 0.632165 0.730784 0.159186
H2    H     H_    0.071897 0.590237 0.787510 0.182726
C6    C     C_3   0.980411 0.729720 0.822266 0.025833
H3    H     H_    0.838651 0.758960 0.809828 0.207641
H4    H     H_    0.915718 0.773240 0.637533 0.206836
C7    C     C_3   0.070009 0.779057 0.654129 -0.332557
C8    C     C_3   0.346366 0.698420 0.728148 -0.357537
C9    C     C_3   0.145766 0.685163 0.687063 -0.028305
H5    H     H_    0.446249 0.724847 0.679963 0.192204
H6    H     H_    0.404733 0.630647 0.747755 0.155881
C10   C     C_3   0.129569 0.809263 0.810832 -0.088462
C11   C     C_3   0.096388 0.854212 0.721925 -0.026548
C12   C     C_3   0.337064 0.765152 0.804488 0.348215
H7    H     H_    0.147933 0.798910 0.596398 0.154430
H8    H     H_    0.226024 0.892034 0.703443 0.186409
C13   C     C_R   0.280324 0.807212 0.235129 0.068086
C14   C     C_R   0.125090 0.810499 0.179102 -0.147758
C15   C     C_R   0.987946 0.740313 0.184663 -0.104211
H9    H     H_    0.871598 0.737633 0.139781 0.185860
C16   C     C_R   0.997155 0.673559 0.248354 0.197090
C17   C     C_R   0.143807 0.677406 0.310361 -0.182486
C18   C     C_R   0.286893 0.743169 0.299671 0.063271
C19   C     C_3   0.360405 0.811128 0.361736 0.122521
C20   C     C_3   0.357729 0.881315 0.290755 -0.029361
H10   H     H_    0.253277 0.826702 0.411120 0.090994
H11   H     H_    0.251643 0.937384 0.300887 0.095825
C21   C     C_R   0.490770 0.253211 0.688186 0.119346
C22   C     C_R   0.647741 0.312150 0.680882 -0.107376
C23   C     C_R   0.800474 0.299615 0.737471 -0.157379
H12   H     H_    0.924119 0.343685 0.734464 0.134816
C24   C     C_R   0.788710 0.234786 0.802451 -0.140430
H13   H     H_    0.904977 0.229956 0.847086 0.145241
C25   C     C_R   0.623166 0.181145 0.813120 -0.098627
C26   C     C_R   0.478685 0.189403 0.752719 0.155641
C27   C     C_3   0.270356 0.206991 0.764147 -0.420589
C28   C     C_3   0.283266 0.276090 0.693505 -0.410262
H14   H     H_    0.238916 0.239057 0.825783 0.185676
H15   H     H_    0.182563 0.145998 0.748038 0.206801
H16   H     H_    0.258437 0.348165 0.714036 0.171219
H17   H     H_    0.203368 0.254829 0.636420 0.186794
C29   C     C_R   0.495991 0.317767 0.255607 0.106621
C30   C     C_R   0.647240 0.316584 0.313549 -0.106385
C31   C     C_R   0.797523 0.253880 0.298448 -0.150900
H18   H     H_    0.919177 0.251110 0.340377 0.124885
C32   C     C_R   0.786325 0.189692 0.232336 -0.086778
H19   H     H_    0.899950 0.139574 0.225558 0.135556
C33   C     C_R   0.624872 0.186377 0.179011 -0.127005
C34   C     C_R   0.485132 0.254523 0.190166 0.123822
C35   C     C_3   0.273447 0.246591 0.197968 0.104937
C36   C     C_3   0.285184 0.315903 0.269367 -0.426508
H20   H     H_    0.228499 0.176963 0.217855 0.092424
H21   H     H_    0.248447 0.286364 0.331198 0.140683
H22   H     H_    0.216604 0.383200 0.255545 0.219588
O11   O     O_R   0.771490 0.080820 0.910070 -0.534775
O12   O     O_R   0.441590 0.092730 0.083780 -0.540356
O13   O     O_R   0.271350 0.913900 0.084390 -0.528163
C37   C     C_R   0.610820 0.115965 0.111780 0.733123
O14   O     O_R   0.441780 0.091820 0.910670 -0.540259
O15   O     O_R   0.271540 0.912980 0.910040 -0.514190
C38   C     C_R   0.610484 0.114243 0.882426 0.752639
O16   O     O_R   0.771300 0.081740 0.084420 -0.536634
O17   O     O_3   0.604960 0.938700 0.997240 -0.333791
V3    V     V_3+5 0.330090 0.008230 0.997220 1.567099
O18   O     O_R   0.941820 0.901930 0.910640 -0.512550
C39   C     C_R   0.112040 0.880150 0.881302 0.784923
O19   O     O_R   0.941630 0.902840 0.083750 -0.532167
C40   C     C_R   0.111286 0.881474 0.112952 0.741745
V4    V     V_3+5 0.830090 0.986410 0.997190 1.594936
O20   O     O_3   0.105080 0.055990 0.997200 -0.375885
Br1   Br    Br    0.532607 0.858254 0.788050 -0.561784
I1    I     I_    0.784074 0.570205 0.242842 -0.275525
Br2   Br    Br    0.608008 0.773926 0.407358 -0.473308
I2    I     I_    0.629487 0.929076 0.247351 -0.375057
Br3   Br    Br    0.143222 0.293869 0.099502 -0.500617
I3    I     I_    0.945390 0.673130 0.946519 -0.293259
I4    I     I_    0.910207 0.970445 0.706428 -0.383523
I5    I     I_    0.434237 0.695754 0.915556 -0.274775

loop_
_geom_bond_atom_site_label_1
_geom_bond_atom_site_label_2
_ccdc_geom_bond_type
C35   H20   S    
C16   I1    S    
C15   H9    S    
C8    H6    S    
O11   C38   A    
C1    O6    A    
O18   C39   A    
V4    O20   S    
C21   C22   A    
C6    I3    S    
C32   H19   S    
C7    C11   S    
C10   C11   S    
C15   C16   A    
C8    H5    S    
C11   H8    S    
O5    C3    A    
C17   C18   A    
V2    O10   S    
C5    C6    S    
C31   C32   A    
C14   C15   A    
V3    O20   S    
O11   V4    S    
O8    V2    S    
C21   C28   S    
C32   C33   A    
O1    V2    S    
C19   Br2   S    
O14   V3    S    
O13   C40   A    
C27   H15   S    
C19   H10   S    
C35   C36   S    
C30   C31   A    
O9    C4    A    
C20   H11   S    
C14   C40   S    
C2    C30   S    
C27   H14   S    
C13   C14   A    
C1    C22   S    
C23   C24   A    
C10   C39   S    
C26   C27   S    
C8    C9    S    
O12   C37   A    
O15   C39   A    
C18   C19   S    
O4    C2    A    
C28   H17   S    
C6    C10   S    
C25   C26   A    
C29   C30   A    
C22   C23   A    
C31   H18   S    
C36   H21   S    
C7    H7    S    
O2    C1    A    
C16   C17   A    
C29   C34   A    
O19   C40   A    
C5    H1    S    
C13   C18   A    
O14   C38   A    
O3    C4    A    
O16   V4    S    
C24   H13   S    
O19   V4    S    
O6    V2    S    
O9    V2    S    
O2    V1    S    
C25   C38   S    
O17   V4    S    
C27   C28   S    
C21   C26   A    
O7    V1    S    
C28   H16   S    
C23   H12   S    
C19   C20   S    
O1    C2    A    
O15   V3    S    
O5    V1    S    
O8    C3    A    
C35   Br3   S    
C36   H22   S    
C13   C20   S    
C33   C34   A    
C10   C12   S    
O7    V2    S    
C5    C9    S    
O4    V1    S    
C12   I5    S    
O3    V1    S    
V1    O10   S    
C11   I4    S    
C24   C25   A    
C5    H2    S    
O13   V3    S    
C20   I2    S    
C7    C9    S    
C4    C9    S    
C3    C17   S    
C8    C12   S    
O17   V3    S    
C29   C36   S    
C6    H3    S    
O12   V3    S    
C34   C35   S    
C37   O16   A    
C33   C37   S    
H4    C7    S    
C12   Br1   S    
O18   V4    S    
