data_mof_unit_39521.cif
_audit_creation_date              2012-12-10T18:03:32-0500
_audit_creation_method            fapswitch 2.2
_symmetry_space_group_name_H-M    P1
_symmetry_Int_Tables_number       1
_space_group_crystal_system       triclinic
_cell_length_a                    11.0316
_cell_length_b                    9.542525
_cell_length_c                    19.476461
_cell_angle_alpha                 90.224806
_cell_angle_beta                  92.836234
_cell_angle_gamma                 89.959119
_cell_volume                      2047.74624942

loop_
_atom_site_label
_atom_site_type_symbol
_atom_type_description
_atom_site_fract_x
_atom_site_fract_y
_atom_site_fract_z
_atom_type_partial_charge
C1    C     C_R   0.871329 0.502033 0.494402 -0.168847
C2    C     C_R   0.127859 0.501720 0.500800 -0.173200
C3    C     C_R   0.617156 0.542317 0.965851 -0.066369
C4    C     C_R   0.399060 0.551134 0.035684 -0.066388
C5    C     C_R   0.620990 0.543392 0.038083 -0.069072
C6    C     C_R   0.395224 0.549780 0.963485 -0.069548
C7    C     C_R   0.511807 0.545905 0.072928 -0.012551
C8    C     C_R   0.504297 0.543510 0.928636 -0.012930
C9    C     C_R   0.262072 0.500378 0.500590 0.841924
C10   C     C_R   0.737641 0.500398 0.497936 0.840077
C11   C     C_R   0.509325 0.499676 0.367842 0.834902
C12   C     C_R   0.492192 0.500321 0.632428 0.839572
C13   C     C_R   0.062332 0.374101 0.504869 -0.091665
C14   C     C_R   0.936796 0.629966 0.498908 -0.046341
C15   C     C_R   0.936373 0.374439 0.489777 -0.092637
C16   C     C_R   0.062323 0.629339 0.492977 -0.055671
C17   C     C_R   0.506468 0.385280 0.751200 -0.024375
C18   C     C_R   0.567892 0.628046 0.261312 -0.032505
C19   C     C_R   0.497142 0.385679 0.248566 -0.014125
C20   C     C_R   0.449709 0.632950 0.741506 -0.017773
C21   C     C_R   0.519447 0.402265 0.822562 -0.161656
C22   C     C_R   0.557073 0.643331 0.189922 -0.165758
C23   C     C_R   0.487532 0.404668 0.177386 -0.166733
C24   C     C_R   0.464068 0.645809 0.812966 -0.170106
C25   C     C_R   0.499820 0.531734 0.853132 0.055658
C26   C     C_R   0.515231 0.533012 0.148326 0.054497
C27   C     C_R   0.425871 0.074526 0.454457 0.052962
C28   C     C_R   0.570116 0.926188 0.547628 0.065898
C29   C     C_R   0.574699 0.074961 0.545284 0.057815
C30   C     C_R   0.430668 0.925817 0.452006 0.071098
C31   C     C_R   0.479786 0.504182 0.708677 -0.161428
C32   C     C_R   0.527322 0.502197 0.292262 -0.159183
Cu1   Cu    Cu3+1 0.500000 0.640660 0.500000 1.047741
Cu2   Cu    Cu3+1 0.500000 0.359340 0.500000 1.041045
H1    H     H_    0.540135 0.312630 0.855197 0.172169
H2    H     H_    0.586398 0.739246 0.166105 0.176926
H3    H     H_    0.463461 0.317122 0.143714 0.173758
H4    H     H_    0.441791 0.743534 0.838064 0.170829
N1    N     N_R   0.500000 0.852070 0.500000 -0.198488
N2    N     N_R   0.500000 0.147930 0.500000 -0.211543
O1    O     O_R   0.319640 0.618740 0.500000 -0.558570
O2    O     O_R   0.680360 0.381260 0.500000 -0.583913
O3    O     O_R   0.680360 0.618740 0.500000 -0.560286
O4    O     O_R   0.319640 0.381260 0.500000 -0.582071
O5    O     O_R   0.500020 0.618830 0.400190 -0.579986
O6    O     O_R   0.499980 0.381170 0.599810 -0.561921
O7    O     O_R   0.499980 0.618830 0.599810 -0.577531
O8    O     O_R   0.500020 0.381170 0.400190 -0.559862
C33   C     C_1   0.340713 0.148811 0.409223 0.348763
N3    N     N_1   0.271356 0.207500 0.373204 -0.242967
C34   C     C_1   0.638301 0.853678 0.601728 0.297067
N4    N     N_1   0.692381 0.796948 0.645877 -0.246959
C35   C     C_1   0.661272 0.149604 0.589718 0.338613
N5    N     N_1   0.731836 0.208608 0.625028 -0.239565
C36   C     C_1   0.365373 0.853556 0.396490 0.298198
N6    N     N_1   0.313943 0.797274 0.351044 -0.250349
C37   C     C_2   0.122437 0.242003 0.528426 0.934063
O9    O     O_2   0.119006 0.137762 0.491810 -0.578793
O10   O     O_R   0.183676 0.238049 0.592968 -0.699006
H5    H     H_    0.221353 0.143027 0.603323 0.369686
C38   C     C_2   0.881320 0.767993 0.513988 0.915605
O11   O     O_2   0.817869 0.828640 0.470255 -0.512332
O12   O     O_R   0.915383 0.834688 0.575995 -0.721642
H6    H     H_    0.879124 0.931592 0.580103 0.364456
C39   C     C_2   0.875273 0.243602 0.465065 0.938211
O13   O     O_2   0.878049 0.138558 0.500639 -0.585354
O14   O     O_R   0.812964 0.242174 0.400816 -0.704856
H7    H     H_    0.774908 0.147662 0.389552 0.363572
C40   C     C_2   0.117285 0.765227 0.474165 0.909196
O15   O     O_2   0.179559 0.831835 0.516331 -0.560300
O16   O     O_R   0.082077 0.824891 0.410820 -0.708863
H8    H     H_    0.114572 0.923286 0.405422 0.364714
C41   C     C_2   0.513635 0.239444 0.725779 0.887724
O17   O     O_2   0.434589 0.192852 0.685828 -0.544188
O18   O     O_R   0.605479 0.151339 0.752633 -0.739563
H9    H     H_    0.600307 0.053177 0.732699 0.359992
C42   C     C_2   0.634367 0.739746 0.300586 0.887128
O19   O     O_2   0.706834 0.708758 0.347601 -0.530051
O20   O     O_R   0.619377 0.879857 0.281397 -0.757444
H10   H     H_    0.672397 0.945178 0.310992 0.367305
C43   C     C_2   0.485993 0.239714 0.272680 0.880333
O21   O     O_2   0.561410 0.191645 0.314200 -0.581575
O22   O     O_R   0.395638 0.152859 0.242921 -0.739238
H11   H     H_    0.399965 0.053814 0.261550 0.354073
C44   C     C_2   0.390461 0.751968 0.704544 0.877071
O23   O     O_2   0.417929 0.872363 0.720358 -0.591995
O24   O     O_R   0.297550 0.726760 0.654751 -0.712209
H12   H     H_    0.258865 0.816942 0.637363 0.378165
C45   C     C_1   0.729040 0.538777 0.929688 0.285589
N7    N     N_1   0.818208 0.535938 0.900803 -0.204850
C46   C     C_1   0.287158 0.556470 0.071808 0.285741
N8    N     N_1   0.197991 0.560698 0.100658 -0.205195
C47   C     C_1   0.736947 0.537085 0.076552 0.270740
N9    N     N_1   0.829366 0.532059 0.107269 -0.207477
C48   C     C_1   0.279075 0.550214 0.925047 0.271819
N10   N     N_1   0.186517 0.550550 0.894358 -0.206894

loop_
_geom_bond_atom_site_label_1
_geom_bond_atom_site_label_2
_ccdc_geom_bond_type
O24   H12   S    
C47   N9    T    
C10   O2    A    
Cu1   O5    S    
C41   O17   D    
C48   N10   T    
Cu2   O2    S    
C36   N6    T    
C43   O21   D    
C42   O19   D    
Cu1   N1    S    
C7    C26   S    
Cu2   N2    S    
C28   C29   A    
C4    C7    A    
C44   O23   D    
C28   C34   S    
C37   O10   S    
C13   C37   S    
C15   C39   S    
C38   O12   S    
C23   C26   A    
C40   O16   S    
C2    C13   A    
C20   C24   A    
C39   O14   S    
C24   H4    S    
Cu2   O6    S    
C2    C16   A    
C4    C46   S    
C42   O20   S    
O10   H5    S    
C27   C30   A    
C17   C41   S    
C8    C25   S    
C41   O18   S    
C11   O8    A    
C40   O15   D    
C12   O7    A    
C19   C32   A    
C43   O22   S    
C44   O24   S    
C16   C40   S    
O14   H7    S    
Cu1   O3    S    
Cu2   O4    S    
C24   C25   A    
C12   O6    A    
C3    C8    A    
C46   N8    T    
C5    C7    A    
C6    C8    A    
C28   N1    A    
C23   H3    S    
C14   C38   S    
C17   C21   A    
C34   N4    T    
C19   C23   A    
O18   H9    S    
O22   H11   S    
C27   N2    A    
C20   C44   S    
Cu1   Cu2   S    
C6    C48   S    
C1    C15   A    
C4    C6    A    
C11   C32   S    
C39   O13   D    
C13   C15   A    
C12   C31   S    
C17   C31   A    
C14   C16   A    
C11   O5    A    
Cu2   O8    S    
C21   C25   A    
C9    O4    A    
C10   O3    A    
C18   C22   A    
C1    C10   S    
O12   H6    S    
C3    C5    A    
C5    C47   S    
C35   N5    T    
C21   H1    S    
C22   H2    S    
C30   C36   S    
C9    O1    A    
C3    C45   S    
Cu1   O1    S    
O16   H8    S    
C37   O9    D    
C29   C35   S    
C18   C42   S    
Cu1   O7    S    
C29   N2    A    
C30   N1    A    
C38   O11   D    
O20   H10   S    
C18   C32   A    
C33   N3    T    
C22   C26   A    
C1    C14   A    
C45   N7    T    
C19   C43   S    
C2    C9    S    
C27   C33   S    
C20   C31   A    
