data_mof_unit_38032.cif
_audit_creation_date              2012-12-10T18:03:59-0500
_audit_creation_method            fapswitch 2.2
_symmetry_space_group_name_H-M    P1
_symmetry_Int_Tables_number       1
_space_group_crystal_system       triclinic
_cell_length_a                    10.864104
_cell_length_b                    9.668586
_cell_length_c                    11.023594
_cell_angle_alpha                 90.520549
_cell_angle_beta                  97.332106
_cell_angle_gamma                 90.267266
_cell_volume                      1148.38864275

loop_
_atom_site_label
_atom_site_type_symbol
_atom_type_description
_atom_site_fract_x
_atom_site_fract_y
_atom_site_fract_z
_atom_type_partial_charge
C1    C     C_R   0.264193 0.499561 0.511749 0.786238
C2    C     C_R   0.736040 0.499935 0.488471 0.782376
C3    C     C_R   0.418681 0.073846 0.417917 0.302415
C4    C     C_R   0.592645 0.074509 0.570364 0.265782
C5    C     C_R   0.409837 0.925939 0.427406 0.275686
C6    C     C_R   0.595009 0.925677 0.564014 0.329986
C7    C     C_R   0.498587 0.500001 0.262477 0.777749
C8    C     C_R   0.507191 0.501047 0.738135 0.808447
C9    C     C_R   0.440253 0.603444 0.054836 -0.031368
C10   C     C_R   0.459464 0.610583 0.931320 -0.010397
C11   C     C_R   0.501635 0.499940 0.129226 -0.172150
C12   C     C_R   0.515554 0.503921 0.872982 -0.167830
C13   C     C_R   0.573706 0.400528 0.073860 0.190464
C14   C     C_R   0.579873 0.402488 0.946205 0.230606
C15   C     C_3   0.503250 0.758373 0.948106 -0.115397
C16   C     C_3   0.447130 0.759886 0.068286 -0.119926
C17   C     C_R   0.063084 0.372696 0.514217 -0.078594
C18   C     C_R   0.935650 0.374023 0.476210 -0.079140
C19   C     C_R   0.870243 0.499391 0.476292 -0.145924
C20   C     C_R   0.130200 0.497962 0.523788 -0.137046
C21   C     C_R   0.937876 0.623912 0.484129 -0.060633
C22   C     C_R   0.064629 0.622632 0.524298 -0.093187
Cu1   Cu    Cu3+1 0.500000 0.640660 0.500000 0.985638
Cu2   Cu    Cu3+1 0.500000 0.359340 0.500000 0.975205
N1    N     N_R   0.500000 0.852070 0.500000 -0.222709
N2    N     N_R   0.500000 0.147940 0.500000 -0.236287
O1    O     O_R   0.319640 0.618740 0.499990 -0.577456
O2    O     O_R   0.680360 0.618740 0.500010 -0.542921
O3    O     O_R   0.319620 0.381170 0.499990 -0.567401
O4    O     O_R   0.680380 0.381170 0.500010 -0.586120
O5    O     O_R   0.499990 0.618810 0.319660 -0.596565
O6    O     O_R   0.500010 0.618810 0.680340 -0.570347
O7    O     O_R   0.499960 0.381240 0.319650 -0.546805
O8    O     O_R   0.500040 0.381240 0.680350 -0.579529
N3    N     N_2   0.656645 0.312508 0.147164 -0.427251
H1    H     H_    0.700091 0.353654 0.228077 0.260568
C23   C     C_3   0.621175 0.168506 0.150621 -0.575966
H2    H     H_    0.602895 0.142636 0.244333 0.258744
H3    H     H_    0.698704 0.103336 0.127114 0.243040
H4    H     H_    0.537068 0.144156 0.085124 0.198842
N4    N     N_2   0.669064 0.319773 0.895975 -0.429480
H5    H     H_    0.674670 0.219202 0.925973 0.281691
C24   C     C_3   0.789318 0.386296 0.900336 -0.662836
H6    H     H_    0.856446 0.314237 0.866441 0.224517
H7    H     H_    0.825746 0.416263 0.995828 0.248862
H8    H     H_    0.782257 0.479684 0.841924 0.220064
C25   C     C_1   0.641196 0.765332 0.971230 0.190995
N5    N     N_1   0.748157 0.769138 0.995037 -0.283059
C26   C     C_1   0.320993 0.818677 0.059135 0.235223
N6    N     N_1   0.222074 0.864469 0.049837 -0.278209
C27   C     C_1   0.449580 0.854327 0.852687 0.269895
N7    N     N_1   0.408026 0.930655 0.778417 -0.243778
C28   C     C_1   0.529398 0.822769 0.171350 0.272162
N8    N     N_1   0.595897 0.871726 0.250537 -0.269922
C29   C     C_1   0.118912 0.246517 0.564439 0.239248
N9    N     N_1   0.163624 0.146534 0.606193 -0.254223
C30   C     C_1   0.879279 0.252046 0.415421 0.248667
N10   N     N_1   0.836113 0.154257 0.365504 -0.276702
C31   C     C_1   0.889860 0.742003 0.414616 0.233962
N11   N     N_1   0.853851 0.836020 0.356631 -0.243007
C32   C     C_1   0.121012 0.744021 0.586116 0.273353
N12   N     N_1   0.165514 0.840161 0.637630 -0.230157
N13   N     N_2   0.372959 0.136186 0.303860 -0.391276
H9    H     H_    0.386342 0.076944 0.228450 0.240754
C33   C     C_3   0.253740 0.204200 0.289187 -0.554664
H10   H     H_    0.195887 0.165480 0.205282 0.192242
H11   H     H_    0.266591 0.316712 0.276990 0.228485
H12   H     H_    0.202760 0.185573 0.367335 0.221208
N14   N     N_2   0.679763 0.145881 0.658106 -0.418760
H13   H     H_    0.657781 0.244075 0.678466 0.332684
C34   C     C_3   0.813019 0.131423 0.662581 -0.662747
H14   H     H_    0.857299 0.234981 0.663276 0.218842
H15   H     H_    0.840200 0.074333 0.583864 0.241524
H16   H     H_    0.851447 0.081723 0.749194 0.235481
N15   N     N_2   0.318241 0.855172 0.344713 -0.434168
H17   H     H_    0.332244 0.754215 0.322969 0.299083
C35   C     C_3   0.188879 0.890203 0.344647 -0.621403
H18   H     H_    0.133180 0.794518 0.348015 0.220739
H19   H     H_    0.153484 0.941604 0.258203 0.248800
H20   H     H_    0.174421 0.958171 0.422891 0.242935
N16   N     N_2   0.703801 0.852682 0.607320 -0.383973
H21   H     H_    0.778170 0.871616 0.562106 0.253228
C36   C     C_3   0.734146 0.832063 0.735832 -0.590653
H22   H     H_    0.836056 0.841271 0.762246 0.211627
H23   H     H_    0.707774 0.725042 0.756312 0.239582
H24   H     H_    0.687470 0.910130 0.788135 0.232329

loop_
_geom_bond_atom_site_label_1
_geom_bond_atom_site_label_2
_ccdc_geom_bond_type
C29   N9    T    
N13   C33   S    
C7    O7    A    
N4    H5    S    
N3    H1    S    
C15   C25   S    
C24   H6    S    
N16   H21   S    
C28   N8    T    
C7    C11   S    
C19   C21   A    
C9    C16   S    
Cu2   N2    S    
C21   C31   S    
C23   H4    S    
C10   C15   S    
C6    N1    A    
C15   C16   S    
C17   C20   A    
N14   C34   S    
C18   C19   A    
N15   C35   S    
C16   C28   S    
Cu2   O3    S    
C25   N5    T    
C33   H11   S    
Cu1   Cu2   S    
Cu1   O1    S    
C9    C10   A    
C17   C29   S    
C31   N11   T    
C6    N16   S    
C21   C22   A    
N4    C24   S    
C32   N12   T    
C4    N14   S    
N16   C36   S    
C35   H19   S    
C7    O5    A    
C27   N7    T    
C8    O6    A    
C16   C26   S    
C4    C6    A    
C34   H15   S    
C35   H18   S    
Cu2   O8    S    
Cu1   O5    S    
C5    N15   S    
N15   H17   S    
C23   H2    S    
C9    C11   A    
C18   C30   S    
C36   H22   S    
C8    C12   S    
C33   H12   S    
C1    O3    A    
C17   C18   A    
C8    O8    A    
Cu1   O2    S    
C24   H7    S    
C10   C12   A    
C14   N4    S    
C5    N1    A    
C36   H23   S    
C12   C14   A    
C26   N6    T    
C15   C27   S    
C35   H20   S    
C1    C20   S    
N3    C23   S    
C2    C19   S    
C3    N2    A    
C20   C22   A    
C3    C5    A    
C34   H16   S    
C4    N2    A    
C13   N3    S    
C3    N13   S    
Cu2   O7    S    
C2    O4    A    
Cu1   O6    S    
C34   H14   S    
C23   H3    S    
C22   C32   S    
C11   C13   A    
C30   N10   T    
Cu1   N1    S    
N14   H13   S    
C24   H8    S    
Cu2   O4    S    
N13   H9    S    
C36   H24   S    
C33   H10   S    
C1    O1    A    
C2    O2    A    
C13   C14   A    
