data_mof_unit_33755.cif
_audit_creation_date              2012-12-10T20:34:50-0500
_audit_creation_method            fapswitch 2.2
_symmetry_space_group_name_H-M    P1
_symmetry_Int_Tables_number       1
_space_group_crystal_system       triclinic
_cell_length_a                    10.641486
_cell_length_b                    10.689296
_cell_length_c                    9.86944
_cell_angle_alpha                 89.792418
_cell_angle_beta                  90.161798
_cell_angle_gamma                 90.631395
_cell_volume                      1122.56885397

loop_
_atom_site_label
_atom_site_type_symbol
_atom_type_description
_atom_site_fract_x
_atom_site_fract_y
_atom_site_fract_z
_atom_type_partial_charge
C1    C     C_R   0.502115 0.259839 0.500174 0.987190
C2    C     C_3   0.878797 0.502110 0.500634 -0.044330
C3    C     C_3   0.928207 0.562657 0.366824 -0.438471
C4    C     C_3   0.927509 0.364265 0.514313 0.392726
C5    C     C_R   0.515158 0.062346 0.622656 0.085291
C6    C     C_R   0.518979 0.128157 0.500689 -0.053078
C7    C     C_R   0.548510 0.065591 0.380237 -0.106925
C8    C     C_R   0.551799 0.936163 0.380125 -0.199036
C9    C     C_R   0.527110 0.871097 0.500901 -0.075736
C10   C     C_R   0.523157 0.935151 0.623271 0.068013
C11   C     C_3   0.434963 0.920497 0.739849 -0.442870
C12   C     C_R   0.258167 0.505828 0.499791 0.990538
C13   C     C_3   0.422104 0.061585 0.736547 0.076104
C14   C     C_R   0.390526 0.483358 0.070909 0.090374
C15   C     C_R   0.606293 0.527250 0.072081 -0.111462
C16   C     C_R   0.606329 0.527124 0.928288 -0.094120
C17   C     C_R   0.390403 0.484187 0.928253 0.125234
C18   C     C_3   0.303951 0.374035 0.919951 -0.507244
C19   C     C_3   0.304673 0.371299 0.074081 0.267395
C20   C     C_R   0.505720 0.739834 0.499867 0.882705
C21   C     C_R   0.742277 0.502637 0.500152 0.934783
C22   C     C_3   0.072861 0.586680 0.620241 0.243144
C23   C     C_3   0.928257 0.584594 0.619806 -0.513017
C24   C     C_3   0.071213 0.561881 0.364505 -0.427905
C25   C     C_3   0.073606 0.369086 0.520341 0.183790
C26   C     C_3   0.121986 0.506411 0.499670 -0.119303
H1    H     H_    0.102360 0.507648 0.275528 0.182307
H2    H     H_    0.892586 0.512060 0.275991 0.223236
H3    H     H_    0.561261 0.115319 0.285357 0.188004
H4    H     H_    0.564963 0.887857 0.284990 0.171095
H5    H     H_    0.347814 0.867712 0.712882 0.264062
H6    H     H_    0.483639 0.885908 0.832274 0.183396
H7    H     H_    0.459226 0.107659 0.829327 0.135203
H8    H     H_    0.692593 0.547616 0.126009 0.150317
H9    H     H_    0.103717 0.543408 0.717356 0.146663
H10   H     H_    0.692681 0.547230 0.874686 0.155752
H11   H     H_    0.211069 0.398831 0.876482 0.182944
H12   H     H_    0.349396 0.292855 0.872065 0.236632
H13   H     H_    0.211613 0.390714 0.119009 0.125572
H14   H     H_    0.894826 0.547754 0.719048 0.196856
H15   H     H_    0.890456 0.680988 0.610507 0.206148
H16   H     H_    0.108163 0.658372 0.347781 0.201742
H17   H     H_    0.894951 0.660824 0.358221 0.189748
H18   H     H_    0.103585 0.340684 0.623857 0.176936
N1    N     N_R   0.499150 0.499140 0.142800 -0.100592
N2    N     N_R   0.499150 0.499180 0.857150 -0.097717
O1    O     O_R   0.500020 0.316790 0.614690 -0.610188
O2    O     O_R   0.500000 0.316760 0.385350 -0.577120
O3    O     O_R   0.314800 0.500000 0.614670 -0.620062
O4    O     O_R   0.314790 0.499960 0.385330 -0.618882
O5    O     O_R   0.500000 0.683240 0.614650 -0.616915
O6    O     O_R   0.499980 0.683210 0.385310 -0.634203
O7    O     O_R   0.685210 0.500040 0.614670 -0.616650
O8    O     O_R   0.685200 0.500000 0.385330 -0.627446
Zn1   Zn    Zn3+2 0.500010 0.500020 0.653130 0.987982
Zn2   Zn    Zn3+2 0.499990 0.499980 0.346870 0.992545
O9    O     O_3   0.122489 0.709586 0.618828 -0.735162
H19   H     H_    0.080978 0.757376 0.545346 0.364358
Br1   Br    Br    0.863596 0.258545 0.365846 -0.459703
Br2   Br    Br    0.253646 0.109769 0.681276 -0.420520
O10   O     O_3   0.360517 0.263581 0.129325 -0.691942
H20   H     H_    0.443782 0.251977 0.086103 0.336431
O11   O     O_3   0.130374 0.283003 0.432179 -0.655757
H21   H     H_    0.118328 0.311886 0.337789 0.369363
Br3   Br    Br    0.865044 0.281737 0.679401 -0.478221

loop_
_geom_bond_atom_site_label_1
_geom_bond_atom_site_label_2
_ccdc_geom_bond_type
N2    Zn1   S    
C12   O4    A    
C1    O2    A    
C13   H7    S    
C6    C7    A    
C7    H3    S    
C14   N1    A    
C24   H16   S    
C9    C10   A    
C15   H8    S    
C2    C4    S    
C23   H15   S    
C24   H1    S    
C8    H4    S    
C22   O9    S    
C12   O3    A    
C18   H12   S    
C11   H5    S    
C5    C10   A    
C20   O6    A    
C13   Br2   S    
O3    Zn1   S    
C16   H10   S    
C21   O7    A    
C22   H9    S    
C11   C13   S    
C14   C17   A    
C3    H17   S    
O9    H19   S    
C21   O8    A    
C19   H13   S    
C2    C21   S    
C5    C6    A    
C12   C26   S    
C25   H18   S    
C3    H2    S    
C18   H11   S    
C19   O10   S    
C11   H6    S    
C17   C18   S    
C20   O5    A    
C2    C3    S    
O7    Zn1   S    
C25   O11   S    
O10   H20   S    
O8    Zn2   S    
C10   C11   S    
C15   N1    A    
O6    Zn2   S    
C1    C6    S    
C4    C25   S    
C7    C8    A    
C17   N2    A    
C4    Br1   S    
O1    Zn1   S    
C18   C19   S    
C22   C26   S    
C16   N2    A    
C2    C23   S    
O2    Zn2   S    
C23   H14   S    
N1    Zn2   S    
C4    Br3   S    
C1    O1    A    
C9    C20   S    
O5    Zn1   S    
C25   C26   S    
C22   C23   S    
C5    C13   S    
C14   C19   S    
C15   C16   A    
O4    Zn2   S    
O11   H21   S    
C3    C24   S    
C24   C26   S    
C8    C9    A    
