data_mof_unit_47923.cif
_audit_creation_date              2012-12-10T17:40:51-0500
_audit_creation_method            fapswitch 2.2
_symmetry_space_group_name_H-M    P1
_symmetry_Int_Tables_number       1
_space_group_crystal_system       triclinic
_cell_length_a                    14.755459
_cell_length_b                    15.52443
_cell_length_c                    9.904703
_cell_angle_alpha                 90.008647
_cell_angle_beta                  92.576298
_cell_angle_gamma                 90.001132
_cell_volume                      2266.577923

loop_
_atom_site_label
_atom_site_type_symbol
_atom_type_description
_atom_site_fract_x
_atom_site_fract_y
_atom_site_fract_z
_atom_type_partial_charge
C1    C     C_R   0.386164 0.875016 0.499118 0.846334
C2    C     C_R   0.701747 0.231076 0.386402 -0.169481
C3    C     C_R   0.201620 0.268813 0.386292 -0.168302
C4    C     C_R   0.201599 0.731188 0.386325 -0.168570
C5    C     C_R   0.678585 0.804921 0.509379 -0.151872
C6    C     C_R   0.679139 0.194657 0.509562 -0.151200
C7    C     C_R   0.178884 0.305150 0.509465 -0.151478
C8    C     C_R   0.178909 0.694834 0.509493 -0.151532
C9    C     C_R   0.335014 0.000284 0.130296 -0.318316
C10   C     C_R   0.835014 0.500059 0.130296 -0.318424
C11   C     C_R   0.252104 0.000516 0.055333 0.463711
C12   C     C_R   0.386156 0.124978 0.499130 0.846552
C13   C     C_R   0.752104 0.500137 0.055332 0.463686
C14   C     C_R   0.252448 0.000534 0.915327 -0.180721
C15   C     C_R   0.752447 0.500139 0.915326 -0.180734
C16   C     C_R   0.333890 0.000333 0.849848 -0.254138
C17   C     C_R   0.833890 0.500066 0.849847 -0.254199
C18   C     C_R   0.418246 0.000240 0.922453 0.174761
C19   C     C_R   0.918245 0.500032 0.922453 0.174972
C20   C     C_R   0.418507 0.000197 0.066962 0.155785
C21   C     C_R   0.918507 0.500029 0.066961 0.155971
C22   C     C_R   0.577600 0.999681 0.079801 -0.088840
C23   C     C_R   0.886211 0.374991 0.499116 0.846459
C24   C     C_R   0.077600 0.499963 0.079807 -0.088769
C25   C     C_R   0.616060 0.123889 0.502647 0.910316
C26   C     C_R   0.615868 0.875979 0.502591 0.909764
C27   C     C_R   0.115979 0.623945 0.502628 0.910255
C28   C     C_R   0.115972 0.376051 0.502615 0.909892
C29   C     C_R   0.579581 0.999433 0.937085 -0.014474
C30   C     C_R   0.079588 0.499952 0.937089 -0.014447
C31   C     C_R   0.372010 0.240091 0.735336 -0.208776
C32   C     C_R   0.372142 0.759846 0.735232 -0.208855
C33   C     C_R   0.871398 0.739768 0.735623 -0.208810
C34   C     C_R   0.886095 0.624946 0.499134 0.846448
C35   C     C_R   0.872588 0.259629 0.735043 -0.208793
C36   C     C_R   0.344072 0.262761 0.863992 0.004011
C37   C     C_R   0.344271 0.737135 0.863900 0.004495
C38   C     C_R   0.843186 0.762156 0.864246 0.003190
C39   C     C_R   0.844913 0.236718 0.863735 0.005155
C40   C     C_R   0.753042 0.787074 0.877542 -0.164844
C41   C     C_R   0.755001 0.211211 0.877465 -0.167881
C42   C     C_R   0.254048 0.287990 0.877507 -0.166041
C43   C     C_R   0.254258 0.711885 0.877484 -0.167015
C44   C     C_R   0.695331 0.797158 0.763127 -0.139880
C45   C     C_R   0.272890 0.212775 0.382191 -0.178283
C46   C     C_R   0.696900 0.201457 0.763414 -0.136218
C47   C     C_R   0.196142 0.297896 0.763274 -0.138010
C48   C     C_R   0.196292 0.702017 0.763302 -0.138186
C49   C     C_R   0.726418 0.781821 0.631881 0.103868
C50   C     C_R   0.727411 0.217368 0.631969 0.104527
C51   C     C_R   0.226935 0.282254 0.631925 0.104094
C52   C     C_R   0.227021 0.717696 0.631931 0.104443
C53   C     C_R   0.310136 0.240792 0.621614 0.082639
C54   C     C_R   0.310216 0.759162 0.621571 0.082695
C55   C     C_R   0.809690 0.740485 0.621713 0.082967
C56   C     C_R   0.272875 0.787218 0.382199 -0.178152
C57   C     C_R   0.810549 0.258938 0.621509 0.082386
C58   C     C_R   0.326628 0.197815 0.499074 -0.122196
C59   C     C_R   0.326656 0.802163 0.499047 -0.122110
C60   C     C_R   0.826407 0.697669 0.499110 -0.122416
C61   C     C_R   0.826825 0.302053 0.499028 -0.121915
C62   C     C_2   0.673218 0.998166 0.884597 0.868673
C63   C     C_2   0.173245 0.499873 0.884611 0.868393
C64   C     C_2   0.407285 0.256468 0.984454 0.913318
C65   C     C_2   0.407533 0.743427 0.984316 0.913381
C66   C     C_2   0.906279 0.755986 0.984850 0.912932
C67   C     C_R   0.772722 0.712637 0.382166 -0.178658
C68   C     C_2   0.908245 0.243136 0.984054 0.913586
C69   C     C_R   0.773010 0.287107 0.382223 -0.177899
C70   C     C_R   0.701435 0.768673 0.386197 -0.167216
H1    H     H_    0.284829 0.180192 0.287858 0.195479
H2    H     H_    0.442088 0.778609 0.724299 0.178255
H3    H     H_    0.941445 0.721267 0.724914 0.178773
H4    H     H_    0.942472 0.278566 0.723998 0.178355
H5    H     H_    0.727200 0.800132 0.976131 0.201594
H6    H     H_    0.729573 0.197624 0.976140 0.198071
H7    H     H_    0.228416 0.301329 0.976140 0.200031
H8    H     H_    0.228676 0.698511 0.976131 0.199513
H9    H     H_    0.625752 0.813246 0.780820 0.187829
H10   H     H_    0.627457 0.185238 0.781735 0.188474
H11   H     H_    0.126633 0.314050 0.781287 0.188402
H12   H     H_    0.284778 0.819816 0.287880 0.195436
H13   H     H_    0.126790 0.685869 0.781384 0.187789
H14   H     H_    0.663616 0.782889 0.292486 0.190128
H15   H     H_    0.663690 0.217061 0.292808 0.189557
H16   H     H_    0.163688 0.282925 0.292636 0.189831
H17   H     H_    0.163625 0.717097 0.292690 0.189823
H18   H     H_    0.639288 0.999561 0.143024 0.205482
H19   H     H_    0.139281 0.499945 0.143045 0.205539
H20   H     H_    0.332171 0.000091 0.237506 0.205466
H21   H     H_    0.832171 0.500013 0.237506 0.205470
H22   H     H_    0.808543 0.993905 0.928597 0.363147
H23   H     H_    0.784755 0.680108 0.287824 0.195600
H24   H     H_    0.308641 0.499588 0.928675 0.363171
H25   H     H_    0.428123 0.275004 0.185151 0.350526
H26   H     H_    0.428358 0.725133 0.185066 0.350545
H27   H     H_    0.927000 0.774950 0.185457 0.350485
H28   H     H_    0.929204 0.225051 0.184829 0.350585
H29   H     H_    0.180784 0.000645 0.215634 0.325001
H30   H     H_    0.680783 0.500204 0.215633 0.325008
H31   H     H_    0.784844 0.319742 0.287909 0.195312
H32   H     H_    0.188848 0.000628 0.856283 0.179905
H33   H     H_    0.688848 0.500185 0.856282 0.179934
H34   H     H_    0.327580 0.000141 0.742421 0.229794
H35   H     H_    0.827580 0.500035 0.742420 0.229793
H36   H     H_    0.441973 0.221360 0.724458 0.178771
N1    N     N_R   0.498810 0.000000 0.142780 -0.121091
N2    N     N_R   0.998810 0.500000 0.142780 -0.121070
N3    N     N_R   0.498740 0.000000 0.857170 -0.138325
N4    N     N_R   0.998740 0.500000 0.857170 -0.138263
O1    O     O_R   0.408390 0.908380 0.614690 -0.645939
O2    O     O_R   0.591620 0.908390 0.614640 -0.591888
O3    O     O_R   0.091620 0.591610 0.614640 -0.591093
O4    O     O_R   0.091620 0.408390 0.614640 -0.591377
O5    O     O_R   0.591610 0.091610 0.385310 -0.614655
O6    O     O_R   0.591610 0.908390 0.385310 -0.614175
O7    O     O_R   0.091610 0.591610 0.385310 -0.614352
O8    O     O_R   0.091610 0.408390 0.385310 -0.614500
O9    O     O_2   0.686571 0.000551 0.764906 -0.566596
O10   O     O_R   0.748779 0.994382 0.975346 -0.814622
O11   O     O_2   0.186550 0.500055 0.764850 -0.566530
O12   O     O_R   0.408390 0.091620 0.614690 -0.645796
O13   O     O_R   0.248877 0.499606 0.975432 -0.814672
O14   O     O_2   0.483945 0.227961 0.973857 -0.665684
O15   O     O_R   0.379291 0.283068 0.110879 -0.803641
O16   O     O_2   0.484262 0.771741 0.973607 -0.666155
O17   O     O_R   0.379500 0.717064 0.110828 -0.803785
O18   O     O_2   0.982918 0.727365 0.974528 -0.665605
O19   O     O_R   0.878220 0.782893 0.111076 -0.803032
O20   O     O_2   0.984932 0.271515 0.973192 -0.666140
O21   O     O_R   0.880316 0.216857 0.110669 -0.804331
O22   O     O_3   0.169778 0.000654 0.116112 -0.743884
O23   O     O_R   0.908390 0.408380 0.614690 -0.645919
O24   O     O_3   0.669777 0.500200 0.116111 -0.743850
O25   O     O_R   0.908390 0.591620 0.614690 -0.645808
O26   O     O_R   0.408370 0.908380 0.385360 -0.638085
O27   O     O_R   0.408370 0.091620 0.385360 -0.638088
O28   O     O_R   0.908370 0.408380 0.385360 -0.638119
O29   O     O_R   0.908370 0.591620 0.385360 -0.638046
O30   O     O_R   0.591620 0.091610 0.614640 -0.590619
Zn1   Zn    Zn3+2 0.500010 0.000000 0.653130 0.966973
Zn2   Zn    Zn3+2 0.000010 0.500000 0.653130 0.967003
Zn3   Zn    Zn3+2 0.499980 0.000000 0.346870 0.961418
Zn4   Zn    Zn3+2 0.999980 0.500000 0.346870 0.961454

loop_
_geom_bond_atom_site_label_1
_geom_bond_atom_site_label_2
_ccdc_geom_bond_type
C44   C49   A    
C33   C55   A    
C38   C40   A    
C35   H4    S    
C22   C29   A    
C26   O2    A    
C45   H1    S    
C39   C68   S    
C23   O28   A    
C36   C42   A    
C18   N3    A    
C4    C8    A    
C11   O22   S    
C39   C41   A    
C4    H17   S    
C43   H8    S    
O23   Zn2   S    
H29   O22   S    
C30   N4    A    
C65   O17   S    
C29   N3    A    
C19   C21   A    
O26   Zn3   S    
C3    C7    A    
C1    C59   S    
C11   C14   A    
C14   H32   S    
C6    C25   S    
C22   N1    A    
C34   O29   A    
O3    Zn2   S    
C2    H15   S    
C13   O24   S    
C57   C61   A    
N4    Zn2   S    
C56   C59   A    
C16   H34   S    
O25   Zn2   S    
C38   C66   S    
C60   C67   A    
H30   O24   S    
C37   C65   S    
H28   O21   S    
C41   C46   A    
C24   N2    A    
C22   H18   S    
C2    C69   A    
C70   H14   S    
C43   C48   A    
C8    C52   A    
C40   C44   A    
C62   O10   S    
C66   O19   S    
C12   C58   S    
H24   O13   S    
C36   C64   S    
O27   Zn3   S    
C55   C60   A    
C24   H19   S    
C3    H16   S    
C34   C60   S    
C5    C49   A    
C2    C6    A    
C32   C54   A    
C63   O11   D    
C52   C54   A    
C24   C30   A    
C54   C59   A    
C27   O7    A    
C10   C21   A    
O5    Zn3   S    
C45   C58   A    
C23   O23   A    
C25   O30   A    
O30   Zn1   S    
C32   H2    S    
C47   C51   A    
C49   C55   A    
C3    C45   A    
C6    C50   A    
C7    C28   S    
H26   O17   S    
C51   C53   A    
O2    Zn1   S    
C37   C43   A    
C68   O21   S    
C35   C39   A    
C5    C70   A    
C17   H35   S    
O6    Zn3   S    
O29   Zn4   S    
H25   O15   S    
C9    C20   A    
C48   C52   A    
O7    Zn4   S    
C32   C37   A    
C31   C53   A    
C68   O20   D    
C9    C11   A    
C62   O9    D    
C28   O4    A    
C27   O3    A    
C33   H3    S    
C10   H21   S    
C13   C15   A    
C31   H36   S    
C14   C16   A    
N1    Zn3   S    
C1    O26   A    
O4    Zn2   S    
N2    Zn4   S    
C67   H23   S    
C19   N4    A    
C61   C69   A    
C15   C17   A    
C29   C62   S    
C12   O27   A    
C50   C57   A    
C44   H9    S    
C10   C13   A    
C9    H20   S    
C63   O13   S    
C53   C58   A    
C40   H5    S    
C56   H12   S    
C69   H31   S    
C46   C50   A    
O8    Zn4   S    
C33   C38   A    
C48   H13   S    
C35   C57   A    
C67   C70   A    
C65   O16   D    
C20   N1    A    
C25   O5    A    
H22   O10   S    
H27   O19   S    
C64   O14   D    
C1    O1    A    
C41   H6    S    
C46   H10   S    
C34   O25   A    
O28   Zn4   S    
C17   C19   A    
C66   O18   D    
C18   C20   A    
C42   C47   A    
C47   H11   S    
C26   O6    A    
C21   N2    A    
O1    Zn1   S    
C7    C51   A    
C5    C26   S    
C23   C61   S    
C12   O12   A    
C42   H7    S    
C16   C18   A    
C64   O15   S    
C28   O8    A    
C8    C27   S    
C31   C36   A    
N3    Zn1   S    
O12   Zn1   S    
C15   H33   S    
C30   C63   S    
C4    C56   A    
