data_mof_unit_17201.cif
_audit_creation_date              2012-12-11T14:41:08-0500
_audit_creation_method            fapswitch 2.2
_symmetry_space_group_name_H-M    P1
_symmetry_Int_Tables_number       1
_space_group_crystal_system       triclinic
_cell_length_a                    6.945435
_cell_length_b                    17.755185
_cell_length_c                    18.949137
_cell_angle_alpha                 90.0
_cell_angle_beta                  90.00001
_cell_angle_gamma                 90.064251
_cell_volume                      2336.75841686

loop_
_atom_site_label
_atom_site_type_symbol
_atom_type_description
_atom_site_fract_x
_atom_site_fract_y
_atom_site_fract_z
_atom_type_partial_charge
O1    O     O_R   0.377350 0.828520 0.186660 -0.540282
O2    O     O_R   0.622650 0.171480 0.813340 -0.534862
O3    O     O_R   0.122650 0.171480 0.686660 -0.540282
O4    O     O_R   0.877350 0.828520 0.313340 -0.534862
O5    O     O_R   0.877350 0.671480 0.313340 -0.536404
O6    O     O_R   0.122650 0.328520 0.686660 -0.536065
O7    O     O_R   0.622650 0.328520 0.813340 -0.536404
O8    O     O_R   0.377350 0.671480 0.186660 -0.536066
O9    O     O_R   0.707090 0.671930 0.178410 -0.539323
O10   O     O_R   0.292910 0.328070 0.821590 -0.539575
O11   O     O_R   0.792910 0.328070 0.678410 -0.539323
O12   O     O_R   0.207090 0.671930 0.321590 -0.539575
O13   O     O_R   0.207090 0.828070 0.321590 -0.538811
O14   O     O_R   0.792910 0.171930 0.678410 -0.541779
O15   O     O_R   0.292910 0.171930 0.821590 -0.538811
O16   O     O_R   0.707090 0.828070 0.178410 -0.541779
C1    C     C_R   0.539389 0.645698 0.161514 0.713336
C2    C     C_R   0.460609 0.354360 0.838429 0.708370
C3    C     C_R   0.960611 0.354302 0.661514 0.713336
C4    C     C_R   0.039391 0.645640 0.338429 0.708370
C5    C     C_R   0.039529 0.854330 0.338461 0.706826
C6    C     C_R   0.960320 0.145603 0.661538 0.714292
C7    C     C_R   0.460471 0.145670 0.838461 0.706826
C8    C     C_R   0.539680 0.854397 0.161538 0.714292
O17   O     O_3   0.543850 0.750000 0.294270 -0.365510
O18   O     O_3   0.456150 0.250000 0.705730 -0.369050
O19   O     O_3   0.956150 0.250000 0.794270 -0.365510
O20   O     O_3   0.043850 0.750000 0.205730 -0.369051
V1    V     V_3+5 0.818700 0.750000 0.241790 1.459516
V2    V     V_3+5 0.181300 0.250000 0.758210 1.461128
V3    V     V_3+5 0.681300 0.250000 0.741790 1.459516
V4    V     V_3+5 0.318700 0.750000 0.258210 1.461128
C9    C     C_R   0.960553 0.416507 0.609011 -0.100917
C10   C     C_R   0.039355 0.583331 0.390834 -0.099577
C11   C     C_R   0.539447 0.583492 0.109011 -0.100916
C12   C     C_R   0.460645 0.416669 0.890834 -0.099577
C13   C     C_R   0.460482 0.083170 0.890659 -0.107575
C14   C     C_R   0.541712 0.916059 0.108355 -0.090143
C15   C     C_R   0.039518 0.916830 0.390659 -0.107575
C16   C     C_R   0.958288 0.083941 0.608355 -0.090143
C17   C     C_R   0.207238 0.474461 0.440958 0.010751
C18   C     C_R   0.792144 0.525141 0.558696 0.008391
C19   C     C_R   0.292762 0.525539 0.940958 0.010751
C20   C     C_R   0.707856 0.474859 0.058696 0.008391
C21   C     C_R   0.718566 0.021310 0.055083 -0.000589
C22   C     C_R   0.297367 0.972486 0.939583 0.011735
C23   C     C_R   0.781434 0.978690 0.555083 -0.000589
C24   C     C_R   0.202633 0.027514 0.439583 0.011735
C25   C     C_R   0.185059 0.528934 0.387859 -0.147128
C26   C     C_R   0.814578 0.470792 0.611879 -0.148043
C27   C     C_R   0.314941 0.471066 0.887859 -0.147129
C28   C     C_R   0.685422 0.529208 0.111879 -0.148044
C29   C     C_R   0.695204 0.967387 0.108582 -0.181765
C30   C     C_R   0.313608 0.029087 0.888164 -0.144673
C31   C     C_R   0.804796 0.032613 0.608582 -0.181765
C32   C     C_R   0.186392 0.970913 0.388164 -0.144673
C33   C     C_R   0.909865 0.582093 0.447352 -0.193554
C34   C     C_R   0.089913 0.417664 0.552446 -0.187444
C35   C     C_R   0.590135 0.417907 0.947352 -0.193554
C36   C     C_R   0.410087 0.582336 0.052446 -0.187444
C37   C     C_R   0.407096 0.919272 0.053528 -0.186694
C38   C     C_R   0.595248 0.080113 0.945425 -0.166462
C39   C     C_R   0.092904 0.080728 0.553528 -0.186694
C40   C     C_R   0.904752 0.919886 0.445425 -0.166462
C41   C     C_R   0.923560 0.526825 0.501172 0.069379
C42   C     C_R   0.076033 0.472850 0.498552 0.068344
C43   C     C_R   0.576440 0.473174 0.001172 0.069379
C44   C     C_R   0.423967 0.527150 0.998552 0.068344
C45   C     C_R   0.428923 0.971043 0.997015 0.072356
C46   C     C_R   0.583821 0.024116 0.998652 0.098777
C47   C     C_R   0.071077 0.028957 0.497015 0.072356
C48   C     C_R   0.916179 0.975884 0.498652 0.098777
H1    H     H_    0.194615 0.372865 0.549605 0.157353
H2    H     H_    0.805255 0.626922 0.450247 0.153413
H3    H     H_    0.305385 0.627135 0.049605 0.157353
H4    H     H_    0.694745 0.373078 0.950247 0.153413
H5    H     H_    0.701536 0.124434 0.947740 0.154355
H6    H     H_    0.288027 0.880131 0.055150 0.150399
H7    H     H_    0.798464 0.875566 0.447740 0.154355
H8    H     H_    0.211973 0.119869 0.555150 0.150400
H9    H     H_    0.712063 0.468996 0.655036 0.149550
H10   H     H_    0.287506 0.530710 0.344680 0.149175
H11   H     H_    0.787937 0.531003 0.155036 0.149550
H12   H     H_    0.212494 0.469290 0.844680 0.149174
H13   H     H_    0.210699 0.030776 0.845140 0.151237
H14   H     H_    0.800965 0.964382 0.150608 0.149201
H15   H     H_    0.289301 0.969224 0.345140 0.151237
H16   H     H_    0.699035 0.035618 0.650608 0.149201
C49   C     C_2   0.374495 0.422666 0.435095 0.779357
O21   O     O_2   0.416433 0.395637 0.377754 -0.534378
O22   O     O_R   0.489812 0.407627 0.493895 -0.671457
H17   H     H_    0.601353 0.372879 0.482551 0.299094
C50   C     C_2   0.624237 0.576642 0.564350 0.777691
O23   O     O_2   0.581090 0.603421 0.621674 -0.532313
O24   O     O_R   0.509622 0.591640 0.505357 -0.671414
H18   H     H_    0.397410 0.626102 0.516572 0.299659
C51   C     C_2   0.125505 0.577334 0.935095 0.779358
O25   O     O_2   0.083568 0.604363 0.877754 -0.534378
O26   O     O_R   0.010188 0.592373 0.993895 -0.671456
H19   H     H_    0.898647 0.627121 0.982551 0.299094
C52   C     C_2   0.875762 0.423357 0.064350 0.777690
O27   O     O_2   0.918909 0.396579 0.121674 -0.532313
O28   O     O_R   0.990378 0.408360 0.005358 -0.671413
H20   H     H_    0.102590 0.373898 0.016572 0.299659
C53   C     C_2   0.889220 0.071779 0.059835 0.748629
O29   O     O_2   0.939349 0.096405 0.117267 -0.535668
O30   O     O_R   0.997998 0.088531 0.999794 -0.665324
H21   H     H_    0.112055 0.122357 0.010480 0.298673
C54   C     C_2   0.142015 0.915711 0.930536 0.769362
O31   O     O_2   0.981750 0.935701 0.911464 -0.537490
O32   O     O_R   0.180669 0.839162 0.940519 -0.661341
H22   H     H_    0.063531 0.806234 0.932101 0.315260
C55   C     C_2   0.610780 0.928221 0.559835 0.748629
O33   O     O_2   0.560651 0.903595 0.617267 -0.535668
O34   O     O_R   0.502002 0.911469 0.499794 -0.665324
H23   H     H_    0.387945 0.877643 0.510480 0.298673
C56   C     C_2   0.357985 0.084289 0.430536 0.769362
O35   O     O_2   0.518250 0.064299 0.411464 -0.537490
O36   O     O_R   0.319331 0.160838 0.440519 -0.661341
H24   H     H_    0.436469 0.193766 0.432101 0.315260

loop_
_geom_bond_atom_site_label_1
_geom_bond_atom_site_label_2
_ccdc_geom_bond_type
C33   H2    S    
C17   C49   S    
C9    C34   A    
O3    V2    S    
C18   C50   S    
C38   H5    S    
O24   H18   S    
O14   V3    S    
C12   C35   A    
C51   O25   D    
O5    C4    A    
C15   C40   A    
C53   O30   S    
O11   C3    A    
C50   O23   D    
C16   C39   A    
O20   V1    S    
C56   O36   S    
O34   H23   S    
C38   C46   A    
C23   C55   S    
C31   H16   S    
C22   C45   A    
O13   V4    S    
C35   C43   A    
C34   C42   A    
C15   C32   A    
C19   C44   A    
C18   C41   A    
C8    C14   S    
O30   H21   S    
C29   H14   S    
C49   O22   S    
O4    V1    S    
O9    V1    S    
C14   C37   A    
C4    C10   S    
C20   C28   A    
O17   V4    S    
O15   C7    A    
O11   V3    S    
O18   V3    S    
O16   C8    A    
O12   V4    S    
O19   V2    S    
C22   C30   A    
C17   C25   A    
C51   O26   S    
C21   C53   S    
C13   C38   A    
O5    V1    S    
C39   H8    S    
O17   V1    S    
O7    V3    S    
O19   V3    S    
C43   C44   A    
O8    V4    S    
C52   O27   D    
O20   V4    S    
C3    C9    S    
O22   H17   S    
C32   H15   S    
O16   V1    S    
C7    C13   S    
O1    V4    S    
C11   C36   A    
C25   H10   S    
C28   H11   S    
O6    C3    A    
C10   C33   A    
O10   V2    S    
O26   H19   S    
C5    C15   S    
C37   H6    S    
O36   H24   S    
O7    C2    A    
C6    C16   S    
O12   C4    A    
O13   C5    A    
C24   C56   S    
C12   C27   A    
C18   C26   A    
C13   C30   A    
O9    C1    A    
O6    V2    S    
C39   C47   A    
O18   V2    S    
C40   H7    S    
C24   C47   A    
C11   C28   A    
O15   V2    S    
C23   C31   A    
C55   O33   D    
C26   H9    S    
C37   C45   A    
C24   C32   A    
C10   C25   A    
O32   H22   S    
C21   C46   A    
C19   C51   S    
C33   C41   A    
C20   C43   A    
C16   C31   A    
C30   H13   S    
C20   C52   S    
C17   C42   A    
C53   O29   D    
C36   H3    S    
O8    C1    A    
O14   C6    A    
C54   O32   S    
C9    C26   A    
C47   C48   A    
C56   O35   D    
O4    C5    A    
C19   C27   A    
C50   O24   S    
C14   C29   A    
O10   C2    A    
C27   H12   S    
O2    C7    A    
C40   C48   A    
C45   C46   A    
C23   C48   A    
C21   C29   A    
C36   C44   A    
O1    C8    A    
C52   O28   S    
C41   C42   A    
C22   C54   S    
O28   H20   S    
O2    V3    S    
O3    C6    A    
C1    C11   S    
C49   O21   D    
C54   O31   D    
C2    C12   S    
C35   H4    S    
C34   H1    S    
C55   O34   S    
