data_mof_unit_58151.cif
_audit_creation_date              2013-03-05T15:55:02-0500
_audit_creation_method            fapswitch 2.2
_symmetry_space_group_name_H-M    P1
_symmetry_Int_Tables_number       1
_space_group_crystal_system       triclinic
_cell_length_a                    6.930198
_cell_length_b                    14.556172
_cell_length_c                    16.198729
_cell_angle_alpha                 90.481718
_cell_angle_beta                  89.968496
_cell_angle_gamma                 90.094249
_cell_volume                      1634.02148182

loop_
_atom_site_label
_atom_site_type_symbol
_atom_site_description
_atom_site_fract_x
_atom_site_fract_y
_atom_site_fract_z
_atom_type_partial_charge
O1    O     O_R   0.505810 0.583360 0.413880 -0.613769
O2    O     O_R   0.175870 0.595480 0.585520 -0.575376
O3    O     O_R   0.005540 0.416640 0.586120 -0.558372
C1    C     C_R   0.345027 0.619278 0.613318 1.052308
O4    O     O_R   0.176100 0.594390 0.414490 -0.592145
O5    O     O_R   0.005770 0.415540 0.413870 -0.549296
C2    C     C_R   0.345281 0.616532 0.385769 0.979672
O6    O     O_R   0.505580 0.584460 0.586130 -0.603925
O7    O     O_3   0.339190 0.441320 0.500000 -0.235525
V1    V     V_3+5 0.064350 0.510890 0.500000 1.298067
O8    O     O_R   0.676050 0.404520 0.414480 -0.569610
C3    C     C_R   0.845166 0.380789 0.386764 1.112229
O9    O     O_R   0.675830 0.405610 0.585510 -0.593140
C4    C     C_R   0.844481 0.387184 0.616265 0.856538
V2    V     V_3+5 0.564340 0.489110 0.500000 1.285983
O10   O     O_3   0.839370 0.558680 0.500000 -0.283492
C5    C     C_2   0.726521 0.209548 0.785699 -0.230214
C6    C     C_2   0.889406 0.170836 0.814770 0.560356
H1    H     H_    0.588843 0.193543 0.814265 0.158949
C7    C     C_2   0.722451 0.268874 0.711224 -0.104656
C8    C     C_2   0.855999 0.334002 0.693844 0.130196
H2    H     H_    0.602344 0.258263 0.669124 0.171986
C9    C     C_R   0.024489 0.249549 0.197792 0.685158
C10   C     C_R   0.011975 0.312936 0.263003 0.669189
C11   C     C_R   0.856552 0.310364 0.319445 -0.608327
C12   C     C_R   0.712866 0.241567 0.308896 0.383192
C13   C     C_R   0.723921 0.180633 0.241236 -0.257178
H3    H     H_    0.614019 0.128139 0.234012 0.203798
C14   C     C_R   0.879767 0.183095 0.185848 -0.488112
C15   C     C_R   0.211576 0.757310 0.692853 0.197175
C16   C     C_R   0.222145 0.817672 0.761365 0.702992
C17   C     C_R   0.378415 0.814221 0.817085 -0.399857
C18   C     C_R   0.524172 0.749145 0.803110 -0.134042
H4    H     H_    0.646490 0.745055 0.844503 0.167623
C19   C     C_R   0.512211 0.687222 0.736649 -0.046501
H5    H     H_    0.625222 0.636480 0.729262 0.154644
C20   C     C_R   0.356056 0.689451 0.681090 -0.373223
C21   C     C_R   0.188524 0.723541 0.284163 -0.081324
H6    H     H_    0.047710 0.705347 0.308022 0.123511
C22   C     C_R   0.199701 0.786629 0.219427 -0.120654
H7    H     H_    0.066949 0.815195 0.195625 0.121899
C23   C     C_R   0.379317 0.812525 0.186038 -0.120616
C24   C     C_R   0.547443 0.773562 0.219405 -0.121431
H8    H     H_    0.688261 0.791783 0.195569 0.120262
C25   C     C_R   0.536265 0.710464 0.284136 -0.101777
H9    H     H_    0.669012 0.681906 0.307953 0.125151
C26   C     C_R   0.356636 0.684503 0.317465 -0.124880
O11   O     O_R   0.230120 0.912300 0.917180 -0.553663
O12   O     O_R   0.559740 0.902430 0.088770 -0.612917
O13   O     O_R   0.729930 0.081310 0.089370 -0.599883
C27   C     C_R   0.390604 0.880352 0.117601 0.908193
O14   O     O_R   0.559840 0.901330 0.917750 -0.594037
O15   O     O_R   0.730030 0.080210 0.917120 -0.624263
C28   C     C_R   0.390702 0.879951 0.888088 1.036079
O16   O     O_R   0.230020 0.913400 0.089430 -0.613976
O17   O     O_3   0.396460 0.055470 0.003290 -0.248432
V3    V     V_3+5 0.671360 0.985960 0.003250 1.217285
O18   O     O_R   0.059740 0.091300 0.917690 -0.532467
C29   C     C_R   0.891638 0.110799 0.887786 0.870535
O19   O     O_R   0.059640 0.092400 0.088720 -0.555152
C30   C     C_R   0.890719 0.114982 0.117183 1.076253
V4    V     V_3+5 0.171350 0.007820 0.003190 1.286904
O20   O     O_3   0.896380 0.938200 0.003220 -0.287118
F1    F     F_    0.085138 0.883685 0.770488 -0.649008
F2    F     F_    0.059155 0.181818 0.773645 -0.632521
N1    N     N_R   0.999882 0.360609 0.753895 0.276078
O21   O     O_R   0.173869 0.382006 0.730606 -0.353572
O22   O     O_R   0.950967 0.374326 0.830605 -0.371502
F3    F     F_    0.176175 0.255141 0.144956 -0.636530
F4    F     F_    0.151334 0.378310 0.269663 -0.645453
N2    N     N_R   0.561118 0.228948 0.368259 0.266065
O23   O     O_R   0.389976 0.203887 0.343805 -0.365370
O24   O     O_R   0.601817 0.225696 0.446606 -0.380222
N3    N     N_R   0.060126 0.769508 0.633393 0.263151
O25   O     O_R   0.101922 0.776714 0.555372 -0.381013
O26   O     O_R   0.884679 0.786329 0.657718 -0.336880

loop_
_geom_bond_atom_site_label_1
_geom_bond_atom_site_label_2
_geom_bond_distance
_ccdc_geom_bond_type
O18   V4    2.006398 S    
N1    O22   1.301700 A    
C8    N1    1.443601 S    
C13   C14   1.404319 A    
C9    F3    1.357981 S    
C19   H5    1.083301 S    
C1    O6    1.298617 A    
O15   C29   1.296043 A    
C10   F4    1.358411 S    
C25   H9    1.082740 S    
C6    F2    1.361456 S    
O11   C28   1.296034 A    
C12   C13   1.406283 A    
N3    O26   1.300933 A    
C9    C14   1.404598 A    
C4    C8    1.483770 S    
C19   C20   1.408480 A    
O5    C3    1.297089 A    
C15   C16   1.411564 A    
C15   N3    1.437171 S    
V2    O10   2.156859 S    
O16   V4    2.010116 S    
C5    C7    1.489831 S    
O12   V3    2.004965 S    
O17   V3    2.158591 S    
O19   V4    2.001979 S    
C5    H1    1.085982 S    
O8    V2    2.001957 S    
O12   C27   1.302303 A    
C9    C10   1.399451 A    
O1    V2    2.006853 S    
O7    V1    2.158637 S    
C23   C27   1.492621 S    
C22   C23   1.408984 A    
N1    O21   1.301323 A    
O9    C4    1.300044 A    
C12   N2    1.437217 S    
C17   C28   1.492266 S    
C11   C12   1.420435 A    
O14   C28   1.303296 A    
V3    O20   1.708420 S    
C25   C26   1.408943 A    
C14   C30   1.485786 S    
N3    O25   1.301499 A    
C10   C11   1.413103 A    
N2    O24   1.301515 A    
O15   V3    2.005936 S    
O18   C29   1.294764 A    
C15   C20   1.419312 A    
O19   C30   1.299688 A    
C2    C26   1.492435 S    
O2    C1    1.301403 A    
C24   H8    1.082708 S    
V4    O20   2.156835 S    
O11   V4    2.002230 S    
C16   C17   1.411404 A    
C5    C6    1.349314 D    
C7    C8    1.354948 D    
C24   C25   1.401759 A    
C21   C26   1.406865 A    
O3    C4    1.292076 A    
C22   H7    1.082728 S    
C7    H2    1.086365 S    
O6    V2    2.001855 S    
O9    V2    2.006364 S    
O17   V4    1.706249 S    
C23   C24   1.406911 A    
O2    V1    2.000471 S    
O4    C2    1.302174 A    
O1    C2    1.297758 A    
O13   V3    2.000859 S    
C16   F1    1.359098 S    
O5    V1    2.000985 S    
O8    C3    1.301016 A    
C3    C11   1.492512 S    
C17   C18   1.402931 A    
O7    V2    1.707332 S    
N2    O23   1.301282 A    
O3    V1    2.006017 S    
V1    O10   1.708346 S    
C21   C22   1.401718 A    
C21   H6    1.082722 S    
C18   C19   1.400670 A    
C18   H4    1.083128 S    
C27   O16   1.297757 A    
O14   V3    2.000604 S    
C6    C29   1.476599 S    
O4    V1    2.004933 S    
C1    C20   1.495123 S    
C13   H3    1.083665 S    
O13   C30   1.296121 A    
