data_mof_unit_67883.cif
_audit_creation_date              2013-03-05T15:42:04-0500
_audit_creation_method            fapswitch 2.2
_symmetry_space_group_name_H-M    P1
_symmetry_Int_Tables_number       1
_space_group_crystal_system       triclinic
_cell_length_a                    8.165095
_cell_length_b                    8.710203
_cell_length_c                    15.712259
_cell_angle_alpha                 102.145373
_cell_angle_beta                  86.5915
_cell_angle_gamma                 91.106516
_cell_volume                      1090.4791667

loop_
_atom_site_label
_atom_site_type_symbol
_atom_site_description
_atom_site_fract_x
_atom_site_fract_y
_atom_site_fract_z
_atom_type_partial_charge
O1    O     O_R   0.389250 0.738570 0.505570 -0.611919
O2    O     O_R   0.610750 0.261430 0.494430 -0.611919
O3    O     O_R   0.678390 0.711630 0.491020 -0.615756
O4    O     O_R   0.321610 0.288370 0.508980 -0.615756
C1    C     C_R   0.541054 0.793187 0.500691 0.892166
C2    C     C_R   0.458946 0.206813 0.499309 0.892166
O5    O     O_R   0.355460 0.513480 0.630490 -0.636998
O6    O     O_R   0.644540 0.486520 0.369510 -0.636998
O7    O     O_R   0.644600 0.486540 0.615950 -0.631774
O8    O     O_R   0.355400 0.513460 0.384050 -0.631773
C3    C     C_R   0.502505 0.502977 0.661350 0.851267
C4    C     C_R   0.497495 0.497023 0.338650 0.851267
Zn1   Zn    Zn3+2 0.306940 0.517990 0.509710 0.943798
Zn2   Zn    Zn3+2 0.693060 0.482010 0.490290 0.943798
C5    C     C_2   0.557193 0.958981 0.514343 0.015239
C6    C     C_2   0.442806 0.041019 0.485657 0.015239
C7    C     C_3   0.400014 0.617889 0.040273 0.243650
C8    C     C_3   0.599986 0.382111 0.959727 0.243651
C9    C     C_3   0.565697 0.638809 0.991487 0.234922
C10   C     C_3   0.434303 0.361192 0.008513 0.234922
C11   C     C_1   0.512505 0.506803 0.750672 -0.138232
C12   C     C_1   0.487495 0.493197 0.249328 -0.138233
C13   C     C_3   0.353052 0.481334 0.965014 -0.139186
C14   C     C_3   0.646948 0.518666 0.034986 -0.139186
C15   C     C_3   0.519206 0.503032 0.917022 -0.075730
C16   C     C_3   0.480794 0.496968 0.082978 -0.075730
N1    N     N_2   0.950320 0.457950 0.477300 -0.106819
N2    N     N_2   0.049680 0.542050 0.522700 -0.106819
C17   C     C_1   0.523306 0.507336 0.825789 0.056294
C18   C     C_1   0.476694 0.492664 0.174210 0.056294
Br1   Br    Br    0.659621 0.838084 0.976427 -0.466031
Br2   Br    Br    0.340379 0.161917 0.023573 -0.466030
Br3   Br    Br    0.276460 0.795671 0.105193 -0.505147
Br4   Br    Br    0.723540 0.204329 0.894806 -0.505146
C19   C     C_R   0.795878 0.551161 0.089058 0.158208
C20   C     C_R   0.915865 0.436420 0.085336 -0.111441
C21   C     C_R   0.034780 0.457865 0.147320 -0.143628
C22   C     C_R   0.032491 0.590892 0.214784 -0.029872
C23   C     C_R   0.916051 0.707334 0.217968 -0.083651
C24   C     C_R   0.799556 0.688650 0.154907 -0.130672
H1    H     H_    0.915541 0.328596 0.036661 0.202543
H2    H     H_    0.127302 0.370017 0.144180 0.182811
H3    H     H_    0.122645 0.604957 0.263682 0.181520
H4    H     H_    0.914879 0.811122 0.269870 0.176685
H5    H     H_    0.706246 0.777471 0.160419 0.178287
C25   C     C_R   0.204122 0.448840 0.910942 0.158208
C26   C     C_R   0.200443 0.311352 0.845093 -0.130672
C27   C     C_R   0.083948 0.292669 0.782032 -0.083651
C28   C     C_R   0.967509 0.409110 0.785217 -0.029874
C29   C     C_R   0.965221 0.542137 0.852680 -0.143628
C30   C     C_R   0.084135 0.563581 0.914664 -0.111441
H6    H     H_    0.293753 0.222530 0.839580 0.178287
H7    H     H_    0.085121 0.188881 0.730130 0.176685
H8    H     H_    0.877355 0.395046 0.736319 0.181520
H9    H     H_    0.872699 0.629985 0.855821 0.182811
H10   H     H_    0.084459 0.671404 0.963339 0.202543
Br5   Br    Br    0.730096 0.051171 0.589018 -0.499510
Br6   Br    Br    0.269904 0.948829 0.410982 -0.499511
C31   C     C_R   0.988017 0.336115 0.395906 0.265686
C32   C     C_R   0.857969 0.253437 0.348704 -0.073644
C33   C     C_R   0.876807 0.157541 0.265422 -0.236019
C34   C     C_R   0.030914 0.128677 0.225561 -0.047676
C35   C     C_R   0.164492 0.188478 0.271810 -0.155028
C36   C     C_R   0.141719 0.283292 0.355558 -0.134400
H11   H     H_    0.736106 0.255258 0.371788 0.196557
H12   H     H_    0.770641 0.103954 0.232404 0.169154
H13   H     H_    0.046405 0.055630 0.160922 0.217003
H14   H     H_    0.287082 0.156481 0.244352 0.193947
H15   H     H_    0.248646 0.294345 0.385738 0.213395
C37   C     C_R   0.011983 0.663885 0.604094 0.265686
C38   C     C_R   0.142031 0.746564 0.651296 -0.073644
C39   C     C_R   0.123193 0.842459 0.734578 -0.236018
C40   C     C_R   0.969086 0.871323 0.774439 -0.047675
C41   C     C_R   0.835508 0.811522 0.728190 -0.155029
C42   C     C_R   0.858281 0.716708 0.644442 -0.134400
H16   H     H_    0.263894 0.744742 0.628212 0.196557
H17   H     H_    0.229359 0.896046 0.767596 0.169154
H18   H     H_    0.953595 0.944370 0.839078 0.217003
H19   H     H_    0.712918 0.843519 0.755648 0.193947
H20   H     H_    0.751354 0.705655 0.614262 0.213395

loop_
_geom_bond_atom_site_label_1
_geom_bond_atom_site_label_2
_geom_bond_distance
_ccdc_geom_bond_type
C40   C41   1.379114 A    
C19   C20   1.403034 A    
C9    Br1   1.938223 S    
O5    C3    1.333093 A    
C31   C36   1.411929 A    
C34   C35   1.379115 A    
C34   H13   1.080849 S    
O1    C1    1.322807 A    
C7    C16   1.539952 S    
C20   C21   1.398216 A    
C21   C22   1.395776 A    
C14   C16   1.540542 S    
C38   H16   1.037857 S    
C28   H8    1.082278 S    
C4    C12   1.404041 S    
O4    Zn1   2.003511 S    
C30   H10   1.079284 S    
C21   H2    1.077329 S    
C35   H14   1.083768 S    
C33   H12   1.083698 S    
C40   H18   1.080850 S    
Zn1   N2    2.108535 S    
C37   C38   1.426732 A    
Zn2   N1    2.108534 S    
C42   H20   1.011506 S    
C31   C32   1.426730 A    
C13   C25   1.512941 S    
C5    Br5   1.941980 S    
C20   H1    1.079286 S    
O2    C2    1.322807 A    
C8    C15   1.539952 S    
C7    Br3   1.931179 S    
C9    C15   1.537820 S    
C15   C17   1.440217 S    
C27   H7    1.082388 S    
C14   C19   1.512942 S    
C41   C42   1.402746 A    
O4    C2    1.322972 A    
C23   C24   1.396866 A    
C6    Br6   1.941981 S    
C11   C17   1.187797 T    
C25   C30   1.403031 A    
C3    C11   1.404041 S    
C32   C33   1.398120 A    
O7    Zn2   1.982753 S    
C39   H17   1.083697 S    
C8    Br4   1.931180 S    
C26   C27   1.396865 A    
C10   C13   1.544034 S    
O6    C4    1.333092 A    
C29   C30   1.398216 A    
C7    C13   1.550647 S    
C36   H15   1.011506 S    
O7    C3    1.319268 A    
C23   H4    1.082389 S    
O3    Zn2   2.003513 S    
O8    C4    1.319269 A    
C27   C28   1.394742 A    
C32   H11   1.037857 S    
C16   C18   1.440218 S    
C41   H19   1.083768 S    
C8    C14   1.550649 S    
O1    Zn1   2.035881 S    
N1    N2    1.236775 D    
C10   Br2   1.938223 S    
C25   C26   1.409411 A    
O6    Zn2   1.970084 S    
C12   C18   1.187798 T    
N2    C37   1.500395 S    
C39   C40   1.375148 A    
O3    C1    1.322973 A    
O8    Zn1   1.982754 S    
C26   H6    1.083157 S    
C29   H9    1.077326 S    
C9    C14   1.544034 S    
C22   H3    1.082278 S    
N1    C31   1.500394 S    
C22   C23   1.394744 A    
C10   C16   1.537819 S    
C7    C9    1.541700 S    
C19   C24   1.409412 A    
C8    C10   1.541700 S    
C13   C15   1.540544 S    
C33   C34   1.375148 A    
O2    Zn2   2.035879 S    
C1    C5    1.419316 S    
C2    C6    1.419316 S    
C35   C36   1.402746 A    
O5    Zn1   1.970083 S    
C38   C39   1.398119 A    
C24   H5    1.083158 S    
C28   C29   1.395772 A    
C37   C42   1.411929 A    
C5    C6    1.340686 D    
