data_mof_unit_41626.cif
_audit_creation_date              2012-10-26T18:44:09-0400
_audit_creation_method            fapswitch 2.2
_symmetry_space_group_name_H-M    P1
_symmetry_Int_Tables_number       1
_space_group_crystal_system       triclinic
_cell_length_a                    19.386993
_cell_length_b                    9.096537
_cell_length_c                    7.773526
_cell_angle_alpha                 90.002611
_cell_angle_beta                  90.066483
_cell_angle_gamma                 90.007349
_cell_volume                      1370.89534871

loop_
_atom_site_label
_atom_site_type_symbol
_atom_type_description
_atom_site_fract_x
_atom_site_fract_y
_atom_site_fract_z
_atom_type_partial_charge
C1    C     C_R   0.500022 0.219970 0.499999 0.546533
C2    C     C_R   0.254420 0.429065 0.365471 0.092587
C3    C     C_R   0.181788 0.570881 0.631855 0.079769
C4    C     C_R   0.817309 0.575615 0.363473 0.062762
C5    C     C_R   0.819762 0.431529 0.628283 0.119939
C6    C     C_R   0.182035 0.430230 0.363875 0.078518
C7    C     C_R   0.145611 0.500985 0.497217 0.018083
C8    C     C_R   0.854843 0.504485 0.495016 0.036228
C9    C     C_R   0.290832 0.499805 0.499397 0.032688
C10   C     C_R   0.709358 0.501252 0.500098 0.012672
C11   C     C_R   0.930649 0.503751 0.493235 0.364746
C12   C     C_R   0.500013 0.780031 0.500003 0.556064
C13   C     C_R   0.070036 0.501936 0.495809 0.325368
C14   C     C_R   0.367020 0.499874 0.499881 0.587010
C15   C     C_R   0.633046 0.499692 0.500212 0.559098
C16   C     C_1   0.500028 0.065356 0.500001 -0.041659
C17   C     C_1   0.500024 0.934646 0.500006 -0.039284
C18   C     C_R   0.254186 0.570822 0.632462 0.092141
C19   C     C_R   0.744915 0.574374 0.366494 0.105453
C20   C     C_R   0.747385 0.429171 0.631314 0.051880
Cu1   Cu    Cu3+1 0.500000 0.500000 0.669080 1.035608
Cu2   Cu    Cu3+1 0.500000 0.500000 0.330920 1.057855
H1    H     H_    0.276438 0.601075 0.884691 0.256887
H2    H     H_    0.116838 0.727763 0.722467 0.263868
H3    H     H_    0.879150 0.736825 0.269329 0.266121
H4    H     H_    0.885719 0.572407 0.165610 0.245129
H5    H     H_    0.843696 0.409283 0.880732 0.252066
H6    H     H_    0.845128 0.250555 0.766458 0.264873
H7    H     H_    0.113815 0.438067 0.165817 0.247373
H8    H     H_    0.116771 0.274511 0.271483 0.262526
H9    H     H_    0.275700 0.756913 0.765234 0.251128
H10   H     H_    0.722012 0.761157 0.236298 0.250189
H11   H     H_    0.720620 0.605894 0.115557 0.254572
H12   H     H_    0.687908 0.423223 0.846526 0.260341
H13   H     H_    0.679297 0.274151 0.713824 0.246012
H14   H     H_    0.277529 0.398098 0.113956 0.257014
H15   H     H_    0.275729 0.242435 0.233661 0.251238
H16   H     H_    0.112692 0.564112 0.827658 0.249652
N1    N     N_1   0.500000 0.500000 0.076820 -0.072401
N2    N     N_3   0.291205 0.352549 0.232662 -0.584611
N3    N     N_3   0.145978 0.640630 0.771310 -0.628466
N4    N     N_3   0.851509 0.646750 0.222463 -0.635054
N5    N     N_3   0.858246 0.362022 0.763630 -0.583569
N6    N     N_3   0.146509 0.360982 0.223405 -0.628799
N7    N     N_1   0.500000 0.500000 0.923180 -0.075806
N8    N     N_R   0.035094 0.630376 0.481035 -0.228105
N9    N     N_R   0.965701 0.375332 0.508519 -0.185206
N10   N     N_R   0.966503 0.631263 0.480074 -0.233974
N11   N     N_R   0.034292 0.374422 0.509619 -0.224661
N12   N     N_3   0.290752 0.646541 0.766488 -0.584782
N13   N     N_3   0.707201 0.650630 0.234838 -0.583280
N14   N     N_3   0.714087 0.349291 0.767162 -0.633712
O1    O     O_R   0.500000 0.288390 0.642760 -0.503372
O2    O     O_R   0.500000 0.711610 0.357240 -0.494201
O3    O     O_R   0.500000 0.711610 0.642760 -0.492043
O4    O     O_R   0.500000 0.288390 0.357240 -0.494816
O5    O     O_R   0.400140 0.500000 0.642830 -0.475018
O6    O     O_R   0.599860 0.500000 0.357170 -0.470038
O7    O     O_R   0.599860 0.500000 0.642830 -0.523838
O8    O     O_R   0.400140 0.500000 0.357170 -0.477298

loop_
_geom_bond_atom_site_label_1
_geom_bond_atom_site_label_2
_ccdc_geom_bond_type
C12   C17   S    
H3    N4    S    
C5    C8    A    
C9    C14   S    
H10   N13   S    
Cu1   O5    S    
C6    C7    A    
C2    N2    S    
C5    C20   A    
H11   N13   S    
C14   O8    A    
H6    N5    S    
C11   N9    A    
C15   O7    A    
C4    C8    A    
C10   C19   A    
N1    N7    T    
C5    N5    S    
Cu1   O3    S    
C20   N14   S    
C1    C16   S    
C6    N6    S    
Cu1   Cu2   S    
Cu1   O1    S    
H2    N3    S    
C4    C19   A    
H8    N6    S    
C11   N10   A    
C2    C6    A    
C4    N4    S    
H16   N3    S    
C8    C11   S    
C13   N11   A    
Cu2   N1    S    
C1    O4    A    
Cu1   O7    S    
H15   N2    S    
C3    C7    A    
C10   C15   S    
H7    N6    S    
Cu2   O8    S    
C13   N8    A    
C15   O6    A    
N8    N10   A    
C12   O3    A    
C16   C17   T    
H9    N12   S    
C19   N13   S    
C9    C18   A    
C7    C13   S    
C18   N12   S    
C3    C18   A    
N9    N11   A    
Cu2   O6    S    
H13   N14   S    
H4    N4    S    
C14   O5    A    
C1    O1    A    
C3    N3    S    
H14   N2    S    
Cu2   O4    S    
H5    N5    S    
C2    C9    A    
H12   N14   S    
C12   O2    A    
H1    N12   S    
C10   C20   A    
Cu2   O2    S    
Cu1   N7    S    
