data_mof_unit_36903.cif
_audit_creation_date              2012-12-11T17:33:21-0500
_audit_creation_method            fapswitch 2.2
_symmetry_space_group_name_H-M    P1
_symmetry_Int_Tables_number       1
_space_group_crystal_system       triclinic
_cell_length_a                    6.933823
_cell_length_b                    21.776218
_cell_length_c                    22.212052
_cell_angle_alpha                 107.60367
_cell_angle_beta                  90.013209
_cell_angle_gamma                 89.723506
_cell_volume                      3196.75554224

loop_
_atom_site_label
_atom_site_type_symbol
_atom_type_description
_atom_site_fract_x
_atom_site_fract_y
_atom_site_fract_z
_atom_type_partial_charge
O1    O     O_R   0.505730 0.449200 0.552060 -0.542196
O2    O     O_R   0.171560 0.427840 0.423150 -0.535979
O3    O     O_R   0.005630 0.550800 0.447940 -0.540046
C1    C     C_R   0.341146 0.408830 0.399799 0.746039
O4    O     O_R   0.175730 0.441570 0.550050 -0.537638
O5    O     O_R   0.009820 0.564620 0.575740 -0.537752
C2    C     C_R   0.345296 0.427978 0.568139 0.708271
O6    O     O_R   0.501530 0.435380 0.424260 -0.537951
O7    O     O_3   0.340640 0.540360 0.508280 -0.370559
V1    V     V_3+5 0.064080 0.492510 0.498460 1.418598
O8    O     O_R   0.680360 0.572160 0.576850 -0.542228
C3    C     C_R   0.847426 0.590327 0.601414 0.704316
O9    O     O_R   0.676190 0.558430 0.449950 -0.540806
C4    C     C_R   0.844611 0.571668 0.431315 0.696395
V2    V     V_3+5 0.564610 0.507490 0.501540 1.406211
O10   O     O_3   0.837920 0.459640 0.491720 -0.363864
C5    C     C_R   0.075745 0.803913 0.154541 -0.160298
H1    H     H_    0.192750 0.771723 0.157401 0.153507
C6    C     C_R   0.092813 0.842169 0.113953 0.370232
C7    C     C_R   0.940766 0.884626 0.109536 -0.138494
C8    C     C_R   0.773696 0.886226 0.146288 -0.165230
H2    H     H_    0.654558 0.918001 0.144567 0.161211
C9    C     C_R   0.758170 0.847603 0.186375 -0.100522
H3    H     H_    0.628034 0.850075 0.214021 0.131305
C10   C     C_R   0.909284 0.806406 0.190884 0.051355
C11   C     C_1   0.894138 0.766496 0.232542 -0.014074
C12   C     C_1   0.883524 0.732965 0.267224 -0.044666
C13   C     C_R   0.041807 0.666976 0.326406 -0.119806
H4    H     H_    0.180882 0.677038 0.309358 0.109020
C14   C     C_R   0.032616 0.627925 0.366274 -0.160298
H5    H     H_    0.165692 0.608667 0.378861 0.121124
C15   C     C_R   0.854069 0.613757 0.389293 -0.057623
C16   C     C_R   0.685100 0.639726 0.371056 -0.158363
H6    H     H_    0.545123 0.629864 0.387557 0.119718
C17   C     C_R   0.694744 0.678811 0.331155 -0.118481
H7    H     H_    0.562833 0.698188 0.317848 0.109067
C18   C     C_R   0.873101 0.692668 0.308622 0.127092
C19   C     C_R   0.844678 0.645465 0.660877 -0.071089
C20   C     C_R   0.950938 0.854574 0.839120 -0.066057
C21   C     C_R   0.137084 0.787142 0.749529 -0.188859
C22   C     C_R   0.120877 0.841624 0.802356 -0.112643
C23   C     C_R   0.795060 0.811924 0.820865 -0.223642
C24   C     C_R   0.811413 0.756402 0.767899 0.160528
C25   C     C_R   0.984176 0.743687 0.732061 0.156085
C26   C     C_R   0.000561 0.688127 0.679123 -0.227189
C27   C     C_R   0.674639 0.658499 0.697592 -0.158315
C28   C     C_R   0.658454 0.712983 0.750410 -0.182938
H8    H     H_    0.131799 0.679207 0.651236 0.124366
H9    H     H_    0.551907 0.626574 0.685102 0.129710
H10   H     H_    0.270141 0.778780 0.722629 0.127490
H11   H     H_    0.525351 0.721375 0.777286 0.127077
H12   H     H_    0.243495 0.873606 0.814828 0.143315
H13   H     H_    0.663862 0.820815 0.848775 0.129953
C29   C     C_R   0.352081 0.354557 0.339663 -0.125623
C30   C     C_R   0.443496 0.141791 0.161969 -0.105683
C31   C     C_R   0.446877 0.172937 0.277109 0.193302
C32   C     C_R   0.469449 0.126455 0.217716 -0.165899
C33   C     C_R   0.390370 0.204451 0.164973 -0.140777
C34   C     C_R   0.373048 0.253750 0.223563 -0.031315
C35   C     C_R   0.412649 0.239492 0.281153 0.064924
C36   C     C_R   0.416417 0.292068 0.339139 0.060554
C37   C     C_R   0.298696 0.366370 0.282747 0.034795
C38   C     C_R   0.314851 0.316606 0.224823 0.399019
H14   H     H_    0.499519 0.076643 0.214571 0.106223
H15   H     H_    0.363839 0.213830 0.120588 0.175106
C39   C     C_R   0.582126 0.192669 0.845314 -0.110882
H16   H     H_    0.701839 0.224413 0.845145 0.178185
C40   C     C_R   0.590399 0.152905 0.884452 -0.148928
H17   H     H_    0.716556 0.155395 0.913841 0.178873
C41   C     C_R   0.437682 0.111143 0.886433 -0.196919
C42   C     C_R   0.275576 0.109327 0.846469 0.324023
C43   C     C_R   0.267667 0.150023 0.807544 0.376563
C44   C     C_R   0.421204 0.191830 0.806991 -0.051459
C45   C     C_1   0.414772 0.233388 0.766595 0.125639
C46   C     C_1   0.404948 0.267187 0.732136 0.097299
C47   C     C_R   0.545416 0.311231 0.650568 0.410652
C48   C     C_R   0.529389 0.350552 0.611015 -0.212411
H18   H     H_    0.650418 0.353456 0.581169 0.157622
C49   C     C_R   0.358458 0.385187 0.609186 -0.122078
C50   C     C_R   0.203459 0.379618 0.648007 -0.135227
H19   H     H_    0.070279 0.405803 0.647962 0.139031
C51   C     C_R   0.220667 0.341461 0.688604 -0.116643
H20   H     H_    0.100628 0.338916 0.718935 0.178180
C52   C     C_R   0.391121 0.307006 0.690237 0.013258
O11   O     O_R   0.294110 0.064720 0.075690 -0.541138
O12   O     O_R   0.619980 0.058360 0.949870 -0.534777
O13   O     O_R   0.785810 0.935300 0.924300 -0.537993
C53   C     C_R   0.450404 0.070313 0.929970 0.764709
O14   O     O_R   0.624080 0.072230 0.076800 -0.542511
O15   O     O_R   0.789930 0.949270 0.052130 -0.541920
C54   C     C_R   0.454694 0.090303 0.100785 0.685532
O16   O     O_R   0.289980 0.050750 0.947860 -0.512351
O17   O     O_3   0.454970 0.959660 0.991750 -0.357781
V3    V     V_3+5 0.731560 0.007480 0.001530 1.514206
O18   O     O_R   0.119360 0.941610 0.050140 -0.511170
C55   C     C_R   0.951007 0.927440 0.067951 0.731850
O19   O     O_R   0.115260 0.927740 0.923220 -0.536678
C56   C     C_R   0.948211 0.909620 0.898627 0.763944
V4    V     V_3+5 0.231020 0.992470 0.998490 1.553359
O20   O     O_3   0.957740 0.040330 0.008250 -0.362574
C57   C     C_3   0.504143 0.283996 0.399049 -0.733292
H21   H     H_    0.403865 0.258665 0.422078 0.212029
H22   H     H_    0.645456 0.259086 0.388035 0.215297
H23   H     H_    0.538113 0.329647 0.435604 0.199515
C58   C     C_3   0.231225 0.433593 0.285022 -0.653186
H24   H     H_    0.199125 0.439692 0.238434 0.263577
H25   H     H_    0.097040 0.445901 0.313472 0.192724
H26   H     H_    0.344250 0.469276 0.307127 0.175198
C59   C     C_3   0.434762 0.146424 0.332560 -0.752714
H27   H     H_    0.421100 0.093101 0.316998 0.201088
H28   H     H_    0.566829 0.156999 0.361780 0.218980
H29   H     H_    0.302733 0.164698 0.360534 0.217275
Cl1   Cl    Cl    0.257739 0.332835 0.153109 -0.644672
Cl2   Cl    Cl    0.304715 0.832384 0.068118 -0.663883
Cl3   Cl    Cl    0.084031 0.054446 0.841226 -0.594210
Cl4   Cl    Cl    0.064504 0.148373 0.758838 -0.529650
Cl5   Cl    Cl    0.760174 0.267321 0.648897 -0.622566

loop_
_geom_bond_atom_site_label_1
_geom_bond_atom_site_label_2
_ccdc_geom_bond_type
C39   C40   A    
O17   V3    S    
C44   C45   S    
C36   C57   S    
O18   C55   A    
C1    O6    A    
C41   C53   S    
C47   C52   A    
O19   C56   A    
O11   C54   A    
C20   C22   A    
C37   C58   S    
C48   H18   S    
C58   H25   S    
C27   H9    S    
C11   C12   T    
C57   H21   S    
C13   H4    S    
C17   C18   A    
C59   H28   S    
C23   H13   S    
O5    C3    A    
C14   H5    S    
O18   V4    S    
C46   C52   S    
V2    O10   S    
O13   V3    S    
C31   C32   A    
O14   V3    S    
C19   C26   A    
C30   C54   S    
O12   V3    S    
C5    C6    A    
O8    V2    S    
C53   O16   A    
C40   H17   S    
C9    H3    S    
O15   V3    S    
C41   C42   A    
O1    V2    S    
O14   C54   A    
O7    V1    S    
O17   V4    S    
C22   H12   S    
O13   C56   A    
C39   H16   S    
C7    C55   S    
C34   C35   A    
C57   H22   S    
O9    C4    A    
C3    C19   S    
O4    V1    S    
O19   V4    S    
C16   H6    S    
C20   C23   A    
C48   C49   A    
C8    C9    A    
C58   H26   S    
C45   C46   T    
C47   C48   A    
C50   C51   A    
C59   H29   S    
O4    C2    A    
C50   H19   S    
C20   C56   S    
C28   H11   S    
C29   C37   A    
C6    Cl2   S    
C10   C11   S    
C39   C44   A    
C31   C35   A    
C35   C36   A    
C17   H7    S    
O2    C1    A    
C24   C25   A    
C37   C38   A    
O11   V4    S    
C33   H15   S    
V4    O20   S    
V3    O20   S    
C5    H1    S    
C42   Cl3   S    
O3    C4    A    
C21   C22   A    
C57   H23   S    
C51   C52   A    
O9    V2    S    
C23   C24   A    
O2    V1    S    
C31   C59   S    
C25   C26   A    
C32   H14   S    
C2    C49   S    
C26   H8    S    
C27   C28   A    
C1    C29   S    
O1    C2    A    
C4    C15   S    
C43   C44   A    
O5    V1    S    
O8    C3    A    
O15   C55   A    
C29   C36   A    
O6    V2    S    
C58   H24   S    
C43   Cl4   S    
C34   C38   A    
C47   Cl5   S    
C5    C10   A    
C15   C16   A    
C6    C7    A    
C30   C32   A    
C33   C34   A    
C42   C43   A    
O3    V1    S    
V1    O10   S    
C59   H27   S    
C14   C15   A    
C13   C18   A    
C12   C18   S    
C21   H10   S    
C13   C14   A    
C16   C17   A    
O12   C53   A    
C9    C10   A    
O7    V2    S    
C19   C27   A    
C49   C50   A    
C38   Cl1   S    
C21   C25   A    
C7    C8    A    
C40   C41   A    
C51   H20   S    
C30   C33   A    
C8    H2    S    
C24   C28   A    
O16   V4    S    
