data_mof_unit_63910.cif
_audit_creation_date              2012-12-10T17:36:37-0500
_audit_creation_method            fapswitch 2.2
_symmetry_space_group_name_H-M    P1
_symmetry_Int_Tables_number       1
_space_group_crystal_system       triclinic
_cell_length_a                    12.103009
_cell_length_b                    12.807699
_cell_length_c                    15.713154
_cell_angle_alpha                 91.614218
_cell_angle_beta                  86.578199
_cell_angle_gamma                 95.009723
_cell_volume                      2421.44651822

loop_
_atom_site_label
_atom_site_type_symbol
_atom_type_description
_atom_site_fract_x
_atom_site_fract_y
_atom_site_fract_z
_atom_type_partial_charge
C1    C     C_R   0.523281 0.700286 0.499687 1.012068
C2    C     C_R   0.539497 0.024533 0.470013 -0.392549
C3    C     C_R   0.952202 0.436822 0.398394 0.061160
C4    C     C_R   0.047800 0.563194 0.601608 0.061169
C5    C     C_R   0.836959 0.431031 0.415103 0.728401
C6    C     C_R   0.163043 0.568975 0.584897 0.728388
C7    C     C_R   0.859576 0.534612 0.541441 0.223491
C8    C     C_R   0.140421 0.465396 0.458560 0.223492
C9    C     C_R   0.976183 0.524458 0.536945 -0.187462
C10   C     C_R   0.023816 0.475558 0.463060 -0.187476
C11   C     C_R   0.500386 0.500155 0.661761 0.893880
C12   C     C_R   0.476719 0.299714 0.500312 1.012064
C13   C     C_R   0.499613 0.499845 0.338239 0.893878
C14   C     C_3   0.479230 0.595986 0.030805 0.026318
C15   C     C_3   0.520765 0.404012 0.969195 0.026318
C16   C     C_3   0.578168 0.570682 0.969718 0.628082
C17   C     C_3   0.421827 0.429317 0.030282 0.628083
C18   C     C_1   0.501011 0.499929 0.750568 -0.056755
C19   C     C_1   0.498988 0.500070 0.249432 -0.056755
C20   C     C_3   0.399885 0.523595 0.976864 0.036801
C21   C     C_3   0.600110 0.476404 0.023136 0.036799
C22   C     C_3   0.499607 0.498997 0.916696 -0.248449
C23   C     C_R   0.620214 0.966926 0.426900 0.718354
C24   C     C_3   0.500389 0.501001 0.083304 -0.248449
C25   C     C_1   0.500758 0.499583 0.825836 0.167022
C26   C     C_1   0.499240 0.500416 0.174164 0.167021
C27   C     C_R   0.460808 0.187802 0.502735 -0.452660
C28   C     C_R   0.539192 0.812198 0.497264 -0.452659
C29   C     C_R   0.379786 0.033073 0.573099 0.718355
C30   C     C_R   0.619659 0.860667 0.440449 0.466817
C31   C     C_R   0.380341 0.139333 0.559548 0.466819
C32   C     C_R   0.463010 0.869540 0.544481 0.681246
C33   C     C_R   0.536991 0.130461 0.455518 0.681248
C34   C     C_R   0.460505 0.975467 0.529986 -0.392550
F1    F     F_    0.658896 0.643568 0.936077 -0.571361
F2    F     F_    0.768933 0.385419 0.356717 -0.562963
F3    F     F_    0.341099 0.356431 0.063923 -0.571359
F4    F     F_    0.609976 0.179323 0.397076 -0.527322
F5    F     F_    0.390027 0.820677 0.602924 -0.527326
F6    F     F_    0.306753 0.195813 0.605582 -0.573271
F7    F     F_    0.693245 0.804186 0.394414 -0.573272
F8    F     F_    0.697879 0.012071 0.370209 -0.509279
F9    F     F_    0.302122 0.987928 0.629790 -0.509281
F10   F     F_    0.231072 0.614576 0.643285 -0.562970
I1    I     I_    0.451185 0.748666 0.081458 -0.044339
I2    I     I_    0.548810 0.251333 0.918542 -0.044340
I3    I     I_    0.759730 0.443760 0.061741 -0.003428
I4    I     I_    0.240266 0.556239 0.938258 -0.003430
I5    I     I_    0.205532 0.338970 0.385792 -0.095626
I6    I     I_    0.794454 0.661026 0.614215 -0.095642
I7    I     I_    0.000611 0.421385 0.265737 -0.009587
I8    I     I_    0.999402 0.578677 0.734264 -0.009549
N1    N     N_R   0.207800 0.519340 0.515560 -0.204613
N2    N     N_R   0.792200 0.480660 0.484440 -0.204617
O1    O     O_R   0.421700 0.658830 0.504150 -0.559942
O2    O     O_R   0.578300 0.341170 0.495850 -0.559939
O3    O     O_R   0.609310 0.646410 0.494170 -0.573660
O4    O     O_R   0.390690 0.353590 0.505830 -0.573657
O5    O     O_R   0.406210 0.506220 0.628210 -0.537781
O6    O     O_R   0.593790 0.493780 0.371790 -0.537788
O7    O     O_R   0.593830 0.493800 0.618230 -0.630911
O8    O     O_R   0.406170 0.506200 0.381770 -0.630912
Zn1   Zn    Zn3+2 0.374730 0.508290 0.506660 1.098329
Zn2   Zn    Zn3+2 0.625270 0.491710 0.493340 1.098327

loop_
_geom_bond_atom_site_label_1
_geom_bond_atom_site_label_2
_ccdc_geom_bond_type
C8    N1    A    
O7    Zn2   S    
C16   C22   S    
O2    Zn2   S    
C11   C18   S    
C15   C17   S    
C16   C21   S    
C1    O3    A    
C1    C28   S    
C9    C10   A    
O5    Zn1   S    
C33   F4    S    
C7    N2    A    
C15   C21   S    
C4    C9    A    
O6    Zn2   S    
C12   O4    A    
C2    C34   A    
C28   C30   A    
C1    O1    A    
C3    C5    A    
C29   C31   A    
C13   O6    A    
C6    F10   S    
C29   F9    S    
N1    Zn1   S    
O8    Zn1   S    
C23   F8    S    
N2    Zn2   S    
C4    I8    S    
C11   O5    A    
C8    I5    S    
C2    C33   A    
C4    C6    A    
C12   O2    A    
C24   C26   S    
C14   I1    S    
C7    C9    A    
C16   F1    S    
C18   C25   T    
C14   C16   S    
C6    N1    A    
C32   F5    S    
C30   F7    S    
C13   C19   S    
C12   C27   S    
C27   C31   A    
C17   C24   S    
C5    F2    S    
C14   C20   S    
C5    N2    A    
C28   C32   A    
C17   C20   S    
C23   C30   A    
O3    Zn2   S    
C8    C10   A    
C21   C24   S    
C14   C24   S    
C2    C23   A    
C3    C10   A    
C19   C26   T    
C3    I7    S    
C17   F3    S    
O1    Zn1   S    
C20   I4    S    
C15   I2    S    
C21   I3    S    
C31   F6    S    
C29   C34   A    
C15   C22   S    
C27   C33   A    
C13   O8    A    
O4    Zn1   S    
C7    I6    S    
C20   C22   S    
C11   O7    A    
C22   C25   S    
C32   C34   A    
