data_mof_unit_12319.cif
_audit_creation_date              2012-12-10T16:57:43-0500
_audit_creation_method            fapswitch 2.2
_symmetry_space_group_name_H-M    P1
_symmetry_Int_Tables_number       1
_space_group_crystal_system       triclinic
_cell_length_a                    7.755207
_cell_length_b                    8.573865
_cell_length_c                    19.132322
_cell_angle_alpha                 91.023019
_cell_angle_beta                  85.537936
_cell_angle_gamma                 93.733303
_cell_volume                      1265.49646599

loop_
_atom_site_label
_atom_site_type_symbol
_atom_type_description
_atom_site_fract_x
_atom_site_fract_y
_atom_site_fract_z
_atom_type_partial_charge
C1    C     C_R   0.545908 0.794830 0.498183 0.969313
C2    C     C_R   0.629450 0.445872 0.175247 0.179245
C3    C     C_R   0.512815 0.531825 0.854580 -0.035500
C4    C     C_R   0.499442 0.523161 0.145276 -0.035449
C5    C     C_R   0.642851 0.454879 0.814900 0.176432
C6    C     C_R   0.366791 0.590030 0.187675 0.174484
C7    C     C_R   0.639912 0.446655 0.742479 -0.219503
C8    C     C_R   0.365077 0.579288 0.259990 -0.218049
C9    C     C_R   0.506714 0.511816 0.709905 -0.108403
C10   C     C_R   0.496011 0.504804 0.290006 -0.108833
C11   C     C_R   0.500380 0.530546 0.070175 0.331636
C12   C     C_R   0.454092 0.205170 0.501818 0.971226
C13   C     C_R   0.508384 0.533163 0.929904 0.331814
C14   C     C_2   0.570098 0.958310 0.497142 -0.370136
C15   C     C_2   0.429900 0.041686 0.502858 -0.371078
C16   C     C_R   0.501952 0.501828 0.634400 0.894529
C17   C     C_R   0.498361 0.500114 0.365584 0.894382
C18   C     C_R   0.378325 0.589162 0.749617 -0.207347
C19   C     C_R   0.627783 0.438421 0.247591 -0.207717
C20   C     C_R   0.381407 0.600734 0.821813 0.177027
H1    H     H_    0.739005 0.386085 0.711901 0.178884
H2    H     H_    0.264054 0.632580 0.292667 0.179433
H3    H     H_    0.013935 0.382280 0.447443 0.195246
H4    H     H_    0.986065 0.617719 0.552558 0.194938
H5    H     H_    0.276903 0.642705 0.724514 0.178545
H6    H     H_    0.728172 0.378870 0.270603 0.178727
H7    H     H_    0.702446 0.009515 0.491690 0.181890
H8    H     H_    0.297552 0.990480 0.508311 0.181799
I1    I     I_    0.188045 0.728941 0.877740 -0.211533
I2    I     I_    0.826047 0.330441 0.114739 -0.204769
I3    I     I_    0.839458 0.339251 0.860898 -0.228749
I4    I     I_    0.171488 0.716155 0.146333 -0.236630
N1    N     N_R   0.637038 0.609834 0.963194 -0.101110
N2    N     N_R   0.371531 0.454443 0.036860 -0.101283
N3    N     N_R   0.633122 0.608405 0.032629 -0.100534
N4    N     N_R   0.375428 0.455884 0.967487 -0.100393
N5    N     N_2   0.950330 0.457950 0.481240 -0.172421
N6    N     N_2   0.049670 0.542050 0.518760 -0.172636
O1    O     O_R   0.389250 0.738570 0.504600 -0.614547
O2    O     O_R   0.610750 0.261430 0.495400 -0.613620
O3    O     O_R   0.678400 0.711620 0.492580 -0.626910
O4    O     O_R   0.321600 0.288380 0.507420 -0.626453
O5    O     O_R   0.355380 0.513500 0.607880 -0.615184
O6    O     O_R   0.644620 0.486500 0.392120 -0.614941
O7    O     O_R   0.644530 0.486550 0.595850 -0.627015
O8    O     O_R   0.355470 0.513450 0.404150 -0.627436
Zn1   Zn    Zn3+2 0.306930 0.517990 0.508030 0.953981
Zn2   Zn    Zn3+2 0.693070 0.482010 0.491970 0.954645

loop_
_geom_bond_atom_site_label_1
_geom_bond_atom_site_label_2
_ccdc_geom_bond_type
C16   O7    A    
C12   O2    A    
C18   C20   A    
H4    N6    S    
C13   N1    A    
N5    N6    D    
C14   H7    S    
C5    C7    A    
C2    C4    A    
C3    C13   S    
C12   C15   S    
C10   C19   A    
C2    I2    S    
C11   N3    A    
C15   H8    S    
C17   O6    A    
C3    C20   A    
C7    H1    S    
C4    C11   S    
N5    Zn2   S    
C16   O5    A    
N6    Zn1   S    
C18   H5    S    
C20   I1    S    
C1    O3    A    
N1    N3    A    
C9    C16   S    
N2    N4    A    
O4    Zn1   S    
C14   C15   D    
C8    C10   A    
C1    O1    A    
C10   C17   S    
C12   O4    A    
C9    C18   A    
C17   O8    A    
C13   N4    A    
C4    C6    A    
C6    I4    S    
O7    Zn2   S    
C7    C9    A    
C19   H6    S    
O2    Zn2   S    
O8    Zn1   S    
C6    C8    A    
C1    C14   S    
C5    I3    S    
C2    C19   A    
H3    N5    S    
O1    Zn1   S    
O5    Zn1   S    
C8    H2    S    
O3    Zn2   S    
C11   N2    A    
O6    Zn2   S    
C3    C5    A    
