data_mof_unit_11778.cif
_audit_creation_date              2012-12-10T16:53:29-0500
_audit_creation_method            fapswitch 2.2
_symmetry_space_group_name_H-M    P1
_symmetry_Int_Tables_number       1
_space_group_crystal_system       triclinic
_cell_length_a                    7.824724
_cell_length_b                    8.617655
_cell_length_c                    13.610576
_cell_angle_alpha                 92.786519
_cell_angle_beta                  78.208068
_cell_angle_gamma                 93.325457
_cell_volume                      896.255602104

loop_
_atom_site_label
_atom_site_type_symbol
_atom_type_description
_atom_site_fract_x
_atom_site_fract_y
_atom_site_fract_z
_atom_type_partial_charge
C1    C     C_R   0.545475 0.794067 0.495896 0.863882
C2    C     C_1   0.565825 0.479505 0.119903 0.061541
C3    C     C_2   0.567682 0.955397 0.479849 0.217570
C4    C     C_2   0.432317 0.044603 0.520167 0.219413
C5    C     C_R   0.454523 0.205933 0.504114 0.862861
C6    C     C_R   0.470042 0.504405 0.687118 0.879608
C7    C     C_R   0.529980 0.495666 0.312869 0.881598
C8    C     C_1   0.551530 0.486777 0.208306 -0.047666
C9    C     C_1   0.448715 0.514035 0.791642 -0.058606
C10   C     C_2   0.569156 0.474965 0.015831 0.268745
C11   C     C_2   0.432003 0.527284 0.983969 0.289283
C12   C     C_1   0.434830 0.522047 0.880000 0.108332
H1    H     H_    0.000389 0.688726 0.047903 0.400992
H2    H     H_    0.949353 0.484442 0.809858 0.395835
H3    H     H_    0.792573 0.928427 0.387095 0.363243
H4    H     H_    0.207424 0.071574 0.612917 0.362554
H5    H     H_    0.956521 0.298953 0.376649 0.376807
H6    H     H_    0.043366 0.700668 0.623612 0.373150
N1    N     N_2   0.954190 0.457600 0.473930 0.186874
N2    N     N_2   0.045810 0.542400 0.526070 0.179696
O1    O     O_R   0.388300 0.738660 0.506400 -0.577443
O2    O     O_2   0.303381 0.738915 0.126854 -0.283343
O3    O     O_3   0.106626 0.662786 0.997769 -0.478518
O4    O     O_2   0.882821 0.349696 0.993438 -0.217787
O5    O     O_2   0.696351 0.259808 0.875328 -0.282512
O6    O     O_3   0.849649 0.535201 0.853832 -0.525448
O7    O     O_3   0.715858 0.014169 0.415153 -0.756042
O8    O     O_3   0.284141 0.985831 0.584863 -0.754102
O9    O     O_3   0.044263 0.353509 0.410803 -0.611666
O10   O     O_3   0.955683 0.646306 0.589327 -0.622032
O11   O     O_R   0.611700 0.261340 0.493600 -0.579574
O12   O     O_R   0.679920 0.711490 0.489690 -0.595643
O13   O     O_R   0.320080 0.288510 0.510310 -0.599386
O14   O     O_R   0.333200 0.515510 0.649910 -0.637481
O15   O     O_R   0.666800 0.484490 0.350090 -0.619331
O16   O     O_R   0.624820 0.488340 0.633200 -0.555873
O17   O     O_R   0.375180 0.511660 0.366800 -0.551870
O18   O     O_2   0.157161 0.479102 0.134390 -0.261607
S1    S     S_3+6 0.246489 0.603374 0.065382 0.062476
S2    S     S_3+6 0.754098 0.398374 0.933989 0.050444
Zn1   Zn    Zn3+2 0.305280 0.518140 0.511160 1.100467
Zn2   Zn    Zn3+2 0.694720 0.481860 0.488840 1.110560

loop_
_geom_bond_atom_site_label_1
_geom_bond_atom_site_label_2
_ccdc_geom_bond_type
H4    O8    S    
C2    C10   S    
C11   C12   S    
C1    O1    A    
H6    O10   S    
O11   Zn2   S    
H5    O9    S    
O16   Zn2   S    
N1    N2    D    
N1    Zn2   S    
O13   Zn1   S    
C6    C9    S    
C3    O7    S    
N2    Zn1   S    
C7    O17   A    
C7    C8    S    
N2    O10   S    
H2    O6    S    
C11   S1    S    
O6    S2    S    
O14   Zn1   S    
C7    O15   A    
O1    Zn1   S    
O2    S1    D    
C4    O8    S    
C6    O16   A    
O5    S2    D    
O17   Zn1   S    
O18   S1    D    
C9    C12   T    
O3    S1    S    
C10   C11   D    
C3    C4    D    
N1    O9    S    
H1    O3    S    
C10   S2    S    
O15   Zn2   S    
O12   Zn2   S    
C5    O11   A    
O4    S2    D    
H3    O7    S    
C1    O12   A    
C2    C8    T    
C6    O14   A    
C4    C5    S    
C1    C3    S    
C5    O13   A    
