data_mof_unit_7169.cif
_audit_creation_date              2012-12-11T15:33:36-0500
_audit_creation_method            fapswitch 2.2
_symmetry_space_group_name_H-M    P1
_symmetry_Int_Tables_number       1
_space_group_crystal_system       triclinic
_cell_length_a                    26.916772
_cell_length_b                    7.19237
_cell_length_c                    23.125751
_cell_angle_alpha                 89.997318
_cell_angle_beta                  101.064401
_cell_angle_gamma                 90.00028
_cell_volume                      4393.81984613

loop_
_atom_site_label
_atom_site_type_symbol
_atom_type_description
_atom_site_fract_x
_atom_site_fract_y
_atom_site_fract_z
_atom_type_partial_charge
O1    O     O_R   0.207310 0.594030 0.676830 -0.536166
O2    O     O_R   0.792690 0.405970 0.323170 -0.534880
O3    O     O_R   0.292690 0.094030 0.823170 -0.536153
O4    O     O_R   0.707310 0.905970 0.176830 -0.534864
O5    O     O_R   0.197320 0.262370 0.795700 -0.537993
O6    O     O_R   0.802680 0.737630 0.204300 -0.545757
O7    O     O_R   0.302680 0.762370 0.704300 -0.537996
O8    O     O_R   0.697320 0.237630 0.295700 -0.545743
C1    C     C_R   0.183970 0.431130 0.811615 0.725177
C2    C     C_R   0.816284 0.568481 0.189274 0.715789
C3    C     C_R   0.316027 0.931136 0.688381 0.725171
C4    C     C_R   0.683717 0.068473 0.310726 0.715748
O9    O     O_R   0.201410 0.264250 0.675590 -0.523884
O10   O     O_R   0.798590 0.735750 0.324410 -0.527852
O11   O     O_R   0.298590 0.764250 0.824410 -0.523887
O12   O     O_R   0.701410 0.235750 0.175590 -0.527861
O13   O     O_R   0.296810 0.094940 0.702210 -0.521718
O14   O     O_R   0.703190 0.905060 0.297790 -0.520148
O15   O     O_R   0.203190 0.594940 0.797790 -0.521711
O16   O     O_R   0.796810 0.405060 0.202210 -0.520152
C5    C     C_R   0.189793 0.433752 0.653521 0.716847
C6    C     C_R   0.810333 0.566110 0.346323 0.712914
C7    C     C_R   0.310208 0.933745 0.846479 0.716860
C8    C     C_R   0.689666 0.066116 0.153679 0.712889
O17   O     O_3   0.281300 0.427390 0.758870 -0.372832
O18   O     O_3   0.718700 0.572610 0.241130 -0.373929
O19   O     O_3   0.218700 0.927390 0.741130 -0.372831
O20   O     O_3   0.781300 0.072610 0.258870 -0.373950
V1    V     V_3+5 0.244190 0.152150 0.748350 1.470416
V2    V     V_3+5 0.755810 0.847850 0.251650 1.470289
V3    V     V_3+5 0.255810 0.652150 0.751650 1.470416
V4    V     V_3+5 0.744190 0.347850 0.248350 1.470290
C9    C     C_R   0.655747 0.047594 0.095435 -0.066620
C10   C     C_R   0.343964 0.950788 0.904969 -0.070511
C11   C     C_R   0.844250 0.547560 0.404569 -0.066628
C12   C     C_R   0.156039 0.450825 0.595031 -0.070493
C13   C     C_R   0.645302 0.936172 0.994726 0.172360
C14   C     C_R   0.354962 0.056970 0.006238 0.167606
C15   C     C_R   0.854702 0.435894 0.505255 0.172334
C16   C     C_R   0.145034 0.557257 0.493782 0.167597
C17   C     C_R   0.676171 0.980816 0.048425 -0.127052
C18   C     C_R   0.324098 0.022772 0.951713 -0.132246
C19   C     C_R   0.823831 0.480622 0.451565 -0.127051
C20   C     C_R   0.175900 0.522968 0.548302 -0.132212
C21   C     C_R   0.602918 0.062060 0.089132 -0.228331
C22   C     C_R   0.396496 0.924253 0.912264 -0.231846
C23   C     C_R   0.897078 0.562143 0.410881 -0.228333
C24   C     C_R   0.103510 0.424186 0.587724 -0.231848
C25   C     C_R   0.569775 0.007613 0.035891 0.065899
C26   C     C_R   0.429883 0.969968 0.965928 0.067430
C27   C     C_R   0.930225 0.507606 0.464111 0.065894
C28   C     C_R   0.070120 0.469994 0.534070 0.067423
C29   C     C_R   0.592057 0.949064 0.987898 0.074273
C30   C     C_R   0.407873 0.030517 0.013901 0.076906
C31   C     C_R   0.907946 0.448865 0.512089 0.074278
C32   C     C_R   0.092126 0.530732 0.486112 0.076916
C33   C     C_R   0.515431 0.008272 0.028778 0.076495
C34   C     C_R   0.484243 0.961347 0.973251 0.076395
C35   C     C_R   0.984569 0.508347 0.471228 0.076490
C36   C     C_R   0.015761 0.461295 0.526742 0.076395
C37   C     C_R   0.508502 0.909773 0.926828 -0.194253
C38   C     C_R   0.491235 0.050728 0.075832 -0.200038
C39   C     C_R   0.991505 0.409521 0.573151 -0.194251
C40   C     C_R   0.008763 0.551002 0.424185 -0.200041
C41   C     C_R   0.560876 0.902206 0.934230 -0.154169
C42   C     C_R   0.439052 0.064765 0.068460 -0.152902
C43   C     C_R   0.939131 0.401890 0.565746 -0.154172
C44   C     C_R   0.060946 0.565099 0.431561 -0.152899
H1    H     H_    0.576585 0.859459 0.896696 0.165339
H2    H     H_    0.423535 0.102597 0.106607 0.166326
H3    H     H_    0.923425 0.358989 0.603268 0.165337
H4    H     H_    0.076460 0.603079 0.393424 0.166318
H5    H     H_    0.410310 0.874075 0.874951 0.112159
H6    H     H_    0.589113 0.111620 0.126983 0.108749
H7    H     H_    0.089700 0.373865 0.625024 0.112178
H8    H     H_    0.910879 0.611850 0.373043 0.108754
H9    H     H_    0.284183 0.055022 0.945623 0.166313
H10   H     H_    0.716663 0.960158 0.053869 0.162047
H11   H     H_    0.215813 0.555274 0.554401 0.166294
H12   H     H_    0.783341 0.459899 0.446114 0.162046
H13   H     H_    0.488103 0.873604 0.883650 0.127842
H14   H     H_    0.511792 0.071576 0.119592 0.130392
H15   H     H_    0.011906 0.373234 0.616318 0.127837
H16   H     H_    0.988206 0.571970 0.380431 0.130409
C45   C     C_R   0.654313 0.960650 0.401527 0.138367
C46   C     C_R   0.355105 0.069291 0.606628 0.128523
C47   C     C_R   0.845663 0.460726 0.098455 0.138336
C48   C     C_R   0.144872 0.569268 0.893351 0.128507
C49   C     C_R   0.618630 0.947210 0.437658 -0.177021
C50   C     C_R   0.392662 0.079650 0.572803 -0.190094
C51   C     C_R   0.881339 0.447258 0.062316 -0.177000
C52   C     C_R   0.107310 0.579604 0.927169 -0.190100
H17   H     H_    0.627714 0.866093 0.477802 0.172211
H18   H     H_    0.389104 0.183208 0.538197 0.174912
H19   H     H_    0.872240 0.366192 0.022166 0.172223
H20   H     H_    0.110860 0.683161 0.961772 0.174936
C53   C     C_R   0.572758 0.042644 0.424948 -0.056898
C54   C     C_R   0.433684 0.957770 0.581016 -0.063268
C55   C     C_R   0.927226 0.542586 0.075029 -0.056894
C56   C     C_R   0.066290 0.457711 0.918952 -0.063284
C57   C     C_R   0.561384 0.154310 0.373351 0.138875
C58   C     C_R   0.437823 0.820092 0.625734 0.124144
C59   C     C_R   0.938621 0.654182 0.126636 0.138863
C60   C     C_R   0.062163 0.320036 0.874237 0.124147
C61   C     C_R   0.596981 0.162831 0.334054 0.098672
C62   C     C_R   0.399191 0.805682 0.660841 0.110753
C63   C     C_R   0.903017 0.662812 0.165924 0.098700
C64   C     C_R   0.100804 0.305634 0.839144 0.110738
C65   C     C_R   0.644088 0.063123 0.348526 -0.151589
C66   C     C_R   0.357330 0.935229 0.651893 -0.138548
C67   C     C_R   0.855903 0.563151 0.151460 -0.151562
C68   C     C_R   0.142660 0.435203 0.848094 -0.138537
N1    N     N_R   0.520750 0.170870 0.493350 -0.281444
N2    N     N_R   0.488055 0.829501 0.514863 -0.280639
N3    N     N_R   0.979249 0.670815 0.006643 -0.281438
N4    N     N_R   0.011885 0.329427 0.985069 -0.280670
N5    N     N_R   0.488035 0.150322 0.529522 -0.305924
N6    N     N_R   0.520780 0.849758 0.478700 -0.281700
N7    N     N_R   0.011961 0.650266 0.970467 -0.305918
N8    N     N_R   0.979163 0.349684 0.021235 -0.281693
C69   C     C_R   0.471135 0.979084 0.541342 0.527573
C70   C     C_R   0.537582 0.021073 0.466920 0.542021
C71   C     C_R   0.028832 0.479018 0.958617 0.527604
C72   C     C_R   0.962392 0.521008 0.033046 0.542015
I1    I     I_    0.683307 0.840678 0.927679 -0.313729
I2    I     I_    0.317854 0.159690 0.073153 -0.326181
I3    I     I_    0.816704 0.340142 0.572280 -0.313747
I4    I     I_    0.182136 0.660238 0.426892 -0.326189
I5    I     I_    0.725795 0.839215 0.435415 -0.360030
I6    I     I_    0.293889 0.254716 0.579825 -0.389274
I7    I     I_    0.774162 0.339460 0.064566 -0.360047
I8    I     I_    0.206073 0.754742 0.920154 -0.389340
C73   C     C_3   0.511471 0.262900 0.361410 -0.354866
C74   C     C_3   0.465125 0.135264 0.346552 -0.693880
H21   H     H_    0.471982 0.020002 0.317133 0.224817
H22   H     H_    0.455142 0.074972 0.386902 0.242189
H23   H     H_    0.431970 0.216750 0.323997 0.230300
H24   H     H_    0.508412 0.350764 0.399938 0.215026
H25   H     H_    0.509069 0.364724 0.325344 0.189453
C75   C     C_3   0.485430 0.699959 0.638798 -0.374250
C76   C     C_3   0.477096 0.509206 0.609095 -0.635736
H26   H     H_    0.445298 0.432852 0.622279 0.206436
H27   H     H_    0.468350 0.523611 0.560508 0.268569
H28   H     H_    0.512005 0.424547 0.621501 0.233830
H29   H     H_    0.517871 0.768671 0.624387 0.200461
H30   H     H_    0.499113 0.684633 0.686951 0.181415
C77   C     C_3   0.988569 0.762557 0.138602 -0.354917
C78   C     C_3   0.034872 0.634709 0.153460 -0.693902
H31   H     H_    0.027986 0.519558 0.182906 0.224786
H32   H     H_    0.044819 0.574266 0.113113 0.242178
H33   H     H_    0.068059 0.716078 0.175987 0.230319
H34   H     H_    0.991665 0.850429 0.100086 0.215030
H35   H     H_    0.991004 0.864344 0.174681 0.189471
C79   C     C_3   0.014556 0.199906 0.861160 -0.374232
C80   C     C_3   0.022880 0.009156 0.890873 -0.635697
H36   H     H_    0.054696 0.932822 0.877721 0.206442
H37   H     H_    0.031596 0.023553 0.939463 0.268585
H38   H     H_    0.987977 0.924485 0.878439 0.233794
H39   H     H_    0.982108 0.268627 0.875550 0.200463
H40   H     H_    0.000888 0.184572 0.813004 0.181402
C81   C     C_3   0.584386 0.277631 0.277454 -0.346490
C82   C     C_3   0.543382 0.187990 0.231429 -0.800855
H41   H     H_    0.556131 0.048577 0.219641 0.219284
H42   H     H_    0.507065 0.172983 0.246329 0.253657
H43   H     H_    0.536485 0.278650 0.191871 0.218627
H44   H     H_    0.573966 0.421789 0.287304 0.175400
H45   H     H_    0.616364 0.296724 0.254906 0.193539
C83   C     C_3   0.404138 0.657074 0.708971 -0.322516
C84   C     C_3   0.418903 0.742940 0.769876 -0.773486
H46   H     H_    0.457074 0.806798 0.775090 0.219764
H47   H     H_    0.391467 0.851685 0.776491 0.202884
H48   H     H_    0.419761 0.633325 0.803883 0.220235
H49   H     H_    0.369587 0.571416 0.704833 0.210663
H50   H     H_    0.432721 0.549835 0.706063 0.181033
C85   C     C_3   0.915615 0.777707 0.222499 -0.346544
C86   C     C_3   0.956561 0.687958 0.268570 -0.800651
H51   H     H_    0.943733 0.548670 0.280401 0.219198
H52   H     H_    0.992887 0.672587 0.253686 0.253593
H53   H     H_    0.963484 0.778781 0.308096 0.218600
H54   H     H_    0.926095 0.921783 0.212628 0.175359
H55   H     H_    0.883623 0.797086 0.245006 0.193598
C87   C     C_3   0.095873 0.157002 0.791027 -0.322474
C88   C     C_3   0.081114 0.242831 0.730112 -0.773450
H56   H     H_    0.042938 0.306661 0.724882 0.219742
H57   H     H_    0.108545 0.351595 0.723495 0.202890
H58   H     H_    0.080269 0.133199 0.696115 0.220215
H59   H     H_    0.130429 0.071358 0.795181 0.210674
H60   H     H_    0.067294 0.049749 0.793936 0.181024

loop_
_geom_bond_atom_site_label_1
_geom_bond_atom_site_label_2
_ccdc_geom_bond_type
O17   V3    S    
C54   C69   S    
C55   C59   A    
O1    C5    A    
N4    C71   A    
C47   C51   A    
O19   V1    S    
C9    C21   A    
C84   H46   S    
O3    C7    A    
C77   C78   S    
C10   C18   A    
C78   H33   S    
C52   H20   S    
C11   C23   A    
C74   H23   S    
C81   C82   S    
C59   C77   S    
C33   C38   A    
C5    C12   S    
O7    C3    A    
C6    C11   S    
C35   C40   A    
C26   C30   A    
C36   C39   A    
C40   C44   A    
O9    V1    S    
C46   C66   A    
C78   H32   S    
C23   H8    S    
C14   C18   A    
C45   C65   A    
C76   H27   S    
O16   V4    S    
O4    C8    A    
C25   C29   A    
C43   H3    S    
C80   H37   S    
C16   I4    S    
C39   H15   S    
O1    V3    S    
O13   V1    S    
O2    V4    S    
N6    C70   A    
C47   I7    S    
O3    V1    S    
N5    C69   A    
C87   C88   S    
C40   H16   S    
C28   C36   A    
C45   I5    S    
N2    C69   A    
C1    O15   A    
C56   C60   A    
C15   C31   A    
N1    C70   A    
C48   C52   A    
C2    O16   A    
C16   C32   A    
O2    C6    A    
C58   C62   A    
C10   C22   A    
C11   C19   A    
C16   C20   A    
O5    V1    S    
C81   H44   S    
C44   H4    S    
C85   H55   S    
C13   C29   A    
C34   C37   A    
O11   C7    A    
C38   H14   S    
O15   V3    S    
C35   C36   A    
O12   C8    A    
C3    C66   S    
C49   H17   S    
C84   H47   S    
C24   H7    S    
O10   V2    S    
C4    C65   S    
C14   I2    S    
C50   H18   S    
C13   I1    S    
C86   H53   S    
C57   C61   A    
C83   H49   S    
C39   C43   A    
C15   I3    S    
C79   H40   S    
C38   C42   A    
C28   C32   A    
O8    V4    S    
O7    V3    S    
C78   H31   S    
C46   C50   A    
C88   H58   S    
C75   H30   S    
C17   H10   S    
C45   C49   A    
O18   V4    S    
C46   I6    S    
C15   C19   A    
C19   H12   S    
C32   C44   A    
N4    N8    A    
C49   C53   A    
C21   H6    S    
C26   C34   A    
C83   H50   S    
C88   H56   S    
O5    C1    A    
C53   C70   S    
C23   C27   A    
C82   H43   S    
C31   C43   A    
C85   C86   S    
C14   C30   A    
C21   C25   A    
O8    C4    A    
C7    C10   S    
C57   C73   S    
O9    C5    A    
C2    C67   S    
C81   H45   S    
C75   C76   S    
C73   H24   S    
C79   C80   S    
N2    N6    A    
C18   H9    S    
N1    N5    A    
C86   H51   S    
O6    V2    S    
C73   H25   S    
N3    N7    A    
C73   C74   S    
C84   H48   S    
C61   C81   S    
C76   H28   S    
C27   C35   A    
C48   I8    S    
C60   C64   A    
C29   C41   A    
C52   C56   A    
C59   C63   A    
C82   H41   S    
C62   C66   A    
C61   C65   A    
C83   C84   S    
N3    C72   A    
C63   C67   A    
C20   H11   S    
C3    O13   A    
C75   H29   S    
O6    C2    A    
C25   C33   A    
C74   H22   S    
C58   C75   S    
O11   V3    S    
C85   H54   S    
C30   C42   A    
N7    C71   A    
O12   V4    S    
C22   C26   A    
C74   H21   S    
C8    C9    S    
C64   C87   S    
C56   C71   S    
C9    C17   A    
O10   C6    A    
O20   V2    S    
C77   H34   S    
C79   H39   S    
C82   H42   S    
C54   C58   A    
C76   H26   S    
C33   C34   A    
C42   H2    S    
C63   C85   S    
C1    C68   S    
C41   H1    S    
C86   H52   S    
C12   C24   A    
C27   C31   A    
C87   H59   S    
C37   C41   A    
C13   C17   A    
C77   H35   S    
O4    V2    S    
C12   C20   A    
O14   V2    S    
C51   H19   S    
C48   C68   A    
C64   C68   A    
C24   C28   A    
C47   C67   A    
C88   H57   S    
C4    O14   A    
C80   H36   S    
C37   H13   S    
C60   C79   S    
C51   C55   A    
C87   H60   S    
C50   C54   A    
C22   H5    S    
C53   C57   A    
N8    C72   A    
C62   C83   S    
C55   C72   S    
C80   H38   S    
