data_mof_unit_58213.cif
_audit_creation_date              2012-10-26T19:40:07-0400
_audit_creation_method            fapswitch 2.2
_symmetry_space_group_name_H-M    P1
_symmetry_Int_Tables_number       1
_space_group_crystal_system       triclinic
_cell_length_a                    14.99206
_cell_length_b                    8.6769
_cell_length_c                    7.451131
_cell_angle_alpha                 102.865834
_cell_angle_beta                  93.860914
_cell_angle_gamma                 92.440273
_cell_volume                      941.145425835

loop_
_atom_site_label
_atom_site_type_symbol
_atom_type_description
_atom_site_fract_x
_atom_site_fract_y
_atom_site_fract_z
_atom_type_partial_charge
C1    C     C_R   0.497308 0.199799 0.453348 0.579719
C2    C     C_R   0.180873 0.366032 0.410921 0.318078
C3    C     C_R   0.766943 0.501977 0.490468 0.043138
C4    C     C_R   0.233057 0.498022 0.509532 0.043138
C5    C     C_R   0.805687 0.369166 0.391156 0.292028
C6    C     C_R   0.194313 0.630834 0.608844 0.292029
C7    C     C_R   0.899601 0.366502 0.388755 -0.008996
C8    C     C_R   0.100399 0.633499 0.611244 -0.008996
C9    C     C_R   0.952944 0.500037 0.495020 -0.043950
C10   C     C_R   0.047056 0.499963 0.504980 -0.043949
C11   C     C_R   0.912108 0.633922 0.592367 0.007790
C12   C     C_R   0.502692 0.800200 0.546652 0.579719
C13   C     C_R   0.087892 0.366078 0.407632 0.007790
C14   C     C_R   0.942298 0.233923 0.290288 0.025161
C15   C     C_R   0.057702 0.766078 0.709710 0.025160
C16   C     C_2   0.893124 0.095221 0.163950 0.327332
C17   C     C_2   0.106876 0.904781 0.836046 0.327331
C18   C     C_R   0.035679 0.234939 0.304585 -0.030500
C19   C     C_R   0.964321 0.765062 0.695412 -0.030500
C20   C     C_2   0.496013 0.031905 0.427081 -0.094422
C21   C     C_2   0.503987 0.968095 0.572919 -0.094422
C22   C     C_R   0.329181 0.499244 0.502920 0.645553
C23   C     C_R   0.670819 0.500756 0.497079 0.645553
C24   C     C_R   0.819126 0.633968 0.589079 0.318078
Cu1   Cu    Cu3+1 0.510010 0.517380 0.684380 1.081180
Cu2   Cu    Cu3+1 0.489990 0.482620 0.315620 1.081180
F1    F     F_    0.778786 0.761651 0.683258 -0.621196
F2    F     F_    0.221214 0.238349 0.316741 -0.621195
F3    F     F_    0.750606 0.240696 0.309921 -0.643851
F4    F     F_    0.249394 0.759304 0.690078 -0.643851
H1    H     H_    0.068024 0.133628 0.229388 0.229150
H2    H     H_    0.931975 0.866374 0.770608 0.229151
H3    H     H_    0.488488 0.960460 0.286491 0.147036
H4    H     H_    0.511512 0.039540 0.713509 0.147036
H5    H     H_    0.430116 0.377900 0.948847 0.252475
H6    H     H_    0.569884 0.622100 0.051153 0.252475
H7    H     H_    0.833689 0.109728 0.079663 0.201450
H8    H     H_    0.166311 0.890275 0.920334 0.201449
N1    N     N_2   0.474890 0.456420 0.038520 -0.254364
N2    N     N_2   0.525110 0.543580 0.961480 -0.254364
O1    O     O_R   0.506510 0.286130 0.619770 -0.524511
O2    O     O_2   0.079665 0.037399 0.851019 -0.493161
O3    O     O_R   0.493490 0.713870 0.380230 -0.524511
O4    O     O_R   0.489600 0.256770 0.308360 -0.476473
O5    O     O_R   0.510400 0.743230 0.691640 -0.476473
O6    O     O_R   0.378710 0.514640 0.655720 -0.487850
O7    O     O_R   0.621290 0.485360 0.344280 -0.487849
O8    O     O_R   0.361800 0.485290 0.344300 -0.470816
O9    O     O_R   0.638200 0.514710 0.655700 -0.470816
O10   O     O_2   0.920335 0.962603 0.148974 -0.493163

loop_
_geom_bond_atom_site_label_1
_geom_bond_atom_site_label_2
_ccdc_geom_bond_type
C22   O8    A    
C5    C7    A    
C18   H1    S    
C8    C15   A    
C4    C22   S    
C9    C10   A    
C14   C18   A    
C1    O4    A    
C2    C4    A    
C24   F1    S    
Cu2   O8    S    
C16   H7    S    
Cu2   O4    S    
C15   C19   A    
C9    C11   A    
C11   C19   A    
C3    C24   A    
C13   C18   A    
C19   H2    S    
Cu2   O7    S    
C8    C10   A    
C22   O6    A    
C16   O10   D    
Cu2   O3    S    
C12   O3    A    
C5    F3    S    
C17   H8    S    
Cu1   N2    S    
H5    N1    S    
C14   C16   S    
Cu2   N1    S    
C23   O9    A    
C4    C6    A    
C23   O7    A    
C20   H3    S    
C12   C21   S    
Cu1   O5    S    
C11   C24   A    
H6    N2    S    
C20   C21   D    
C7    C9    A    
Cu1   O1    S    
N1    N2    D    
C15   C17   S    
C2    C13   A    
C2    F2    S    
C17   O2    D    
C1    C20   S    
C6    C8    A    
C21   H4    S    
C6    F4    S    
Cu1   Cu2   S    
C3    C23   S    
Cu1   O6    S    
C10   C13   A    
C7    C14   A    
C1    O1    A    
C12   O5    A    
C3    C5    A    
Cu1   O9    S    
