data_mof_unit_61125.cif
_audit_creation_date              2012-12-10T18:23:19-0500
_audit_creation_method            fapswitch 2.2
_symmetry_space_group_name_H-M    P1
_symmetry_Int_Tables_number       1
_space_group_crystal_system       triclinic
_cell_length_a                    21.543483
_cell_length_b                    21.499526
_cell_length_c                    21.99518
_cell_angle_alpha                 60.950381
_cell_angle_beta                  119.827796
_cell_angle_gamma                 90.561931
_cell_volume                      7356.72649351

loop_
_atom_site_label
_atom_site_type_symbol
_atom_type_description
_atom_site_fract_x
_atom_site_fract_y
_atom_site_fract_z
_atom_type_partial_charge
C1    C     C_R   0.621416 0.499732 0.500360 0.833157
C2    C     C_3   0.816609 0.413791 0.564190 -0.109967
C3    C     C_3   0.665209 0.534929 0.403569 0.214656
C4    C     C_R   0.419314 0.580906 0.337557 0.883737
C5    C     C_3   0.732592 0.544927 0.532915 -0.486899
C6    C     C_3   0.688186 0.499142 0.497784 -0.006657
C7    C     C_3   0.811003 0.495585 0.501713 0.038420
C8    C     C_3   0.740857 0.524220 0.411245 -0.420125
C9    C     C_3   0.800685 0.548362 0.527101 -0.437532
C10   C     C_3   0.718608 0.197862 0.026879 -0.166231
C11   C     C_3   0.679863 0.283187 0.972107 -0.164945
C12   C     C_3   0.294675 0.706480 0.082342 0.183833
C13   C     C_1   0.625666 0.375075 0.751602 -0.188138
C14   C     C_1   0.873871 0.125688 0.248476 -0.193531
C15   C     C_3   0.746425 0.207504 0.970989 -0.158882
C16   C     C_R   0.377439 0.500913 0.497566 0.823769
C17   C     C_3   0.708493 0.292019 0.917833 0.206464
C18   C     C_3   0.819190 0.218094 0.027978 -0.162078
C19   C     C_3   0.790573 0.209260 0.082261 0.207075
C20   C     C_3   0.780460 0.303409 0.973221 -0.166148
C21   C     C_3   0.752643 0.293770 0.029116 -0.163817
C22   C     C_1   0.663118 0.337663 0.826787 -0.078587
C23   C     C_3   0.185432 0.736589 0.971719 -0.190214
C24   C     C_1   0.836136 0.163449 0.173299 -0.080617
C25   C     C_3   0.252317 0.481863 0.434348 -0.389075
C26   C     C_3   0.182305 0.478354 0.437232 -0.403205
C27   C     C_3   0.331041 0.439464 0.586919 -0.411247
C28   C     C_R   0.581231 0.419052 0.662467 0.908247
C29   C     C_3   0.270977 0.577073 0.472487 -0.379626
C30   C     C_3   0.309296 0.500043 0.497569 0.169831
C31   C     C_3   0.189731 0.497185 0.499825 0.144420
C32   C     C_3   0.260641 0.438487 0.588692 -0.381456
C33   C     C_3   0.199456 0.575764 0.471565 -0.363908
C34   C     C_3   0.211365 0.789538 0.917604 0.170743
C35   C     C_R   0.997568 0.880670 0.496201 0.837276
C36   C     C_R   0.081332 0.918684 0.662381 0.903682
C37   C     C_R   0.001149 0.120475 0.501539 0.825052
C38   C     C_R   0.918689 0.081031 0.337595 0.900200
C39   C     C_R   0.998057 0.378532 0.499603 0.815700
C40   C     C_3   0.286462 0.729386 0.971653 0.152541
C41   C     C_R   0.878468 0.497440 0.500199 0.868058
C42   C     C_R   0.006467 0.620915 0.500875 0.929675
C43   C     C_R   0.121700 0.497517 0.500138 0.848386
C44   C     C_3   0.016306 0.819129 0.435098 -0.461578
C45   C     C_3   0.219338 0.766681 0.028869 -0.143792
C46   C     C_3   0.008739 0.751970 0.427518 0.215970
C47   C     C_3   0.063089 0.746091 0.589308 -0.129934
C48   C     C_3   0.921883 0.793024 0.475644 -0.039701
C49   C     C_3   0.998227 0.811359 0.498436 0.014602
C50   C     C_3   0.008295 0.688293 0.502862 0.028808
C51   C     C_3   0.074483 0.673633 0.590606 -0.060135
C52   C     C_3   0.320928 0.759378 0.028512 -0.192575
C53   C     C_3   0.932609 0.715186 0.488976 -0.560814
C54   C     C_3   0.076676 0.206371 0.520591 -0.372989
C55   C     C_3   0.075579 0.277143 0.521894 -0.414117
C56   C     C_3   0.244626 0.820290 0.973359 -0.186176
C57   C     C_3   0.936191 0.254927 0.413528 -0.410152
C58   C     C_3   0.989277 0.179634 0.568769 -0.382404
C59   C     C_3   0.001214 0.188792 0.501270 0.175061
C60   C     C_3   0.998257 0.310523 0.499290 0.189050
C61   C     C_3   0.935779 0.327415 0.411417 -0.377117
C62   C     C_3   0.984864 0.252472 0.565508 -0.418490
C63   C     C_1   0.376239 0.624597 0.248489 -0.192371
C64   C     C_1   0.126400 0.873775 0.751443 -0.192249
C65   C     C_3   0.261510 0.675368 0.026869 -0.192826
C66   C     C_3   0.611466 0.497503 0.360743 -0.340173
C67   C     C_1   0.339712 0.661433 0.173345 -0.076946
C68   C     C_3   0.613581 0.496666 0.291818 -0.389191
C69   C     C_3   0.540126 0.490724 0.232311 -0.887794
C70   C     C_3   0.621996 0.621573 0.348351 -0.404419
C71   C     C_3   0.584526 0.664028 0.252569 -0.370335
C72   C     C_3   0.548191 0.746981 0.208968 -0.905196
C73   C     C_3   0.322886 0.709991 0.936146 -0.437308
C74   C     C_3   0.397188 0.646648 0.006750 -0.348458
C75   C     C_3   0.433820 0.627868 0.971162 -0.878906
C76   C     C_3   0.157451 0.647308 0.620169 -0.442793
C77   C     C_3   0.187351 0.564849 0.655954 -0.297092
C78   C     C_1   0.164817 0.835751 0.826575 -0.088372
C79   C     C_3   0.272999 0.539005 0.704729 -0.942379
C80   C     C_3   0.853825 0.853582 0.385032 -0.388300
C81   C     C_3   0.778471 0.848041 0.374940 -0.355371
C82   C     C_3   0.712354 0.905942 0.285119 -0.885175
C83   C     C_3   0.051915 0.731956 0.659351 -0.441638
C84   C     C_3   0.125584 0.686722 0.747556 -0.367004
C85   C     C_3   0.113156 0.673235 0.814971 -0.880528
C86   C     C_3   0.887549 0.370009 0.657710 -0.380718
C87   C     C_3   0.943723 0.308933 0.676655 -0.332909
C88   C     C_3   0.017405 0.275529 0.762563 -0.865264
C89   C     C_3   0.744411 0.416617 0.562921 0.185725
Cl1   Cl    Cl    0.077017 0.725967 0.413504 -0.726190
Cl2   Cl    Cl    0.713245 0.339448 0.559597 -0.666806
H1    H     H_    0.377268 0.767595 0.053319 0.133908
H2    H     H_    0.694093 0.153772 0.050514 0.133045
H3    H     H_    0.872394 0.340107 0.703658 0.201994
H4    H     H_    0.756007 0.328298 0.054583 0.130504
H5    H     H_    0.804997 0.347481 0.949609 0.131301
H6    H     H_    0.877099 0.190585 0.052498 0.136343
H7    H     H_    0.743074 0.172964 0.945540 0.139388
H8    H     H_    0.278131 0.427246 0.449901 0.184883
H9    H     H_    0.235536 0.525418 0.369482 0.156768
H10   H     H_    0.131492 0.518570 0.372843 0.185201
H11   H     H_    0.176012 0.421529 0.456967 0.151040
H12   H     H_    0.357646 0.383518 0.605789 0.175902
H13   H     H_    0.817251 0.381640 0.537067 0.169810
H14   H     H_    0.236736 0.880335 0.949951 0.137973
H15   H     H_    0.254051 0.381646 0.610141 0.166473
H16   H     H_    0.309791 0.590784 0.518097 0.188898
H17   H     H_    0.256616 0.621893 0.409110 0.176021
H18   H     H_    0.150192 0.617974 0.406806 0.227273
H19   H     H_    0.203168 0.591563 0.514131 0.197210
H20   H     H_    0.372706 0.450902 0.633461 0.159960
H21   H     H_    0.268076 0.450746 0.634999 0.187009
H22   H     H_    0.074501 0.822447 0.457126 0.226699
H23   H     H_    0.977993 0.871553 0.371899 0.155893
H24   H     H_    0.748590 0.483472 0.396643 0.150587
H25   H     H_    0.953997 0.769766 0.367978 0.147355
H26   H     H_    0.192502 0.781208 0.054136 0.136496
H27   H     H_    0.114345 0.764569 0.603027 0.166244
H28   H     H_    0.908984 0.789533 0.520108 0.167184
H29   H     H_    0.884656 0.716483 0.434501 0.188162
H30   H     H_    0.932027 0.674278 0.544592 0.162130
H31   H     H_    0.068699 0.628603 0.639836 0.168261
H32   H     H_    0.085826 0.215078 0.471815 0.180614
H33   H     H_    0.129178 0.728203 0.946909 0.141408
H34   H     H_    0.124526 0.158593 0.582589 0.165692
H35   H     H_    0.697345 0.602418 0.500174 0.200143
H36   H     H_    0.121083 0.262964 0.585539 0.173027
H37   H     H_    0.087006 0.318699 0.476152 0.150550
H38   H     H_    0.942787 0.261138 0.363942 0.155989
H39   H     H_    0.945057 0.367471 0.362814 0.179852
H40   H     H_    0.936396 0.165632 0.558043 0.190917
H41   H     H_    0.036444 0.133044 0.632475 0.154043
H42   H     H_    0.027735 0.239855 0.629221 0.186694
H43   H     H_    0.928557 0.275248 0.548771 0.149903
H44   H     H_    0.881310 0.244514 0.399160 0.180265
H45   H     H_    0.269378 0.615348 0.050140 0.129631
H46   H     H_    0.752482 0.518165 0.599936 0.174474
H47   H     H_    0.879753 0.353522 0.392883 0.160417
H48   H     H_    0.757413 0.402173 0.624769 0.113643
H49   H     H_    0.529387 0.439042 0.268058 0.274119
H50   H     H_    0.492489 0.539926 0.199264 0.251793
H51   H     H_    0.543769 0.488729 0.184652 0.252016
H52   H     H_    0.624534 0.546730 0.254273 0.220688
H53   H     H_    0.659633 0.447250 0.321884 0.225264
H54   H     H_    0.622348 0.438981 0.406883 0.261702
H55   H     H_    0.552919 0.524957 0.334922 0.195679
H56   H     H_    0.504269 0.754509 0.219554 0.267549
H57   H     H_    0.851525 0.533332 0.588348 0.176344
H58   H     H_    0.591159 0.772736 0.233272 0.264690
H59   H     H_    0.521415 0.776084 0.140172 0.247398
H60   H     H_    0.626757 0.659130 0.238988 0.218393
H61   H     H_    0.539415 0.641884 0.224569 0.238094
H62   H     H_    0.577126 0.629591 0.357420 0.204756
H63   H     H_    0.661158 0.651284 0.369844 0.208134
H64   H     H_    0.396221 0.609529 0.930258 0.259047
H65   H     H_    0.445982 0.677419 0.933981 0.261413
H66   H     H_    0.487481 0.581896 0.023609 0.246729
H67   H     H_    0.436500 0.663344 0.048719 0.222374
H68   H     H_    0.792199 0.606657 0.479558 0.168035
H69   H     H_    0.386788 0.595873 0.044723 0.222758
H70   H     H_    0.283423 0.692983 0.894694 0.204690
H71   H     H_    0.332992 0.760693 0.897650 0.205872
H72   H     H_    0.291216 0.569659 0.661938 0.267978
H73   H     H_    0.299049 0.548417 0.756394 0.263853
H74   H     H_    0.293251 0.478270 0.733468 0.247815
H75   H     H_    0.170878 0.529509 0.699151 0.223841
H76   H     H_    0.163748 0.557412 0.603442 0.256490
H77   H     H_    0.166623 0.683228 0.570522 0.259082
H78   H     H_    0.194150 0.654446 0.672507 0.198955
H79   H     H_    0.740217 0.577826 0.363834 0.185784
H80   H     H_    0.714765 0.963264 0.268383 0.264131
H81   H     H_    0.713284 0.896668 0.240061 0.259238
H82   H     H_    0.658814 0.900885 0.279883 0.248475
H83   H     H_    0.773568 0.791550 0.390402 0.217469
H84   H     H_    0.775207 0.857577 0.418769 0.220434
H85   H     H_    0.856616 0.910442 0.369839 0.213266
H86   H     H_    0.854927 0.848297 0.337780 0.200734
H87   H     H_    0.089296 0.727146 0.801935 0.268106
H88   H     H_    0.074084 0.639358 0.816736 0.257380
H89   H     H_    0.167582 0.642508 0.877581 0.246750
H90   H     H_    0.621949 0.310698 0.947570 0.131287
H91   H     H_    0.148914 0.631688 0.762378 0.224134
H92   H     H_    0.167500 0.717658 0.749766 0.217625
H93   H     H_    0.030759 0.785816 0.648120 0.222831
H94   H     H_    0.009435 0.702013 0.658492 0.203512
H95   H     H_    0.044705 0.319295 0.764259 0.256669
H96   H     H_    0.007037 0.250736 0.812979 0.256368
H97   H     H_    0.056040 0.231005 0.774468 0.240467
H98   H     H_    0.918681 0.263760 0.675350 0.227325
H99   H     H_    0.955836 0.331941 0.628045 0.243570
H100  H     H_    0.915242 0.408373 0.673910 0.219928
O1    O     O_R   0.592630 0.447740 0.499990 -0.571524
O2    O     O_R   0.965300 0.442140 0.430470 -0.633390
O3    O     O_R   0.942170 0.465260 0.569550 -0.623823
O4    O     O_R   0.592590 0.552250 0.500040 -0.641681
O5    O     O_R   0.872610 0.534760 0.430420 -0.636642
O6    O     O_R   0.034700 0.557860 0.569530 -0.655688
O7    O     O_R   0.965140 0.627350 0.430400 -0.603394
O8    O     O_R   0.127390 0.465250 0.569580 -0.646783
O9    O     O_R   0.057830 0.534740 0.430450 -0.607551
O10   O     O_R   0.438420 0.509360 0.376750 -0.621302
O11   O     O_R   0.438370 0.613870 0.376810 -0.618200
O12   O     O_R   0.947670 0.907410 0.499960 -0.641135
O13   O     O_R   0.407410 0.447750 0.499960 -0.631776
O14   O     O_R   0.407370 0.552260 0.500010 -0.629575
O15   O     O_R   0.561630 0.386130 0.623190 -0.596119
O16   O     O_R   0.561580 0.490640 0.623250 -0.620238
O17   O     O_R   0.052240 0.907300 0.499970 -0.626053
O18   O     O_R   0.113890 0.938270 0.623230 -0.617214
O19   O     O_R   0.009320 0.938380 0.623210 -0.618515
O20   O     O_R   0.052330 0.092440 0.500040 -0.631198
O21   O     O_R   0.947760 0.092550 0.500030 -0.627005
O22   O     O_R   0.990680 0.061470 0.376790 -0.612767
O23   O     O_R   0.886110 0.061580 0.376770 -0.618604
O24   O     O_R   0.034860 0.372650 0.569600 -0.636726
Zn1   Zn    Zn3+2 0.500030 0.430220 0.499960 0.993722
Zn2   Zn    Zn3+2 0.499970 0.569780 0.500040 0.937814
Zn3   Zn    Zn3+2 0.069820 0.999850 0.500010 0.941638
Zn4   Zn    Zn3+2 0.930180 1.000000 0.499990 0.935869
Zn5   Zn    Zn3+2 0.046440 0.453600 0.592900 0.898206
Zn6   Zn    Zn3+2 0.953560 0.546400 0.407100 0.946881

loop_
_geom_bond_atom_site_label_1
_geom_bond_atom_site_label_2
_ccdc_geom_bond_type
C44   C49   S    
C58   C62   S    
C15   C18   S    
C66   C68   S    
C87   C88   S    
C34   C56   S    
C23   C45   S    
C70   H62   S    
C28   O15   A    
C73   C74   S    
C16   O13   A    
C2    C7    S    
C11   H90   S    
C79   H73   S    
C54   H32   S    
C3    C6    S    
C35   O12   A    
C81   C82   S    
C53   H29   S    
C7    C8    S    
C47   C49   S    
C12   C67   S    
C39   O2    A    
C4    C63   S    
O14   Zn2   S    
C86   H100  S    
C29   C30   S    
C31   C43   S    
C34   C40   S    
O18   Zn3   S    
C81   H84   S    
C62   H42   S    
C57   H38   S    
C1    O4    A    
C41   O5    A    
O23   Zn4   S    
C26   H10   S    
C5    C6    S    
C61   H47   S    
C57   C59   S    
C9    H68   S    
C16   C30   S    
C29   C33   S    
C17   C20   S    
C40   C73   S    
C68   H52   S    
C60   C62   S    
C18   C19   S    
C14   C24   T    
C37   O20   A    
C66   H54   S    
C73   H70   S    
C86   H3    S    
C8    H24   S    
C82   H80   S    
C75   H65   S    
C25   H8    S    
C88   H96   S    
C71   H60   S    
C31   C32   S    
C45   C56   S    
C44   C46   S    
C68   C69   S    
C89   H48   S    
C5    H35   S    
C35   C49   S    
C39   O24   A    
C31   C33   S    
C29   H17   S    
C68   H53   S    
C70   C71   S    
C18   H6    S    
C47   C83   S    
O2    Zn6   S    
C89   Cl2   S    
O6    Zn5   S    
C58   H40   S    
O5    Zn6   S    
C36   O18   A    
C87   H98   S    
C75   H66   S    
C69   H49   S    
C88   H95   S    
C20   H5    S    
C27   H20   S    
C26   C31   S    
C32   H15   S    
C55   C60   S    
C27   C30   S    
C88   H97   S    
C38   O23   A    
C12   C52   S    
C8    H79   S    
C48   H28   S    
C63   C67   T    
C54   C59   S    
C77   C79   S    
O17   Zn3   S    
C48   C53   S    
C54   H34   S    
C82   H81   S    
O16   Zn2   S    
C50   C53   S    
C74   C75   S    
C74   H67   S    
C1    C6    S    
C42   O7    A    
O7    Zn6   S    
C84   C85   S    
C80   H85   S    
C3    C8    S    
C26   H11   S    
C58   H41   S    
C86   C87   S    
C85   H87   S    
C47   C51   S    
C21   H4    S    
C10   H2    S    
C77   H75   S    
C40   C52   S    
C48   C80   S    
C11   C21   S    
C79   H74   S    
O19   Zn4   S    
C60   C61   S    
C47   H27   S    
C2    C89   S    
O10   Zn1   S    
C5    C9    S    
C41   O3    A    
C75   H64   S    
C14   C38   S    
C25   H9    S    
C4    O11   A    
C83   C84   S    
C84   H92   S    
C82   H82   S    
C2    H13   S    
C10   C19   S    
C85   H88   S    
C23   C34   S    
C51   H31   S    
C3    C70   S    
C50   C51   S    
C13   C28   S    
C25   C26   S    
C51   C76   S    
C57   C61   S    
C37   C59   S    
C76   H77   S    
C61   H39   S    
C42   C50   S    
C87   H99   S    
C46   Cl1   S    
C48   C49   S    
C55   H36   S    
C44   H22   S    
C16   O14   A    
C72   H59   S    
C40   C65   S    
C58   C59   S    
C3    C66   S    
C33   H18   S    
O9    Zn6   S    
C15   H7    S    
C6    C89   S    
O4    Zn2   S    
O11   Zn2   S    
C45   H26   S    
C25   C30   S    
C15   C17   S    
O20   Zn3   S    
O13   Zn1   S    
C54   C55   S    
C11   C17   S    
C32   H21   S    
C19   C21   S    
C27   C32   S    
C70   H63   S    
C64   C78   T    
C42   O6    A    
C29   H16   S    
O8    Zn5   S    
C79   H72   S    
C80   C81   S    
O3    Zn5   S    
O22   Zn3   S    
C5    H46   S    
C23   H33   S    
C12   C45   S    
O21   Zn4   S    
O12   Zn4   S    
C77   H76   S    
C72   H56   S    
C12   C65   S    
C46   C50   S    
C9    H57   S    
C17   C22   S    
C46   H25   S    
C10   C15   S    
O15   Zn1   S    
C80   H86   S    
C23   C65   S    
C73   H71   S    
C84   H91   S    
C19   C24   S    
C69   H51   S    
C37   O21   A    
C74   H69   S    
C53   H30   S    
O24   Zn5   S    
C81   H83   S    
C83   H94   S    
C76   C77   S    
C62   H43   S    
C4    O10   A    
C43   O9    A    
C85   H89   S    
C39   C60   S    
C27   H12   S    
C13   C22   T    
C2    C86   S    
C18   C20   S    
C7    C41   S    
C76   H78   S    
C28   O16   A    
C56   H14   S    
C66   H55   S    
C65   H45   S    
C52   H1    S    
C10   C11   S    
C44   H23   S    
C1    O1    A    
C7    C9    S    
C35   O17   A    
C71   C72   S    
C55   H37   S    
C20   C21   S    
C72   H58   S    
C71   H61   S    
C57   H44   S    
C43   O8    A    
C33   H19   S    
C38   O22   A    
C36   C64   S    
C69   H50   S    
C83   H93   S    
O1    Zn1   S    
C34   C78   S    
C52   C56   S    
C36   O19   A    
