data_mof_unit_32307.cif
_audit_creation_date              2012-12-11T19:05:43-0500
_audit_creation_method            fapswitch 2.2
_symmetry_space_group_name_H-M    P1
_symmetry_Int_Tables_number       1
_space_group_crystal_system       triclinic
_cell_length_a                    8.214167
_cell_length_b                    15.028116
_cell_length_c                    22.854284
_cell_angle_alpha                 98.319644
_cell_angle_beta                  89.3781
_cell_angle_gamma                 98.66393
_cell_volume                      2759.49503094

loop_
_atom_site_label
_atom_site_type_symbol
_atom_type_description
_atom_site_fract_x
_atom_site_fract_y
_atom_site_fract_z
_atom_type_partial_charge
Ba1   Ba    Ba6+2 0.856840 0.543240 0.473380 1.665803
Ba2   Ba    Ba6+2 0.332990 0.456840 0.526630 1.665918
C1    C     C_3   0.680625 0.876050 0.329052 0.214742
C2    C     C_R   0.106328 0.570554 0.940925 -0.021872
C3    C     C_R   0.058416 0.565984 0.880878 0.592733
C4    C     C_3   0.136598 0.734017 0.318024 0.353225
C5    C     C_R   0.973055 0.405124 0.874577 0.593127
C6    C     C_R   0.014731 0.408147 0.934853 -0.036320
C7    C     C_R   0.082271 0.491129 0.968209 -0.054068
C8    C     C_R   0.177092 0.652961 0.974482 -0.073473
C9    C     C_R   0.223278 0.656432 0.033562 -0.063654
C10   C     C_R   0.198485 0.577844 0.061523 -0.014242
C11   C     C_R   0.126639 0.494707 0.028900 -0.087587
C12   C     C_3   0.663205 0.782587 0.348830 0.538990
C13   C     C_R   0.990513 0.329358 0.962296 -0.104949
C14   C     C_R   0.031329 0.331986 0.022116 0.149126
C15   C     C_R   0.100628 0.415302 0.056518 -0.018411
C16   C     C_3   0.115433 0.757544 0.256206 0.259378
C17   C     C_R   0.145523 0.421824 0.117362 0.609159
C18   C     C_R   0.244440 0.581184 0.121351 0.576055
C19   C     C_2   0.793098 0.432502 0.766083 -0.092941
C20   C     C_3   0.759797 0.407470 0.700356 -0.065352
C21   C     C_1   0.006345 0.516103 0.685325 0.036239
C22   C     C_2   0.054402 0.521128 0.741563 -0.079667
C23   C     C_3   0.475689 0.323140 0.345291 0.287758
C24   C     C_2   0.941350 0.479064 0.785991 0.209556
C25   C     C_R   0.416928 0.550333 0.233105 -0.109026
C26   C     C_R   0.458450 0.558164 0.293174 -0.011082
C27   C     C_R   0.188343 0.480928 0.313844 0.035794
C28   C     C_3   0.232561 0.737557 0.604794 0.358997
C29   C     C_R   0.144076 0.474121 0.253474 -0.101948
C30   C     C_R   0.257679 0.510026 0.212224 0.193616
C31   C     C_2   0.865839 0.468286 0.663746 -0.279635
C32   C     C_R   0.341755 0.825094 0.463327 -0.006599
C33   C     C_R   0.577276 0.790426 0.512909 0.042159
C34   C     C_3   0.458207 0.297691 0.278564 -0.355349
C35   C     C_R   0.761529 0.229714 0.516543 -0.307352
C36   C     C_R   0.844940 0.172925 0.543627 0.078418
C37   C     C_R   0.774083 0.082597 0.545657 0.326018
C38   C     C_R   0.630035 0.043648 0.510357 -0.020824
C39   C     C_R   0.549468 0.103374 0.481383 -0.049416
C40   C     C_3   0.257723 0.840601 0.623217 0.218271
C41   C     C_R   0.564901 0.948322 0.500999 0.004092
C42   C     C_R   0.411168 0.917988 0.470387 -0.027661
C43   C     C_R   0.332628 0.980128 0.445794 -0.075406
C44   C     C_R   0.403557 0.069680 0.449077 -0.029846
C45   C     C_3   0.983177 0.218866 0.681863 0.321309
C46   C     C_R   0.648972 0.881294 0.519000 -0.161813
C47   C     C_R   0.427268 0.762226 0.483711 -0.280555
C48   C     C_R   0.615844 0.196230 0.485463 0.030370
C49   C     C_3   0.976531 0.259132 0.395155 0.335240
C50   C     C_3   0.987723 0.158664 0.376228 0.151917
C51   C     C_3   0.711878 0.658139 0.651090 0.312613
C52   C     C_3   0.725090 0.680882 0.718067 -0.343540
C53   C     C_3   0.009398 0.182466 0.739140 -0.307043
C54   C     C_3   0.484386 0.216785 0.658795 0.436534
C55   C     C_3   0.449284 0.129675 0.686316 -0.325885
C56   C     C_R   0.343521 0.525305 0.333056 -0.294457
H1    H     H_    0.736593 0.788213 0.390136 0.061840
H2    H     H_    0.829292 0.736464 0.730665 0.155342
H3    H     H_    0.746350 0.620184 0.737607 0.065136
H4    H     H_    0.609028 0.702755 0.736119 0.128284
H5    H     H_    0.530960 0.761590 0.358055 -0.255739
H6    H     H_    0.631542 0.924280 0.363928 0.009260
H7    H     H_    0.356268 0.340162 0.363027 0.012792
H8    H     H_    0.572534 0.383568 0.354929 0.059295
H9    H     H_    0.359640 0.238439 0.267620 0.141060
H10   H     H_    0.425578 0.355694 0.258536 0.072176
H11   H     H_    0.576257 0.280087 0.259567 0.132991
H12   H     H_    0.337864 0.858495 0.663312 0.093857
H13   H     H_    0.608015 0.871268 0.287594 0.062191
H14   H     H_    0.991700 0.294000 0.691082 0.014903
H15   H     H_    0.858800 0.187447 0.665103 -0.003758
H16   H     H_    0.124441 0.219356 0.761578 0.147834
H17   H     H_    0.903256 0.191218 0.768683 0.127180
H18   H     H_    0.017870 0.108692 0.729808 0.132380
H19   H     H_    0.618330 0.228840 0.649968 -0.173829
H20   H     H_    0.418013 0.206794 0.615757 0.082445
H21   H     H_    0.487988 0.072486 0.655666 0.052416
H22   H     H_    0.315907 0.113080 0.694922 0.156370
H23   H     H_    0.321225 0.875666 0.587890 -0.050542
H24   H     H_    0.044716 0.673668 0.322975 0.040416
H25   H     H_    0.518961 0.137789 0.728605 0.106683
H26   H     H_    0.938342 0.264572 0.937386 0.120859
H27   H     H_    0.277884 0.721448 0.057486 0.133015
H28   H     H_    0.508875 0.575192 0.202701 0.115213
H29   H     H_    0.197769 0.715276 0.955069 0.126567
H30   H     H_    0.177193 0.554439 0.755475 0.123224
H31   H     H_    0.706050 0.402430 0.796402 0.110440
H32   H     H_    0.022561 0.440562 0.238713 0.123965
H33   H     H_    0.378068 0.530544 0.379117 0.082758
H34   H     H_    0.848263 0.267066 0.406492 -0.012206
H35   H     H_    0.262255 0.716879 0.322760 -0.066433
H36   H     H_    0.838043 0.458954 0.616755 0.077418
H37   H     H_    0.373374 0.691288 0.479288 0.073202
H38   H     H_    0.217709 0.960122 0.421623 0.126106
H39   H     H_    0.772125 0.896350 0.536702 0.161353
H40   H     H_    0.814884 0.300254 0.517237 0.055935
H41   H     H_    0.339331 0.112094 0.426184 0.110729
H42   H     H_    0.110292 0.695169 0.223338 0.028983
H43   H     H_    0.996721 0.783216 0.252846 0.162745
H44   H     H_    0.353296 0.715950 0.594235 -0.080019
H45   H     H_    0.058103 0.285065 0.434133 0.072274
H46   H     H_    0.150422 0.719835 0.565222 0.028382
H47   H     H_    0.053810 0.873612 0.597624 0.327910
H48   H     H_    0.965822 0.046321 0.408993 0.332205
H49   H     H_    0.848851 0.964588 0.302406 0.303790
H50   H     H_    0.342910 0.794462 0.236453 0.322917
H51   H     H_    0.876133 0.223405 0.042498 0.179185
H52   H     H_    0.067221 0.202042 0.022979 0.181173
H53   H     H_    0.746195 0.009742 0.608067 0.282967
H54   H     H_    0.899214 0.131164 0.339187 0.066263
H55   H     H_    0.114789 0.151720 0.360714 0.067736
H56   H     H_    0.829964 0.639434 0.633758 0.010998
H57   H     H_    0.612246 0.599654 0.639905 0.070971
N1    N     N_R   0.991862 0.483725 0.848044 -0.422644
N2    N     N_R   0.213762 0.504401 0.149526 -0.430890
N3    N     N_3   0.001601 0.249087 0.047278 -0.427453
O1    O     O_2   0.889550 0.449620 0.359410 -0.457221
O2    O     O_2   0.179875 0.175488 0.530852 -0.445810
O3    O     O_3   0.104696 0.195024 0.641648 -0.566682
O4    O     O_3   0.130120 0.450560 0.430480 -0.497873
O5    O     O_3   0.576410 0.610420 0.531990 -0.491119
O6    O     O_2   0.341630 0.276020 0.466390 -0.472032
O7    O     O_3   0.519049 0.249188 0.369444 -0.640795
O8    O     O_2   0.445585 0.466955 0.708297 -0.485486
O9    O     O_3   0.431968 0.289280 0.696966 -0.578956
O10   O     O_2   0.074066 0.635566 0.858229 -0.592800
O11   O     O_2   0.921193 0.331814 0.845531 -0.625342
O12   O     O_3   0.677429 0.734540 0.627779 -0.622947
O13   O     O_2   0.126782 0.353622 0.141437 -0.560271
O14   O     O_2   0.312087 0.653056 0.148347 -0.612643
O15   O     O_3   0.674100 0.616440 0.398760 -0.484650
O16   O     O_2   0.797469 0.556006 0.294286 -0.507770
O17   O     O_3   0.022225 0.304378 0.346929 -0.667406
O18   O     O_3   0.720819 0.720451 0.304263 -0.617964
O19   O     O_2   0.848070 0.724010 0.533650 -0.464772
O20   O     O_3   0.092910 0.663610 0.428710 -0.497250
O21   O     O_2   0.002027 0.824441 0.467739 -0.489820
O22   O     O_3   0.106336 0.870997 0.636134 -0.681245
O23   O     O_3   0.109871 0.808230 0.359857 -0.562210
O24   O     O_3   0.950713 0.109971 0.423535 -0.766773
O25   O     O_3   0.846657 0.907500 0.319611 -0.703728
O26   O     O_3   0.243637 0.824649 0.243695 -0.685715
O27   O     O_3   0.840066 0.038664 0.586300 -0.737178
O28   O     O_2   0.300150 0.550410 0.640630 -0.461789
O29   O     O_3   0.059590 0.549510 0.569530 -0.498599
O30   O     O_3   0.515610 0.383640 0.601250 -0.479021
O31   O     O_3   0.164436 0.695890 0.652071 -0.616611
O32   O     O_3   0.613300 0.389650 0.468010 -0.478328
O33   O     O_3   0.096810 0.336470 0.571300 -0.492105
P1    P     P_3+3 0.056010 0.422560 0.367570 0.984128
P2    P     P_3+3 0.670430 0.710550 0.550450 0.991556
P3    P     P_3+3 0.135991 0.781105 0.430710 0.957863
P4    P     P_3+3 0.133710 0.577520 0.632440 0.998669
P5    P     P_3+3 0.054397 0.219076 0.572099 1.041877
P6    P     P_3+3 0.663394 0.610611 0.321890 0.947851
P7    P     P_3+3 0.525432 0.276178 0.446558 0.945044
P8    P     P_3+3 0.537982 0.390720 0.677821 0.968121

loop_
_geom_bond_atom_site_label_1
_geom_bond_atom_site_label_2
_ccdc_geom_bond_type
Ba2   O32   S    
C44   H41   S    
Ba2   P4    S    
C4    H24   S    
O3    P5    S    
C21   P4    S    
C55   H21   S    
C36   P5    S    
C30   N2    S    
C19   C24   D    
C31   H36   S    
H52   N3    S    
C34   H9    S    
C5    C6    A    
C52   H2    S    
C51   C52   S    
C48   P7    S    
C12   H1    S    
C27   C56   A    
C4    H35   S    
C22   C24   S    
H53   O27   S    
C36   C37   A    
O23   P3    S    
C45   O3    S    
C20   P8    S    
C50   H54   S    
C49   H45   S    
C13   C14   A    
C40   H12   S    
C54   H20   S    
C54   C55   S    
Ba1   P1    S    
Ba1   Ba2   S    
Ba1   O1    S    
C54   O9    S    
C23   O7    S    
Ba1   O4    S    
C35   H40   S    
C7    C11   A    
C53   H16   S    
C49   O17   S    
C38   C41   A    
O28   P4    D    
C6    C7    A    
C21   C31   D    
O6    P7    D    
C33   C47   A    
C21   C22   D    
C55   H25   S    
O29   P4    S    
C41   C46   A    
C53   H17   S    
O20   P3    S    
C32   P3    S    
C19   C20   S    
C56   H33   S    
C55   H22   S    
C37   O27   S    
C40   H23   S    
C16   H42   S    
C18   O14   D    
Ba1   O15   S    
C33   C46   A    
C18   N2    Am   
H51   N3    S    
H48   O24   S    
Ba2   O4    S    
C17   O13   D    
C4    C16   S    
C8    H29   S    
C40   O22   S    
C49   C50   S    
C1    O25   S    
C45   H15   S    
C37   C38   A    
O7    P7    S    
C14   C15   A    
C28   O31   S    
C19   H31   S    
C52   H4    S    
O21   P3    D    
Ba2   O29   S    
O8    P8    D    
C50   O24   S    
C54   H19   S    
C16   H43   S    
O4    P1    S    
C5    N1    Am   
C25   H28   S    
C1    H13   S    
C41   C42   A    
Ba1   O5    S    
C35   C36   A    
C46   H39   S    
C14   N3    S    
C49   H34   S    
C29   C30   A    
O2    P5    D    
C39   C44   A    
C29   H32   S    
C10   C18   A    
C32   C42   A    
Ba1   O32   S    
O33   P5    S    
C47   H37   S    
C4    O23   S    
Ba1   P2    S    
C22   H30   S    
C1    C12   S    
C28   H44   S    
O18   P6    S    
C38   C39   A    
C6    C13   A    
Ba2   O6    S    
C3    N1    Am   
Ba1   O29   S    
C53   H18   S    
H49   O25   S    
O9    P8    S    
C39   C48   A    
H50   O26   S    
Ba1   O19   S    
C42   C43   A    
C45   C53   S    
O5    P2    S    
O1    P1    D    
C20   C31   S    
O19   P2    D    
C32   C47   A    
O32   P7    S    
C25   C30   A    
C23   H8    S    
C33   P2    S    
C2    C8    A    
C2    C3    A    
C51   H57   S    
C9    C10   A    
C34   H10   S    
C13   H26   S    
C52   H3    S    
C26   C56   A    
Ba2   O28   S    
C11   C15   A    
C16   O26   S    
O31   P4    S    
C27   C29   A    
Ba2   O33   S    
C27   P1    S    
C35   C48   A    
C12   O18   S    
C9    H27   S    
C50   H55   S    
C12   H5    S    
C3    O10   D    
C26   P6    S    
C15   C17   A    
O12   P2    S    
O15   P6    S    
C1    H6    S    
C34   H11   S    
C24   N1    S    
C45   H14   S    
C5    O11   D    
C8    C9    A    
C23   C34   S    
C43   C44   A    
O16   P6    D    
C10   C11   A    
C17   N2    Am   
C28   H46   S    
C25   C26   A    
C23   H7    S    
C28   C40   S    
C51   H56   S    
C51   O12   S    
C2    C7    A    
C43   H38   S    
Ba2   O30   S    
O30   P8    S    
Ba2   O5    S    
Ba1   O20   S    
O17   P1    S    
H47   O22   S    
