data_mof_unit_18286.cif
_audit_creation_date              2013-03-05T15:40:42-0500
_audit_creation_method            fapswitch 2.2
_symmetry_space_group_name_H-M    P1
_symmetry_Int_Tables_number       1
_space_group_crystal_system       triclinic
_cell_length_a                    7.840787
_cell_length_b                    8.566619
_cell_length_c                    12.466472
_cell_angle_alpha                 92.66184
_cell_angle_beta                  102.546335
_cell_angle_gamma                 93.663653
_cell_volume                      814.129422327

loop_
_atom_site_label
_atom_site_type_symbol
_atom_site_description
_atom_site_fract_x
_atom_site_fract_y
_atom_site_fract_z
_atom_type_partial_charge
O1    O     O_R   0.893060 0.738880 0.507150 -0.580496
O2    O     O_R   0.172250 0.711130 0.488470 -0.641779
C1    C     C_R   0.045516 0.794674 0.501583 0.942057
O3    O     O_R   0.944700 0.520730 0.667600 -0.633296
O4    O     O_R   0.223890 0.492980 0.648920 -0.633459
C2    C     C_R   0.114572 0.536122 0.706768 0.857647
Zn1   Zn    Zn3+2 0.813580 0.518530 0.512470 1.044435
Zn2   Zn    Zn3+2 0.186420 0.481470 0.487530 1.047937
O5    O     O_R   0.827750 0.288870 0.511530 -0.546942
O6    O     O_R   0.106940 0.261120 0.492850 -0.596915
O7    O     O_R   0.776110 0.507020 0.351080 -0.597014
O8    O     O_R   0.055300 0.479270 0.332400 -0.584400
C3    C     C_R   0.958813 0.206374 0.508209 0.929367
C4    C     C_R   0.889601 0.484943 0.291153 0.912267
C5    C     C_R   0.846662 0.407574 0.987188 -0.210647
H1    H     H_    0.725889 0.478001 0.781383 0.191593
H2    H     H_    0.915848 0.355246 0.929847 0.186069
C6    C     C_R   0.826370 0.477104 0.173083 -0.127509
C7    C     C_R   0.083228 0.659873 0.886450 -0.198216
C8    C     C_R   0.148325 0.689907 0.999178 -0.095821
C9    C     C_R   0.317234 0.652354 0.047607 -0.121914
C10   C     C_R   0.430838 0.600659 0.981244 0.093746
C11   C     C_R   0.371655 0.597035 0.866358 0.092176
C12   C     C_R   0.598375 0.546055 0.022751 0.086244
C13   C     C_R   0.695841 0.484925 0.948939 0.093107
C14   C     C_R   0.646278 0.510300 0.838251 -0.221729
C15   C     C_R   0.496039 0.584114 0.801045 -0.145901
C16   C     C_R   0.670468 0.546740 0.134290 -0.244592
C17   C     C_R   0.911964 0.401102 0.099421 0.255845
C18   C     C_R   0.190277 0.600209 0.820568 -0.116051
H3    H     H_    0.608542 0.604306 0.192628 0.178044
H4    H     H_    0.949225 0.681670 0.851145 0.177498
H5    H     H_    0.353708 0.664594 0.136190 0.152695
H6    H     H_    0.063847 0.733239 0.050143 0.162189
H7    H     H_    0.476396 0.627464 0.720386 0.168943
C19   C     C_2   0.063767 0.957895 0.497805 -0.400879
H8    H     H_    0.161395 0.003160 0.454860 0.211196
C20   C     C_2   0.948259 0.047291 0.531398 0.107614
N1    N     N_2   0.434800 0.456690 0.470850 0.028199
N2    N     N_2   0.565200 0.543310 0.529150 -0.161025
H9    H     H_    0.530029 0.648538 0.557229 0.175207
Br1   Br    Br    0.114583 0.285365 0.144753 -0.441905
Br2   Br    Br    0.791009 0.986920 0.625761 -0.447070
N3    N     N_R   0.477297 0.310572 0.437496 0.343756
O9    O     O_R   0.461193 0.192618 0.497403 -0.349013
O10   O     O_R   0.492568 0.284007 0.336634 -0.341260

loop_
_geom_bond_atom_site_label_1
_geom_bond_atom_site_label_2
_geom_bond_distance
_ccdc_geom_bond_type
O4    Zn2   1.965984 S    
Zn1   N2    2.026255 S    
C5    H2    1.084442 S    
N1    N3    1.384167 S    
Zn2   N1    2.026255 S    
C11   C15   1.405982 A    
C17   Br1   1.920836 S    
C4    C6    1.444427 S    
C7    C8    1.392711 A    
Zn2   O8    1.981845 S    
C8    H6    1.082845 S    
C8    C9    1.395378 A    
C19   C20   1.343777 D    
O2    C1    1.294979 A    
C3    C20   1.407200 S    
C20   Br2   1.943371 S    
C6    C17   1.409135 A    
C9    C10   1.417934 A    
C12   C13   1.420169 A    
Zn1   O7    1.965985 S    
C14   C15   1.373944 A    
C1    C19   1.400453 S    
O3    Zn1   1.981844 S    
C7    H4    1.079035 S    
O3    C2    1.311058 A    
C19   H8    1.087355 S    
C2    C18   1.478705 S    
O8    C4    1.294168 A    
C5    C17   1.386520 A    
H1    C14   1.079307 S    
O4    C2    1.294464 A    
O7    C4    1.297285 A    
C10   C12   1.420511 A    
C5    C13   1.396214 A    
C9    H5    1.077270 S    
C11   C18   1.415195 A    
C6    C16   1.395404 A    
N3    O9    1.299808 A    
Zn2   O6    1.958379 S    
N1    N2    1.286211 D    
Zn1   O5    1.977256 S    
O5    C3    1.290651 A    
C10   C11   1.404577 A    
N2    H9    1.027422 S    
C15   H7    1.071185 S    
C13   C14   1.381323 A    
O1    Zn1   1.958378 S    
C7    C18   1.398444 A    
C16   H3    1.076373 S    
O2    Zn2   1.977255 S    
C12   C16   1.382159 A    
N3    O10   1.299795 A    
O1    C1    1.276046 A    
O6    C3    1.280970 A    
