data_mof_unit_13397.cif
_audit_creation_date              2012-12-10T18:53:19-0500
_audit_creation_method            fapswitch 2.2
_symmetry_space_group_name_H-M    P1
_symmetry_Int_Tables_number       1
_space_group_crystal_system       triclinic
_cell_length_a                    27.402832
_cell_length_b                    27.435142
_cell_length_c                    18.166542
_cell_angle_alpha                 90.096585
_cell_angle_beta                  90.013957
_cell_angle_gamma                 89.947775
_cell_volume                      13657.5914627

loop_
_atom_site_label
_atom_site_type_symbol
_atom_type_description
_atom_site_fract_x
_atom_site_fract_y
_atom_site_fract_z
_atom_type_partial_charge
C1    C     C_R   0.066691 0.434154 0.499968 0.849306
C2    C     C_R   0.933538 0.565772 0.500077 0.836440
C3    C     C_R   0.933446 0.434004 0.499994 0.839782
C4    C     C_R   0.066372 0.566196 0.500050 0.841117
C5    C     C_R   0.566034 0.933767 0.499976 0.838598
C6    C     C_R   0.433889 0.066322 0.500122 0.845502
C7    C     C_R   0.434201 0.933316 0.499993 0.841840
C8    C     C_R   0.565934 0.066512 0.500023 0.840027
C9    C     C_R   0.264957 0.698001 0.527522 -0.116341
C10   C     C_R   0.738384 0.297235 0.452765 -0.136099
C11   C     C_R   0.779755 0.255393 0.552518 -0.129917
C12   C     C_R   0.208115 0.757279 0.477658 -0.213640
C13   C     C_R   0.759728 0.724094 0.432679 -0.136905
C14   C     C_R   0.269140 0.305419 0.490880 -0.165770
C15   C     C_R   0.207457 0.243852 0.512771 -0.175995
C16   C     C_R   0.757214 0.721017 0.566003 -0.175246
C17   C     C_R   0.743794 0.219566 0.552041 -0.125777
C18   C     C_R   0.244647 0.792379 0.477956 -0.128727
C19   C     C_R   0.301731 0.733035 0.527062 -0.163004
C20   C     C_R   0.702760 0.261027 0.451645 -0.179678
C21   C     C_R   0.243203 0.207907 0.511492 -0.130985
C22   C     C_R   0.721330 0.757016 0.566451 -0.169561
C23   C     C_R   0.724235 0.760528 0.433178 -0.137971
C24   C     C_R   0.305212 0.269679 0.493512 -0.130521
C25   C     C_R   0.777339 0.294342 0.502735 0.188135
C26   C     C_R   0.218128 0.710055 0.502575 0.190087
C27   C     C_R   0.220261 0.292524 0.501087 0.211140
C28   C     C_R   0.776960 0.704597 0.499142 0.167254
C29   C     C_R   0.291655 0.780413 0.502466 0.178070
C30   C     C_R   0.705437 0.222054 0.501216 0.188077
C31   C     C_R   0.705123 0.777508 0.500107 0.170316
C32   C     C_R   0.292431 0.220572 0.502744 0.196331
C33   C     C_R   0.996931 0.502667 0.078632 0.201684
C34   C     C_R   0.997512 0.501795 0.921132 0.208780
C35   C     C_R   0.501154 0.996012 0.078724 0.203863
C36   C     C_R   0.500663 0.995756 0.921237 0.206483
C37   C     C_R   0.041841 0.491525 0.721550 -0.058886
C38   C     C_R   0.012949 0.541325 0.280326 -0.073370
C39   C     C_R   0.957390 0.508527 0.719523 -0.056919
C40   C     C_R   0.984885 0.459999 0.278575 -0.066444
C41   C     C_R   0.541533 0.987804 0.719928 -0.051936
C42   C     C_R   0.516836 0.039072 0.278066 -0.074256
C43   C     C_R   0.458374 0.010122 0.721209 -0.064682
C44   C     C_R   0.484545 0.959288 0.280676 -0.071983
C45   C     C_R   0.041793 0.488432 0.799483 0.320557
C46   C     C_R   0.012803 0.543879 0.202024 0.317909
C47   C     C_R   0.955804 0.512377 0.797301 0.316325
C48   C     C_R   0.982425 0.459945 0.200480 0.316980
C49   C     C_R   0.542009 0.982130 0.797420 0.320935
C50   C     C_R   0.518763 0.038570 0.199895 0.320190
C51   C     C_R   0.457815 0.011456 0.799333 0.318445
C52   C     C_R   0.483899 0.956393 0.202505 0.317166
C53   C     C_R   0.122497 0.622802 0.434061 -0.300786
C54   C     C_R   0.866494 0.390810 0.564503 -0.313389
C55   C     C_R   0.882379 0.371721 0.436578 -0.306050
C56   C     C_R   0.124431 0.619711 0.567461 -0.290523
C57   C     C_R   0.850857 0.591046 0.538218 -0.303845
C58   C     C_R   0.123648 0.378753 0.433436 -0.294024
C59   C     C_R   0.127554 0.383449 0.566554 -0.301317
C60   C     C_R   0.898993 0.645023 0.461916 -0.289241
C61   C     C_R   0.631430 0.113971 0.438414 -0.314677
C62   C     C_R   0.387003 0.869925 0.566516 -0.306041
C63   C     C_R   0.376084 0.878665 0.434812 -0.284364
C64   C     C_R   0.605310 0.137218 0.560975 -0.283631
C65   C     C_R   0.367788 0.112371 0.562427 -0.317207
C66   C     C_R   0.593194 0.852813 0.457315 -0.287119
C67   C     C_R   0.643851 0.897806 0.542954 -0.306753
C68   C     C_R   0.393908 0.137020 0.440840 -0.291792
C69   C     C_R   0.159588 0.657987 0.434507 0.409886
C70   C     C_R   0.826846 0.358190 0.565655 0.410907
C71   C     C_R   0.843383 0.338160 0.435923 0.433106
C72   C     C_R   0.160912 0.655345 0.568832 0.415210
C73   C     C_R   0.811898 0.624444 0.537864 0.421650
C74   C     C_R   0.160269 0.343056 0.433254 0.422416
C75   C     C_R   0.167057 0.350994 0.566988 0.425604
C76   C     C_R   0.861525 0.679721 0.463366 0.423661
C77   C     C_R   0.664878 0.152952 0.436954 0.423800
C78   C     C_R   0.354004 0.830574 0.567865 0.435195
C79   C     C_R   0.342051 0.840916 0.435199 0.388622
C80   C     C_R   0.637561 0.176679 0.560217 0.415747
C81   C     C_R   0.332053 0.149294 0.563235 0.423935
C82   C     C_R   0.625619 0.813392 0.459809 0.422925
C83   C     C_R   0.678145 0.859599 0.543676 0.422333
C84   C     C_R   0.362612 0.177594 0.443368 0.425413
C85   C     C_R   0.179362 0.673342 0.502035 -0.086540
C86   C     C_R   0.816522 0.331117 0.501408 -0.077850
C87   C     C_R   0.817155 0.668727 0.499267 -0.087848
C88   C     C_R   0.182219 0.329841 0.500296 -0.095060
C89   C     C_R   0.668560 0.183298 0.499334 -0.091465
C90   C     C_R   0.330099 0.817712 0.501908 -0.093510
C91   C     C_R   0.330121 0.182168 0.503421 -0.088425
C92   C     C_R   0.669094 0.817510 0.500967 -0.088888
C93   C     C_R   0.978939 0.542000 0.960552 -0.147106
C94   C     C_R   0.016160 0.463002 0.038914 -0.142142
C95   C     C_R   0.015059 0.462024 0.961830 -0.145029
C96   C     C_R   0.977689 0.542027 0.038025 -0.138834
C97   C     C_R   0.484248 0.036416 0.961461 -0.141213
C98   C     C_R   0.518720 0.955611 0.038640 -0.139867
C99   C     C_R   0.517588 0.955152 0.961216 -0.146451
C100  C     C_R   0.483386 0.036123 0.038623 -0.140764
C101  C     C_R   0.998408 0.500923 0.838091 -0.083286
C102  C     C_R   0.997119 0.502376 0.161866 -0.059827
C103  C     C_R   0.500149 0.996225 0.838125 -0.083291
C104  C     C_R   0.501364 0.996850 0.161889 -0.059154
C105  C     C_R   0.104688 0.603656 0.500428 -0.149371
C106  C     C_R   0.893626 0.398115 0.500288 -0.138459
C107  C     C_R   0.894070 0.601383 0.500486 -0.130825
C108  C     C_R   0.106220 0.397995 0.499976 -0.146649
C109  C     C_R   0.601634 0.106267 0.499957 -0.147537
C110  C     C_R   0.398420 0.893547 0.500328 -0.154762
C111  C     C_R   0.397544 0.105495 0.500785 -0.142189
C112  C     C_R   0.601685 0.894302 0.500004 -0.132202
Cu1   Cu    Cu3+1 1.000000 0.500000 0.573360 0.929138
Cu2   Cu    Cu3+1 1.000000 0.500000 0.426640 0.935379
Cu3   Cu    Cu3+1 0.500000 0.000000 0.573360 0.929529
Cu4   Cu    Cu3+1 0.500000 0.000000 0.426640 0.932621
H1    H     H_    0.075109 0.487825 0.690357 0.137380
H2    H     H_    0.022521 0.572196 0.313864 0.150354
H3    H     H_    0.924894 0.512374 0.686660 0.139012
H4    H     H_    0.973760 0.428923 0.310307 0.140160
H5    H     H_    0.574072 0.982111 0.687766 0.145954
H6    H     H_    0.529588 0.069831 0.309295 0.141517
H7    H     H_    0.425785 0.016484 0.689502 0.140896
H8    H     H_    0.473488 0.929078 0.314254 0.150465
H9    H     H_    0.108483 0.609732 0.381924 0.158402
H10   H     H_    0.876553 0.410890 0.613374 0.167336
H11   H     H_    0.905062 0.377017 0.388745 0.150352
H12   H     H_    0.111970 0.604351 0.619023 0.171825
H13   H     H_    0.846900 0.556123 0.565229 0.141423
H14   H     H_    0.108800 0.391300 0.381555 0.168630
H15   H     H_    0.113754 0.397572 0.618157 0.155757
H16   H     H_    0.932269 0.652571 0.431761 0.153240
H17   H     H_    0.629437 0.088663 0.392799 0.163208
H18   H     H_    0.403769 0.882804 0.616606 0.167952
H19   H     H_    0.384300 0.896744 0.383315 0.167276
H20   H     H_    0.582771 0.131150 0.609077 0.168508
H21   H     H_    0.372633 0.088323 0.608771 0.151275
H22   H     H_    0.560810 0.850644 0.423180 0.154698
H23   H     H_    0.650817 0.931075 0.573328 0.146579
H24   H     H_    0.416011 0.129818 0.392834 0.157714
H25   H     H_    0.273013 0.661461 0.546501 0.144758
H26   H     H_    0.735861 0.327297 0.414404 0.132056
H27   H     H_    0.809859 0.252414 0.590910 0.152750
H28   H     H_    0.171902 0.766989 0.458775 0.124918
H29   H     H_    0.774272 0.711580 0.380532 0.162964
H30   H     H_    0.279327 0.343067 0.481973 0.124742
H31   H     H_    0.169787 0.233690 0.521960 0.124078
H32   H     H_    0.770435 0.706789 0.617889 0.130314
H33   H     H_    0.746271 0.189427 0.590314 0.146956
H34   H     H_    0.236288 0.828937 0.459338 0.156208
H35   H     H_    0.338032 0.723202 0.545278 0.133019
H36   H     H_    0.673087 0.263336 0.412386 0.126212
H37   H     H_    0.232497 0.170219 0.517336 0.133646
H38   H     H_    0.706580 0.769347 0.618575 0.130862
H39   H     H_    0.712319 0.776109 0.381460 0.161828
H40   H     H_    0.342943 0.280338 0.488750 0.133210
H41   H     H_    0.965457 0.573571 0.931514 0.143633
H42   H     H_    0.032136 0.432438 0.067513 0.143606
H43   H     H_    0.027479 0.429725 0.934039 0.137223
H44   H     H_    0.961581 0.572942 0.066060 0.163067
H45   H     H_    0.472305 0.068812 0.933206 0.142085
H46   H     H_    0.533486 0.924257 0.067111 0.160142
H47   H     H_    0.529825 0.922828 0.932740 0.147580
H48   H     H_    0.468750 0.067536 0.067020 0.142762
N1    N     N_R   1.000000 0.500000 0.683620 -0.209684
N2    N     N_R   1.000000 0.500000 0.316380 -0.203790
N3    N     N_R   0.500000 0.000000 0.683620 -0.212409
N4    N     N_R   0.500000 0.000000 0.316380 -0.202310
O1    O     O_R   0.049900 0.450090 0.561980 -0.587099
O2    O     O_R   0.950100 0.549910 0.438020 -0.568725
O3    O     O_R   0.950100 0.549910 0.561980 -0.588633
O4    O     O_R   0.049900 0.450090 0.438020 -0.579160
O5    O     O_R   0.950100 0.450090 0.438020 -0.590078
O6    O     O_R   0.049900 0.549910 0.561980 -0.581868
O7    O     O_R   0.049900 0.549910 0.438020 -0.593137
O8    O     O_R   0.950100 0.450090 0.561980 -0.582222
O9    O     O_R   0.549900 0.950090 0.561980 -0.588943
O10   O     O_R   0.450100 0.049910 0.438020 -0.575884
O11   O     O_R   0.450100 0.049910 0.561980 -0.589123
O12   O     O_R   0.549900 0.950090 0.438020 -0.570810
O13   O     O_R   0.450100 0.950090 0.438020 -0.596395
O14   O     O_R   0.549900 0.049910 0.561980 -0.577953
O15   O     O_R   0.549900 0.049910 0.438020 -0.592713
O16   O     O_R   0.450100 0.950090 0.561980 -0.580217
O17   O     O_3   0.084235 0.479162 0.839623 -0.603818
C113  C     C_3   0.111331 0.438730 0.812356 0.071183
H49   H     H_    0.147125 0.438789 0.841071 0.164969
H50   H     H_    0.120623 0.441829 0.753273 0.108442
C114  C     C_3   0.086398 0.389789 0.829062 -0.409348
H51   H     H_    0.086821 0.383425 0.889377 0.215042
H52   H     H_    0.047988 0.390242 0.809478 0.217593
C115  C     C_3   0.112811 0.347264 0.792466 -0.869300
H53   H     H_    0.111793 0.351172 0.731756 0.272624
H54   H     H_    0.094454 0.312588 0.807332 0.257403
H55   H     H_    0.151259 0.345540 0.811560 0.248837
O18   O     O_3   0.027485 0.584693 0.161273 -0.617354
C116  C     C_3   0.041415 0.626086 0.202730 0.061583
H56   H     H_    0.061955 0.650615 0.165324 0.164741
H57   H     H_    0.067938 0.616786 0.246711 0.115339
C117  C     C_3   0.996590 0.654470 0.230518 -0.356217
H58   H     H_    0.978077 0.671994 0.182968 0.220474
H59   H     H_    0.969814 0.629678 0.256826 0.220637
C118  C     C_3   0.011063 0.693550 0.286197 -0.949473
H60   H     H_    0.028854 0.676601 0.334816 0.243897
H61   H     H_    0.977987 0.713375 0.305057 0.268535
H62   H     H_    0.036467 0.720069 0.260664 0.260355
O19   O     O_3   0.913005 0.523296 0.835626 -0.611952
C119  C     C_3   0.884699 0.560724 0.802434 0.050842
H63   H     H_    0.851217 0.565144 0.836251 0.167991
H64   H     H_    0.871064 0.550288 0.747199 0.117180
C120  C     C_3   0.910986 0.610331 0.801329 -0.363655
H65   H     H_    0.915222 0.623851 0.858621 0.209112
H66   H     H_    0.947841 0.606923 0.776443 0.215692
C121  C     C_3   0.882239 0.647900 0.757130 -0.930917
H67   H     H_    0.881131 0.637178 0.698169 0.254549
H68   H     H_    0.900353 0.683979 0.761419 0.258617
H69   H     H_    0.844421 0.651211 0.778595 0.247999
O20   O     O_3   0.961350 0.422294 0.159390 -0.616020
C122  C     C_3   0.966971 0.374967 0.189255 0.055599
H70   H     H_    0.945998 0.349844 0.153165 0.173468
H71   H     H_    0.949728 0.371165 0.243974 0.109809
C123  C     C_3   0.020349 0.357844 0.188937 -0.378496
H72   H     H_    0.034857 0.359358 0.131946 0.217960
H73   H     H_    0.043042 0.381770 0.224480 0.206330
C124  C     C_3   0.024607 0.305587 0.216563 -0.937017
H74   H     H_    0.013248 0.303439 0.275169 0.254459
H75   H     H_    0.063070 0.293369 0.211668 0.255616
H76   H     H_    0.001463 0.280816 0.183054 0.261331
O21   O     O_3   0.583273 0.966138 0.835342 -0.607889
C125  C     C_3   0.606456 0.925543 0.801291 0.056798
H77   H     H_    0.638915 0.916321 0.835168 0.166549
H78   H     H_    0.621435 0.934741 0.746399 0.123710
C126  C     C_3   0.573855 0.879783 0.798207 -0.375550
H79   H     H_    0.567412 0.866258 0.854938 0.209849
H80   H     H_    0.537955 0.888183 0.772835 0.214918
C127  C     C_3   0.597774 0.839251 0.753235 -0.930677
H81   H     H_    0.601190 0.850521 0.694760 0.255900
H82   H     H_    0.574834 0.805946 0.755560 0.260839
H83   H     H_    0.634479 0.830490 0.775591 0.248151
O22   O     O_3   0.541645 0.074546 0.157787 -0.615770
C128  C     C_3   0.541845 0.122006 0.188473 0.047410
H84   H     H_    0.564312 0.144815 0.151074 0.180585
H85   H     H_    0.561028 0.123906 0.242103 0.109017
C129  C     C_3   0.490562 0.144500 0.191600 -0.369838
H86   H     H_    0.472310 0.140064 0.137444 0.223424
H87   H     H_    0.468234 0.125894 0.234121 0.202455
C130  C     C_3   0.493141 0.198751 0.209647 -0.938772
H88   H     H_    0.510884 0.204291 0.263923 0.254256
H89   H     H_    0.455739 0.214247 0.211296 0.252616
H90   H     H_    0.514263 0.218420 0.166816 0.259455
O23   O     O_3   0.415827 0.022389 0.839683 -0.606276
C131  C     C_3   0.388661 0.062152 0.810920 0.068329
H91   H     H_    0.354996 0.065484 0.844609 0.165978
H92   H     H_    0.375273 0.055136 0.754465 0.110598
C132  C     C_3   0.416141 0.110948 0.816690 -0.407688
H93   H     H_    0.420132 0.121073 0.875567 0.213647
H94   H     H_    0.453082 0.107945 0.791945 0.217638
C133  C     C_3   0.388662 0.151787 0.777641 -0.873981
H95   H     H_    0.387854 0.144879 0.717481 0.267287
H96   H     H_    0.407564 0.186991 0.787406 0.255196
H97   H     H_    0.350742 0.154653 0.798832 0.254676
O24   O     O_3   0.466092 0.916474 0.162343 -0.616183
C134  C     C_3   0.454642 0.874315 0.203714 0.060358
H98   H     H_    0.433700 0.849557 0.167021 0.167235
H99   H     H_    0.429096 0.882340 0.249615 0.121073
C135  C     C_3   0.500940 0.846798 0.227757 -0.361079
H100  H     H_    0.519001 0.831070 0.178346 0.220562
H101  H     H_    0.527421 0.871774 0.254473 0.219178
C136  C     C_3   0.488916 0.805916 0.281601 -0.948798
H102  H     H_    0.472349 0.821172 0.332498 0.243460
H103  H     H_    0.522914 0.786324 0.296858 0.270463
H104  H     H_    0.463258 0.779542 0.256061 0.256381
O25   O     O_3   0.180625 0.674155 0.369618 -0.597904
C137  C     C_3   0.145817 0.699102 0.326417 0.042240
H105  H     H_    0.120491 0.721667 0.360573 0.125886
H106  H     H_    0.124401 0.672366 0.293929 0.145740
C138  C     C_3   0.172691 0.732894 0.273384 -0.310934
H107  H     H_    0.193792 0.760238 0.305462 0.223294
H108  H     H_    0.198708 0.711263 0.239567 0.227481
C139  C     C_3   0.137312 0.759416 0.222426 -0.938702
H109  H     H_    0.116733 0.732788 0.188354 0.252325
H110  H     H_    0.158035 0.783900 0.185225 0.262052
H111  H     H_    0.111260 0.781752 0.255019 0.255740
O26   O     O_3   0.799215 0.348655 0.628710 -0.614544
C140  C     C_3   0.794033 0.389041 0.676762 0.066826
H112  H     H_    0.755858 0.389122 0.697322 0.160326
H113  H     H_    0.798645 0.424980 0.649100 0.125963
C141  C     C_3   0.827993 0.383123 0.743323 -0.362128
H114  H     H_    0.814760 0.352506 0.777967 0.223680
H115  H     H_    0.865550 0.373940 0.725036 0.223218
C142  C     C_3   0.829858 0.429475 0.789644 -0.882923
H116  H     H_    0.844138 0.460142 0.756199 0.256882
H117  H     H_    0.854540 0.423910 0.837385 0.276901
H118  H     H_    0.792899 0.438770 0.810455 0.254351
O27   O     O_3   0.832329 0.308080 0.375962 -0.607470
C143  C     C_3   0.841616 0.328756 0.305969 0.076148
H119  H     H_    0.831844 0.300676 0.264389 0.171025
H120  H     H_    0.880973 0.335494 0.297025 0.116201
C144  C     C_3   0.809988 0.373965 0.290575 -0.403579
H121  H     H_    0.770823 0.363951 0.295104 0.218666
H122  H     H_    0.817678 0.403217 0.331226 0.220250
C145  C     C_3   0.819779 0.394017 0.213700 -0.880739
H123  H     H_    0.858489 0.405521 0.208736 0.273718
H124  H     H_    0.796078 0.426176 0.203672 0.259133
H125  H     H_    0.811719 0.365942 0.171290 0.251329
O28   O     O_3   0.181667 0.669903 0.634899 -0.607971
C146  C     C_3   0.148000 0.697841 0.676467 0.062374
H126  H     H_    0.160158 0.696767 0.734784 0.175079
H127  H     H_    0.110296 0.682656 0.675701 0.123530
C147  C     C_3   0.147669 0.751088 0.650882 -0.353346
H128  H     H_    0.185592 0.765456 0.650671 0.247389
H129  H     H_    0.132882 0.753211 0.594039 0.200883
C148  C     C_3   0.116215 0.782790 0.701074 -0.914411
H130  H     H_    0.077969 0.769394 0.701306 0.252619
H131  H     H_    0.116469 0.820941 0.680772 0.259134
H132  H     H_    0.130777 0.782332 0.758139 0.258633
O29   O     O_3   0.766286 0.612091 0.565576 -0.602623
C149  C     C_3   0.768549 0.595667 0.639394 0.042137
H133  H     H_    0.744232 0.619502 0.672648 0.160409
H134  H     H_    0.805359 0.598039 0.665193 0.118393
C150  C     C_3   0.749602 0.543306 0.643707 -0.322007
H135  H     H_    0.713050 0.541186 0.617346 0.234810
H136  H     H_    0.774695 0.518550 0.613484 0.199783
C151  C     C_3   0.745375 0.526220 0.723302 -0.957319
H137  H     H_    0.781371 0.528250 0.751075 0.251020
H138  H     H_    0.732495 0.487872 0.724421 0.255002
H139  H     H_    0.718797 0.549232 0.753774 0.261981
O30   O     O_3   0.178784 0.324713 0.367692 -0.600407
C152  C     C_3   0.142775 0.298174 0.328524 0.057873
H140  H     H_    0.153498 0.298296 0.269558 0.173137
H141  H     H_    0.105760 0.314798 0.331104 0.129932
C153  C     C_3   0.140760 0.245263 0.355176 -0.356458
H142  H     H_    0.178174 0.229566 0.355304 0.243910
H143  H     H_    0.126030 0.244440 0.412036 0.202629
C154  C     C_3   0.108016 0.213967 0.306381 -0.918342
H144  H     H_    0.069795 0.227307 0.308931 0.262311
H145  H     H_    0.108811 0.175690 0.326105 0.259772
H146  H     H_    0.120975 0.214733 0.248464 0.257812
O31   O     O_3   0.188441 0.336017 0.632468 -0.604662
C155  C     C_3   0.211125 0.375676 0.669056 0.058768
H147  H     H_    0.217971 0.364220 0.726725 0.169541
H148  H     H_    0.187559 0.408621 0.672383 0.117985
C156  C     C_3   0.260342 0.388390 0.633891 -0.361506
H149  H     H_    0.283596 0.355217 0.631544 0.234304
H150  H     H_    0.254402 0.401941 0.577005 0.205841
C157  C     C_3   0.286831 0.427745 0.677818 -0.909569
H151  H     H_    0.264459 0.461502 0.680179 0.258231
H152  H     H_    0.322136 0.436319 0.650820 0.257560
H153  H     H_    0.294247 0.414892 0.734688 0.254970
O32   O     O_3   0.866830 0.723225 0.425590 -0.615782
C158  C     C_3   0.899572 0.754332 0.463452 0.042826
H154  H     H_    0.914039 0.780835 0.422783 0.171786
H155  H     H_    0.931888 0.734798 0.486318 0.124525
C159  C     C_3   0.873113 0.782655 0.524460 -0.336829
H156  H     H_    0.840415 0.801034 0.501147 0.249438
H157  H     H_    0.860970 0.757014 0.568013 0.205168
C160  C     C_3   0.906321 0.820847 0.559337 -0.912510
H158  H     H_    0.938941 0.803146 0.583927 0.251561
H159  H     H_    0.886174 0.840415 0.603443 0.260862
H160  H     H_    0.918198 0.847769 0.517417 0.256377
O33   O     O_3   0.698630 0.159209 0.380385 -0.597556
C161  C     C_3   0.678603 0.152113 0.309289 0.054163
H161  H     H_    0.689012 0.184053 0.275234 0.161118
H162  H     H_    0.637955 0.150838 0.307692 0.108427
C162  C     C_3   0.701059 0.106440 0.274454 -0.339693
H163  H     H_    0.741165 0.111532 0.269497 0.231855
H164  H     H_    0.694491 0.074305 0.310184 0.219141
C163  C     C_3   0.679864 0.096347 0.198319 -0.904687
H165  H     H_    0.640580 0.087202 0.202844 0.273939
H166  H     H_    0.699095 0.064856 0.173052 0.263455
H167  H     H_    0.684414 0.128584 0.162057 0.252665
O34   O     O_3   0.340501 0.806502 0.632417 -0.610688
C164  C     C_3   0.379233 0.799538 0.683210 0.079190
H168  H     H_    0.363694 0.779829 0.731141 0.172993
H169  H     H_    0.392666 0.834487 0.706293 0.131901
C165  C     C_3   0.420903 0.767956 0.651991 -0.398659
H170  H     H_    0.406224 0.731869 0.635252 0.217936
H171  H     H_    0.437399 0.785433 0.602865 0.211181
C166  C     C_3   0.461018 0.760493 0.709181 -0.908910
H172  H     H_    0.476867 0.796149 0.725638 0.257598
H173  H     H_    0.490493 0.737519 0.685540 0.257790
H174  H     H_    0.446154 0.741943 0.758624 0.256877
O35   O     O_3   0.318179 0.828411 0.370849 -0.609707
C167  C     C_3   0.348231 0.796523 0.330025 0.048300
H175  H     H_    0.361115 0.765391 0.364469 0.137113
H176  H     H_    0.380258 0.816667 0.308061 0.140476
C168  C     C_3   0.318875 0.776020 0.265583 -0.308111
H177  H     H_    0.287493 0.754776 0.287221 0.226226
H178  H     H_    0.304440 0.806530 0.231752 0.224811
C169  C     C_3   0.350129 0.743001 0.217057 -0.932424
H179  H     H_    0.380751 0.763995 0.192694 0.249309
H180  H     H_    0.327470 0.728005 0.171700 0.260827
H181  H     H_    0.365013 0.712194 0.249733 0.259614
O36   O     O_3   0.641558 0.207171 0.620849 -0.608406
C170  C     C_3   0.599105 0.236319 0.627938 0.066804
H182  H     H_    0.598548 0.250913 0.685010 0.171873
H183  H     H_    0.564704 0.215165 0.621148 0.125052
C171  C     C_3   0.600178 0.279451 0.574253 -0.360121
H184  H     H_    0.634772 0.300043 0.581509 0.238281
H185  H     H_    0.598492 0.265786 0.516697 0.202841
C172  C     C_3   0.557107 0.313696 0.587086 -0.927131
H186  H     H_    0.522126 0.293836 0.579696 0.256925
H187  H     H_    0.558525 0.344078 0.546840 0.256748
H188  H     H_    0.558594 0.329204 0.643561 0.258436
O37   O     O_3   0.301087 0.157803 0.623074 -0.609540
C173  C     C_3   0.284620 0.115088 0.659281 0.067292
H189  H     H_    0.261423 0.127185 0.706014 0.170646
H190  H     H_    0.314787 0.094676 0.685359 0.121764
C174  C     C_3   0.253102 0.082227 0.609753 -0.388984
H191  H     H_    0.219800 0.102351 0.592750 0.215687
H192  H     H_    0.273491 0.071368 0.559519 0.219184
C175  C     C_3   0.237758 0.036099 0.650405 -0.898205
H193  H     H_    0.270429 0.014682 0.666763 0.254985
H194  H     H_    0.214743 0.013239 0.613775 0.259290
H195  H     H_    0.216332 0.045584 0.700326 0.254051
O38   O     O_3   0.616728 0.771747 0.418608 -0.616203
C176  C     C_3   0.576220 0.746057 0.447481 0.050528
H196  H     H_    0.563846 0.720037 0.404448 0.170861
H197  H     H_    0.544405 0.770115 0.459369 0.125752
C177  C     C_3   0.590516 0.716944 0.516299 -0.346749
H198  H     H_    0.622154 0.693027 0.503374 0.241438
H199  H     H_    0.601313 0.742327 0.561162 0.204598
C178  C     C_3   0.548140 0.685688 0.543292 -0.923250
H200  H     H_    0.516084 0.708970 0.556310 0.253695
H201  H     H_    0.559184 0.665887 0.593890 0.259133
H202  H     H_    0.537740 0.658599 0.500586 0.257567
O39   O     O_3   0.723635 0.864967 0.576640 -0.603641
C179  C     C_3   0.720429 0.880795 0.650741 0.033319
H203  H     H_    0.739045 0.853137 0.685464 0.157802
H204  H     H_    0.682579 0.884007 0.672535 0.121551
C180  C     C_3   0.747228 0.929372 0.659085 -0.320910
H205  H     H_    0.785479 0.925075 0.639725 0.231120
H206  H     H_    0.729206 0.957495 0.624524 0.214648
C181  C     C_3   0.747745 0.946620 0.738963 -0.926332
H207  H     H_    0.709986 0.953227 0.758611 0.251327
H208  H     H_    0.768504 0.981250 0.743156 0.263147
H209  H     H_    0.765521 0.918991 0.774690 0.254541
O40   O     O_3   0.359632 0.211087 0.385836 -0.608218
C182  C     C_3   0.406102 0.227254 0.361197 0.068547
H210  H     H_    0.399806 0.251272 0.312958 0.166645
H211  H     H_    0.428886 0.197064 0.339798 0.143671
C183  C     C_3   0.433632 0.257422 0.419509 -0.384364
H212  H     H_    0.414805 0.292900 0.427333 0.212452
H213  H     H_    0.434548 0.238070 0.473145 0.214818
C184  C     C_3   0.486100 0.267357 0.395823 -0.924535
H214  H     H_    0.506956 0.232674 0.392868 0.251204
H215  H     H_    0.504032 0.291537 0.436720 0.262999
H216  H     H_    0.486807 0.285583 0.341277 0.259881

loop_
_geom_bond_atom_site_label_1
_geom_bond_atom_site_label_2
_ccdc_geom_bond_type
O39   C179  S    
C132  H94   S    
C160  H158  S    
C23   H39   S    
C6    O11   A    
C142  H116  S    
C168  C169  S    
C53   C69   A    
C60   H16   S    
C61   H17   S    
C118  H61   S    
C77   C89   A    
C177  H198  S    
Cu4   O10   S    
Cu4   O15   S    
C124  H76   S    
O34   C164  S    
C134  H99   S    
C137  H105  S    
C44   N4    A    
C116  H57   S    
C79   C90   A    
C9    C19   A    
C11   C17   A    
C10   C20   A    
C151  H137  S    
C56   C72   A    
C153  C154  S    
C36   C97   A    
C84   C91   A    
C165  C166  S    
C72   O28   S    
C2    O3    A    
C65   H21   S    
C77   O33   S    
C17   C30   A    
C75   O31   S    
C30   C89   S    
C80   O36   S    
C41   C49   A    
C163  H165  S    
C98   H46   S    
C9    C26   A    
C178  H202  S    
C147  H129  S    
C33   C102  S    
C115  H55   S    
C166  H172  S    
C155  H147  S    
C35   C104  S    
C164  C165  S    
C154  H145  S    
C169  H180  S    
C60   C76   A    
C23   C31   A    
C39   N1    A    
C24   C32   A    
O21   C125  S    
C66   C82   A    
C15   C27   A    
C54   C70   A    
C59   H15   S    
O28   C146  S    
C71   O27   S    
C139  H109  S    
C125  H78   S    
Cu3   O9    S    
C60   C107  A    
C143  H119  S    
C160  H160  S    
C136  H103  S    
C173  H190  S    
C68   H24   S    
C37   C45   A    
C168  H177  S    
C39   C47   A    
C130  H90   S    
C40   C48   A    
O26   C140  S    
C97   C100  A    
C149  C150  S    
C177  C178  S    
C73   O29   S    
O18   C116  S    
C167  H176  S    
C46   O18   S    
C69   O25   S    
C129  C130  S    
O38   C176  S    
C140  H113  S    
C162  H163  S    
C45   O17   S    
C151  H139  S    
C175  H194  S    
C36   C99   A    
C56   H12   S    
C184  H214  S    
O36   C170  S    
C154  H144  S    
C3    O8    A    
C37   H1    S    
C117  H59   S    
C150  H135  S    
C21   H37   S    
Cu4   N4    S    
C128  H85   S    
C174  H191  S    
C18   H34   S    
C11   H27   S    
C163  H167  S    
C55   C71   A    
C24   H40   S    
C115  H54   S    
C131  H91   S    
C64   H20   S    
C67   C83   A    
C6    C111  S    
C158  H154  S    
C155  C156  S    
C13   H29   S    
C33   C94   A    
Cu3   O16   S    
C148  H130  S    
C158  C159  S    
C180  H206  S    
C20   C30   A    
C129  H86   S    
C27   C88   S    
C95   H43   S    
C175  H193  S    
C142  H117  S    
C182  H211  S    
C121  H68   S    
C148  H131  S    
C161  H161  S    
C11   C25   A    
Cu3   Cu4   S    
C135  H101  S    
C127  H81   S    
C13   C23   A    
C128  H84   S    
C14   C24   A    
C114  H52   S    
C149  H134  S    
C143  C144  S    
C61   C77   A    
C4    O7    A    
C19   H35   S    
C67   H23   S    
C126  H79   S    
C44   C52   A    
C138  H107  S    
C152  H141  S    
C114  H51   S    
C176  H197  S    
C165  H171  S    
O25   C137  S    
C145  H124  S    
C7    O13   A    
C153  H142  S    
C162  C163  S    
C166  H174  S    
C37   N1    A    
C123  C124  S    
C12   C26   A    
C141  H115  S    
C184  H216  S    
C71   C86   A    
C144  H122  S    
C67   C112  A    
C157  H152  S    
C180  H205  S    
C66   H22   S    
C150  C151  S    
C28   C87   S    
C18   C29   A    
C174  C175  S    
C123  H73   S    
C76   C87   A    
C53   H9    S    
C42   C50   A    
C131  C132  S    
C99   H47   S    
C8    O15   A    
C55   H11   S    
C98   C99   A    
C97   H45   S    
C156  H150  S    
C171  H185  S    
C35   C100  A    
C33   C96   A    
C43   H7    S    
Cu3   O14   S    
C69   C85   A    
C179  H203  S    
C58   C74   A    
C157  H153  S    
C120  H66   S    
C76   O32   S    
C62   C78   A    
C175  H195  S    
O30   C152  S    
C168  H178  S    
C135  C136  S    
O24   C134  S    
C5    C112  S    
C43   N3    A    
C52   O24   S    
C7    C110  S    
C128  C129  S    
C177  H199  S    
C133  H95   S    
C113  H49   S    
C122  C123  S    
C64   C109  A    
C26   C85   S    
C39   H3    S    
C143  H120  S    
O22   C128  S    
C124  H75   S    
C129  H87   S    
C137  H106  S    
C116  H56   S    
C126  C127  S    
C38   C46   A    
C53   C105  A    
C120  C121  S    
C160  H159  S    
C159  H156  S    
C138  C139  S    
C183  H212  S    
Cu3   N3    S    
C161  C162  S    
Cu1   O6    S    
C50   C104  A    
C137  C138  S    
C139  H111  S    
C118  H60   S    
C172  H188  S    
C163  H166  S    
C181  H207  S    
C134  H98   S    
C178  H201  S    
C48   O20   S    
C78   C90   A    
C54   H10   S    
C36   C103  S    
C155  H148  S    
C164  H169  S    
C183  C184  S    
Cu1   N1    S    
C170  C171  S    
C51   C103  A    
C82   C92   A    
C10   H26   S    
C80   C89   A    
O40   C182  S    
C73   C87   A    
C42   N4    A    
C119  H63   S    
C13   C28   A    
C14   C27   A    
C35   C98   A    
C179  C180  S    
C84   O40   S    
C132  C133  S    
C94   H42   S    
C4    O6    A    
C136  H102  S    
C6    O10   A    
C64   C80   A    
C29   C90   S    
C74   O30   S    
C72   C85   A    
O32   C158  S    
C130  H89   S    
C3    C106  S    
C118  H62   S    
C34   C101  S    
C54   C106  A    
C55   C106  A    
O19   C119  S    
C68   C84   A    
C34   C95   A    
O23   C131  S    
O27   C143  S    
Cu1   O1    S    
C44   H8    S    
C146  H126  S    
C116  C117  S    
C182  H210  S    
C141  C142  S    
C172  H186  S    
C140  H112  S    
C144  C145  S    
C65   C81   A    
O31   C155  S    
C48   C102  A    
C100  H48   S    
C45   C101  A    
C2    O2    A    
Cu1   O8    S    
Cu2   O7    S    
C40   H4    S    
C113  H50   S    
C19   C29   A    
C122  H70   S    
C131  H92   S    
Cu1   Cu2   S    
C4    C105  S    
C8    O14   A    
C38   N2    A    
C147  H128  S    
C52   C104  A    
C16   C22   A    
C139  H110  S    
C83   O39   S    
C49   C103  A    
C154  H146  S    
C170  H182  S    
C158  H155  S    
C169  H179  S    
C1    O4    A    
C146  C147  S    
C113  C114  S    
C50   O22   S    
C115  H53   S    
C15   H31   S    
C43   C51   A    
O17   C113  S    
C161  H162  S    
C58   H14   S    
C119  C120  S    
C127  H82   S    
C58   C108  A    
C49   O21   S    
C125  H77   S    
C56   C105  A    
C81   C91   A    
C20   H36   S    
C136  H104  S    
C57   C107  A    
C173  H189  S    
C38   H2    S    
C74   C88   A    
C164  H168  S    
C147  C148  S    
C16   C28   A    
C134  C135  S    
C156  H149  S    
C47   C101  A    
C82   O38   S    
C152  H140  S    
C34   C93   A    
C144  H121  S    
C61   C109  A    
C167  H175  S    
C169  H181  S    
C176  H196  S    
O20   C122  S    
Cu1   O3    S    
C63   C79   A    
Cu2   O4    S    
C83   C92   A    
C46   C102  A    
C145  H125  S    
C7    O16   A    
C57   H13   S    
C153  H143  S    
C140  C141  S    
C162  H164  S    
C166  H173  S    
C32   C91   S    
C57   C73   A    
C2    C107  S    
C125  C126  S    
C41   H5    S    
C184  H215  S    
C79   O35   S    
C65   C111  A    
C3    O5    A    
Cu2   O5    S    
C78   O34   S    
C120  H65   S    
C117  H58   S    
C150  H136  S    
C173  C174  S    
C174  H192  S    
C51   O23   S    
C40   N2    A    
C171  C172  S    
O29   C149  S    
C81   O37   S    
C172  H187  S    
C179  H204  S    
Cu2   N2    S    
C180  C181  S    
C21   C32   A    
C22   C31   A    
C142  H118  S    
C182  C183  S    
C178  H200  S    
C9    H25   S    
C121  H67   S    
C148  H132  S    
C12   H28   S    
C146  H127  S    
C68   C111  A    
C63   H19   S    
C114  C115  S    
C133  H96   S    
C149  H133  S    
C122  H71   S    
C62   C110  A    
Cu4   O13   S    
C124  H74   S    
C94   C95   A    
C93   H41   S    
C126  H80   S    
C5    O9    A    
C151  H138  S    
C96   H44   S    
C93   C96   A    
C159  H157  S    
C138  H108  S    
C152  C153  S    
C133  H97   S    
C183  H213  S    
C132  H93   S    
C70   C86   A    
C167  C168  S    
C59   C75   A    
C176  C177  S    
C165  H170  S    
C42   H6    S    
C22   H38   S    
Cu2   O2    S    
C145  H123  S    
C17   H33   S    
C121  H69   S    
C181  H208  S    
C130  H88   S    
C159  C160  S    
C5    O12   A    
O33   C161  S    
C14   H30   S    
C59   C108  A    
C47   O19   S    
C16   H32   S    
C141  H114  S    
C62   H18   S    
C63   C110  A    
Cu4   O12   S    
C8    C109  S    
C10   C25   A    
C170  H183  S    
C157  H151  S    
C117  C118  S    
C70   O26   S    
C41   N3    A    
C1    O1    A    
C25   C86   S    
O37   C173  S    
C123  H72   S    
C181  H209  S    
C135  H100  S    
C1    C108  S    
C75   C88   A    
C15   C21   A    
C127  H83   S    
C119  H64   S    
C31   C92   S    
C156  C157  S    
C12   C18   A    
C171  H184  S    
C66   C112  A    
Cu3   O11   S    
O35   C167  S    
