data_mof_unit_25768.cif
_audit_creation_date              2012-12-10T17:18:15-0500
_audit_creation_method            fapswitch 2.2
_symmetry_space_group_name_H-M    P1
_symmetry_Int_Tables_number       1
_space_group_crystal_system       triclinic
_cell_length_a                    10.1456
_cell_length_b                    10.846606
_cell_length_c                    14.924292
_cell_angle_alpha                 88.988464
_cell_angle_beta                  81.673598
_cell_angle_gamma                 95.320836
_cell_volume                      1617.22915436

loop_
_atom_site_label
_atom_site_type_symbol
_atom_type_description
_atom_site_fract_x
_atom_site_fract_y
_atom_site_fract_z
_atom_type_partial_charge
C1    C     C_R   0.556292 0.732157 0.492673 0.919645
C2    C     C_2   0.075726 0.503155 0.485411 0.039476
C3    C     C_R   0.500271 0.497057 0.672954 0.948724
C4    C     C_R   0.499396 0.501475 0.327140 0.933847
C5    C     C_R   0.508034 0.389057 0.188576 -0.333361
C6    C     C_R   0.457948 0.596214 0.815651 -0.342435
C7    C     C_R   0.496140 0.500614 0.231982 -0.169324
C8    C     C_R   0.500672 0.494384 0.768578 -0.162732
C9    C     C_R   0.479141 0.609710 0.185659 0.452659
C10   C     C_R   0.536002 0.389724 0.812454 0.435055
C11   C     C_R   0.459583 0.603190 0.094954 -0.013181
C12   C     C_R   0.443475 0.267939 0.508453 0.963736
C13   C     C_R   0.515174 0.384098 0.907637 -0.019935
C14   C     C_R   0.480553 0.492377 0.048834 -0.017694
C15   C     C_R   0.482005 0.491316 0.955202 -0.011961
C16   C     C_R   0.504174 0.384020 0.095981 0.127629
C17   C     C_R   0.452966 0.598279 0.908879 0.129251
C18   C     C_R   0.422085 0.705662 0.049604 -0.257361
C19   C     C_R   0.526509 0.274212 0.955887 -0.258769
C20   C     C_3   0.599324 0.798200 0.197867 -0.004781
C21   C     C_3   0.717600 0.764938 0.243759 -0.333134
C22   C     C_3   0.845157 0.846263 0.206232 -0.948624
C23   C     C_R   0.418506 0.704374 0.956612 0.107741
C24   C     C_3   0.708840 0.266830 0.770736 0.051963
C25   C     C_3   0.806734 0.319969 0.688728 -0.315627
C26   C     C_3   0.943513 0.271003 0.686286 -0.936647
C27   C     C_3   0.160941 0.704211 0.633941 0.213014
C28   C     C_3   0.085186 0.755991 0.718754 -0.411102
C29   C     C_3   0.148044 0.884371 0.738104 -0.944141
C30   C     C_3   0.865304 0.260725 0.410610 0.171867
C31   C     C_3   0.965232 0.188931 0.351162 -0.382044
C32   C     C_3   0.947435 0.051562 0.378999 -0.985464
C33   C     C_R   0.522032 0.273208 0.049847 0.117226
C34   C     C_2   0.588882 0.863129 0.497577 -0.438514
C35   C     C_2   0.409874 0.137004 0.505395 -0.345861
C36   C     C_2   0.498738 0.940335 0.481155 0.093618
C37   C     C_2   0.499785 0.061080 0.522951 0.130520
C38   C     C_2   0.928040 0.514224 0.503375 0.033556
H1    H     H_    0.521860 0.307208 0.227644 0.177331
H2    H     H_    0.627569 0.797402 0.122984 0.147336
H3    H     H_    0.694630 0.777838 0.317643 0.231811
H4    H     H_    0.735548 0.666695 0.232074 0.236426
H5    H     H_    0.873582 0.830305 0.132945 0.265269
H6    H     H_    0.928046 0.822687 0.242507 0.276542
H7    H     H_    0.830342 0.945674 0.215451 0.265433
H8    H     H_    0.711533 0.164689 0.774369 0.158490
H9    H     H_    0.744585 0.303606 0.833183 0.125540
H10   H     H_    0.766185 0.294609 0.625766 0.247593
H11   H     H_    0.818898 0.422542 0.692022 0.230384
H12   H     H_    0.431744 0.674819 0.778269 0.172199
H13   H     H_    0.987194 0.297353 0.748116 0.277999
H14   H     H_    0.012252 0.311013 0.626097 0.283065
H15   H     H_    0.934383 0.168527 0.681647 0.247458
H16   H     H_    0.347186 0.875724 0.956600 0.186072
H17   H     H_    0.472323 0.854780 0.873470 0.167255
H18   H     H_    0.534548 0.085186 0.055911 0.168916
H19   H     H_    0.634878 0.170078 0.116122 0.175931
H20   H     H_    0.583083 0.035645 0.637033 0.183955
H21   H     H_    0.691878 0.097766 0.546753 0.162760
H22   H     H_    0.314385 0.865205 0.459436 0.195823
H23   H     H_    0.398366 0.788121 0.086128 0.177251
H24   H     H_    0.438742 0.849166 0.371742 0.243602
H25   H     H_    0.158318 0.768942 0.575640 0.109034
H26   H     H_    0.265565 0.698117 0.645282 0.187867
H27   H     H_    0.979255 0.762257 0.709348 0.220350
H28   H     H_    0.086798 0.692465 0.777798 0.243796
H29   H     H_    0.253712 0.879976 0.748663 0.272793
H30   H     H_    0.091572 0.919261 0.800345 0.271449
H31   H     H_    0.144830 0.950193 0.680730 0.262920
H32   H     H_    0.762974 0.230081 0.396723 0.172401
H33   H     H_    0.873934 0.238622 0.482646 0.117359
H34   H     H_    0.541357 0.189134 0.920582 0.162727
H35   H     H_    0.950774 0.199676 0.279111 0.229623
H36   H     H_    0.068901 0.226853 0.357797 0.231226
H37   H     H_    0.967457 0.038774 0.449657 0.262113
H38   H     H_    0.019115 0.001228 0.333482 0.280564
H39   H     H_    0.843891 0.011599 0.374332 0.274465
H40   H     H_    0.323901 0.106430 0.472925 0.141098
H41   H     H_    0.674854 0.892120 0.530284 0.133757
H42   H     H_    0.117281 0.455443 0.426177 0.146249
H43   H     H_    0.889221 0.575454 0.555384 0.134954
H44   H     H_    0.580179 0.895148 0.213966 0.177441
N1    N     N_2   0.842700 0.448880 0.462930 0.037211
N2    N     N_2   0.157300 0.551120 0.537070 0.031440
N3    N     N_3   0.384042 0.811570 0.910208 -0.467114
N4    N     N_3   0.538701 0.160998 0.098102 -0.470296
N5    N     N_3   0.595457 0.098955 0.582138 -0.419985
N6    N     N_3   0.401399 0.908410 0.421505 -0.455297
O1    O     O_R   0.431060 0.692470 0.507460 -0.640064
O2    O     O_3   0.575713 0.289875 0.761558 -0.642711
O3    O     O_3   0.099253 0.586595 0.618489 -0.591411
O4    O     O_3   0.894380 0.388386 0.389823 -0.571006
O5    O     O_R   0.568940 0.307530 0.492540 -0.616025
O6    O     O_R   0.651120 0.659650 0.483670 -0.627848
O7    O     O_R   0.348880 0.340350 0.516330 -0.628642
O8    O     O_R   0.389960 0.516440 0.644050 -0.612719
O9    O     O_R   0.610040 0.483560 0.355950 -0.603623
O10   O     O_R   0.610030 0.483620 0.620260 -0.637620
O11   O     O_R   0.389970 0.516380 0.379740 -0.619183
O12   O     O_3   0.480540 0.720826 0.230489 -0.667896
Zn1   Zn    Zn3+2 0.353060 0.521920 0.515880 0.964261
Zn2   Zn    Zn3+2 0.646940 0.478080 0.484120 0.965065

loop_
_geom_bond_atom_site_label_1
_geom_bond_atom_site_label_2
_ccdc_geom_bond_type
C11   C18   A    
N1    Zn2   S    
C20   H44   S    
C38   N1    D    
C2    N2    D    
H20   N5    S    
C32   H37   S    
C30   H33   S    
H22   N6    S    
C36   N6    S    
N1    O4    S    
C17   C23   A    
C36   C37   S    
C35   C37   D    
C30   C31   S    
C20   H2    S    
C11   C14   A    
C31   H35   S    
H19   N4    S    
C7    C9    A    
C5    C16   A    
C32   H39   S    
C29   H29   S    
C22   H6    S    
C22   H5    S    
C1    O6    A    
C25   H11   S    
C12   O7    A    
C27   O3    S    
C3    O8    A    
N2    O3    S    
O9    Zn2   S    
C21   C22   S    
N2    Zn1   S    
C19   H34   S    
C4    C7    S    
C30   H32   S    
C1    C34   S    
C29   H31   S    
C13   C19   A    
C18   C23   A    
C24   C25   S    
C30   O4    S    
C3    C8    S    
C19   C33   A    
C5    C7    A    
C31   H36   S    
C6    C8    A    
C25   C26   S    
O10   Zn2   S    
H24   N6    S    
H17   N3    S    
C28   H28   S    
C33   N4    S    
C26   H14   S    
C34   H41   S    
C29   H30   S    
C2    C38   S    
H18   N4    S    
C31   C32   S    
C20   O12   S    
C6    H12   S    
C12   C35   S    
C9    C11   A    
C25   H10   S    
C10   O2    S    
C27   H25   S    
C21   H3    S    
O11   Zn1   S    
C9    O12   S    
C13   C15   A    
C38   H43   S    
C14   C16   A    
C12   O5    A    
C4    O9    A    
C26   H15   S    
C15   C17   A    
C6    C17   A    
C28   C29   S    
C1    O1    A    
O1    Zn1   S    
C24   H9    S    
C37   N5    S    
C10   C13   A    
C24   O2    S    
O5    Zn2   S    
C32   H38   S    
H16   N3    S    
C18   H23   S    
C35   H40   S    
C24   H8    S    
C5    H1    S    
C28   H27   S    
C16   C33   A    
C26   H13   S    
C3    O10   A    
C34   C36   D    
H21   N5    S    
C2    H42   S    
C27   H26   S    
C21   H4    S    
C22   H7    S    
C20   C21   S    
O6    Zn2   S    
C8    C10   A    
C23   N3    S    
C4    O11   A    
C27   C28   S    
C14   C15   A    
O8    Zn1   S    
O7    Zn1   S    
