data_mof_unit_30357.cif
_audit_creation_date              2012-10-26T21:13:38-0400
_audit_creation_method            fapswitch 2.2
_symmetry_space_group_name_H-M    P1
_symmetry_Int_Tables_number       1
_space_group_crystal_system       triclinic
_cell_length_a                    9.063752
_cell_length_b                    10.832599
_cell_length_c                    9.572915
_cell_angle_alpha                 89.611605
_cell_angle_beta                  89.645276
_cell_angle_gamma                 90.449943
_cell_volume                      939.838097521

loop_
_atom_site_label
_atom_site_type_symbol
_atom_type_description
_atom_site_fract_x
_atom_site_fract_y
_atom_site_fract_z
_atom_type_partial_charge
C1    C     C_R   0.502658 0.262383 0.500271 0.547811
C2    C     C_R   0.593369 0.576184 0.925224 0.127125
C3    C     C_3   0.757794 0.576834 0.918714 -0.282627
C4    C     C_R   0.220783 0.499981 0.500250 0.558763
C5    C     C_3   0.757529 0.577399 0.077107 -0.274408
C6    C     C_R   0.501598 0.737523 0.499568 0.550752
C7    C     C_R   0.779224 0.500122 0.499774 0.550712
C8    C     C_1   0.065596 0.500087 0.500393 -0.071180
C9    C     C_1   0.934411 0.500132 0.499712 -0.074527
C10   C     C_R   0.511306 0.062397 0.625343 0.002728
C11   C     C_R   0.516606 0.129248 0.500322 0.007869
C12   C     C_R   0.539715 0.936525 0.374269 -0.161781
C13   C     C_R   0.540835 0.065374 0.374780 -0.160089
C14   C     C_3   0.137990 0.412689 0.875991 -0.298801
C15   C     C_R   0.513367 0.870670 0.499130 0.031135
C16   C     C_R   0.507459 0.935419 0.624525 0.054045
C17   C     C_3   0.400299 0.929015 0.744324 -0.039934
C18   C     C_3   0.405656 0.069449 0.745199 -0.224168
C19   C     C_R   0.593007 0.576531 0.072327 0.142285
C20   C     C_R   0.399167 0.433564 0.076537 -0.003860
C21   C     C_R   0.396255 0.435196 0.927783 0.231807
Cu1   Cu    Cu3+1 0.499990 0.499980 0.640670 0.958246
Cu2   Cu    Cu3+1 0.500010 0.500020 0.359330 0.933091
H1    H     H_    0.554259 0.114295 0.276414 0.133252
H2    H     H_    0.803560 0.490371 0.874755 0.148996
H3    H     H_    0.180596 0.904266 0.782653 0.220748
H4    H     H_    0.260126 0.785470 0.702820 0.251013
H5    H     H_    0.289817 0.273518 0.885768 0.211629
H6    H     H_    0.099230 0.399439 0.985488 0.104013
H7    H     H_    0.061792 0.362136 0.805822 0.143120
H8    H     H_    0.134014 0.512541 0.848865 0.165932
H9    H     H_    0.802629 0.663509 0.871665 0.126507
H10   H     H_    0.803488 0.491373 0.122802 0.154792
H11   H     H_    0.802056 0.664475 0.121595 0.127033
H12   H     H_    0.553159 0.889172 0.275762 0.130884
H13   H     H_    0.445506 0.884493 0.839911 0.125925
H14   H     H_    0.300206 0.114184 0.715468 0.160530
H15   H     H_    0.459249 0.106997 0.840166 0.102753
H16   H     H_    0.320256 0.377483 0.134352 0.120199
N1    N     N_R   0.500920 0.500930 0.147930 -0.249416
N2    N     N_R   0.500930 0.500890 0.852020 -0.212269
N3    N     N_3   0.255411 0.881800 0.703398 -0.626669
N4    N     N_2   0.286114 0.365502 0.858490 -0.459418
O1    O     O_R   0.500000 0.319640 0.618810 -0.479722
O2    O     O_R   0.500020 0.319680 0.381230 -0.513715
O3    O     O_R   0.288380 0.499980 0.618770 -0.471106
O4    O     O_R   0.288400 0.500020 0.381190 -0.501330
O5    O     O_R   0.499980 0.680320 0.618770 -0.509082
O6    O     O_R   0.500000 0.680360 0.381190 -0.503193
O7    O     O_R   0.711600 0.499980 0.618810 -0.506262
O8    O     O_R   0.711620 0.500020 0.381230 -0.500138

loop_
_geom_bond_atom_site_label_1
_geom_bond_atom_site_label_2
_ccdc_geom_bond_type
C8    C9    T    
Cu1   O5    S    
C5    C19   S    
C17   H13   S    
C1    O1    A    
Cu2   O8    S    
C1    C11   S    
C12   C15   A    
Cu1   O7    S    
C14   H8    S    
C4    C8    S    
C5    H11   S    
C2    C3    S    
C18   H15   S    
C7    O8    A    
C10   C16   A    
C12   C13   A    
C12   H12   S    
C11   C13   A    
H4    N3    S    
C1    O2    A    
C6    O5    A    
C10   C18   S    
Cu2   O2    S    
C7    O7    A    
Cu1   O3    S    
C18   H14   S    
C14   H7    S    
Cu1   O1    S    
C17   C18   S    
C6    O6    A    
C3    H9    S    
C20   N1    A    
C21   N2    A    
Cu2   O6    S    
Cu1   N2    S    
Cu2   O4    S    
C10   C11   A    
C2    N2    A    
Cu2   N1    S    
C3    H2    S    
C20   C21   A    
H3    N3    S    
C19   N1    A    
C2    C19   A    
C7    C9    S    
C20   H16   S    
Cu1   Cu2   S    
C14   N4    S    
C4    O3    A    
H5    N4    S    
C6    C15   S    
C17   N3    S    
C21   N4    S    
C15   C16   A    
C13   H1    S    
C14   H6    S    
C16   C17   S    
C3    C5    S    
C4    O4    A    
C5    H10   S    
