data_mof_unit_59139.cif
_audit_creation_date              2012-10-26T20:00:34-0400
_audit_creation_method            fapswitch 2.2
_symmetry_space_group_name_H-M    P1
_symmetry_Int_Tables_number       1
_space_group_crystal_system       triclinic
_cell_length_a                    11.688469
_cell_length_b                    12.994322
_cell_length_c                    13.429479
_cell_angle_alpha                 92.489997
_cell_angle_beta                  76.491681
_cell_angle_gamma                 100.431954
_cell_volume                      1950.50863155

loop_
_atom_site_label
_atom_site_type_symbol
_atom_type_description
_atom_site_fract_x
_atom_site_fract_y
_atom_site_fract_z
_atom_type_partial_charge
C1    C     C_R   0.521603 0.700864 0.501366 0.581977
C2    C     C_R   0.397962 0.495682 0.808245 -0.006367
C3    C     C_R   0.463363 0.186511 0.503946 -0.038362
C4    C     C_R   0.435967 0.493295 0.695967 0.532374
C5    C     C_R   0.535875 0.814963 0.498746 -0.025487
C6    C     C_R   0.649000 0.980527 0.425301 -0.007160
C7    C     C_R   0.641474 0.873187 0.439562 0.241603
C8    C     C_R   0.440925 0.864453 0.549968 -0.067970
C9    C     C_R   0.444296 0.970979 0.531069 0.011722
C10   C     C_R   0.551514 0.029840 0.471645 -0.067248
C11   C     C_R   0.559716 0.137693 0.460749 -0.135772
C12   C     C_R   0.448153 0.494892 0.975371 0.019032
C13   C     C_R   0.355062 0.128363 0.555010 -0.103980
C14   C     C_R   0.343582 0.020963 0.567920 0.279356
C15   C     C_R   0.948006 0.597201 0.594984 -0.166554
C16   C     C_R   0.478312 0.299418 0.499280 0.547962
C17   C     C_R   0.828738 0.587861 0.587025 0.129048
C18   C     C_R   0.856475 0.457260 0.459125 0.040199
C19   C     C_R   0.977209 0.464325 0.465292 -0.038281
C20   C     C_R   0.023206 0.535367 0.533967 -0.014245
C21   C     C_R   0.143173 0.542047 0.540968 0.002786
C22   C     C_R   0.173580 0.412144 0.412120 0.437466
C23   C     C_R   0.467191 0.463904 0.871113 -0.015652
C24   C     C_R   0.052494 0.401642 0.405183 -0.163781
C25   C     C_R   0.563422 0.501094 0.304091 0.581942
C26   C     C_R   0.704702 0.401845 0.045513 -0.088432
C27   C     C_R   0.597823 0.486385 0.192945 0.015834
C28   C     C_R   0.299596 0.543256 0.852227 -0.114360
C29   C     C_R   0.273756 0.565662 0.956312 -0.011121
C30   C     C_R   0.348170 0.543806 0.017109 -0.118167
C31   C     C_3   0.880724 0.470757 0.175681 -0.097179
C32   C     C_1   0.754934 0.037572 0.357897 0.222743
C33   C     C_3   0.162834 0.937520 0.547210 -0.113891
C34   C     C_R   0.529981 0.475919 0.033392 -0.026759
C35   C     C_3   0.824524 0.836745 0.442284 -0.088243
C36   C     C_1   0.346698 0.807183 0.628625 0.277597
C37   C     C_3   0.243658 0.343245 0.252217 -0.119554
C38   C     C_1   0.754657 0.651694 0.653526 0.247717
C39   C     C_3   0.669523 0.215225 0.848446 -0.120559
C40   C     C_1   0.173841 0.616779 0.999998 0.188349
C41   C     C_R   0.623041 0.419595 0.988896 0.015013
C42   C     C_R   0.631139 0.378745 0.889663 0.266195
C43   C     C_R   0.554192 0.401275 0.831961 -0.089137
C44   C     C_R   0.521874 0.510865 0.134765 -0.176225
C45   C     C_R   0.693741 0.435921 0.146987 0.246649
Cu1   Cu    Cu3+1 0.386470 0.492430 0.492410 1.007884
Cu2   Cu    Cu3+1 0.613530 0.507570 0.507590 1.003461
H1    H     H_    0.279533 0.166567 0.587320 0.146978
H2    H     H_    0.562636 0.366945 0.756415 0.148338
H3    H     H_    0.641633 0.185260 0.419396 0.152863
H4    H     H_    0.938261 0.450240 0.224039 0.122444
H5    H     H_    0.875318 0.555170 0.188438 0.158547
H6    H     H_    0.924853 0.456698 0.094690 0.129885
H7    H     H_    0.205648 0.887281 0.485519 0.116428
H8    H     H_    0.143213 0.007350 0.513603 0.120976
H9    H     H_    0.076278 0.890993 0.587287 0.141923
H10   H     H_    0.789521 0.828788 0.526644 0.118939
H11   H     H_    0.883342 0.913991 0.424485 0.123076
H12   H     H_    0.178489 0.595561 0.594732 0.147677
H13   H     H_    0.880465 0.775703 0.417409 0.142096
H14   H     H_    0.327100 0.319839 0.206638 0.152216
H15   H     H_    0.237729 0.420179 0.222131 0.092203
H16   H     H_    0.168113 0.282348 0.240377 0.124102
H17   H     H_    0.626189 0.188273 0.928187 0.122841
H18   H     H_    0.604537 0.197751 0.798627 0.118291
H19   H     H_    0.742071 0.169787 0.818577 0.158489
H20   H     H_    0.981627 0.652146 0.649019 0.112399
H21   H     H_    0.016829 0.344321 0.354326 0.102143
H22   H     H_    0.820195 0.402337 0.406696 0.154278
H23   H     H_    0.774928 0.357877 0.012678 0.170304
H24   H     H_    0.454842 0.555348 0.172379 0.129204
H25   H     H_    0.245454 0.566776 0.804735 0.151359
H26   H     H_    0.324183 0.565031 0.096668 0.098528
N1    N     N_R   0.215880 0.481050 0.481000 -0.222524
N2    N     N_R   0.784100 0.518950 0.519000 -0.244847
N3    N     N_1   0.839416 0.083168 0.304124 -0.298072
N4    N     N_1   0.272186 0.761885 0.691927 -0.292796
N5    N     N_1   0.695726 0.703225 0.707532 -0.303858
N6    N     N_1   0.093793 0.658111 0.034944 -0.305457
O1    O     O_R   0.419710 0.645650 0.494620 -0.521276
O2    O     O_3   0.233946 0.966846 0.618906 -0.549079
O3    O     O_3   0.732825 0.822493 0.387936 -0.540548
O4    O     O_3   0.248786 0.348162 0.356392 -0.522291
O5    O     O_3   0.720110 0.322453 0.845815 -0.572063
O6    O     O_R   0.611450 0.658430 0.507430 -0.467940
O7    O     O_R   0.357340 0.490460 0.641450 -0.514938
O8    O     O_R   0.549080 0.503250 0.654260 -0.500678
O9    O     O_R   0.388550 0.341570 0.492570 -0.454435
O10   O     O_R   0.580290 0.354350 0.505380 -0.517507
O11   O     O_R   0.450920 0.496750 0.345740 -0.482528
O12   O     O_R   0.642660 0.509540 0.358550 -0.460758
O13   O     O_3   0.766827 0.407516 0.204632 -0.567364

loop_
_geom_bond_atom_site_label_1
_geom_bond_atom_site_label_2
_ccdc_geom_bond_type
C33   H8    S    
C6    C32   S    
C18   N2    A    
Cu2   O10   S    
C41   C42   A    
C19   C20   A    
C31   H5    S    
C37   H15   S    
C4    O8    A    
C39   H17   S    
C12   C23   A    
C25   O11   A    
C35   H11   S    
C1    C5    S    
Cu2   O6    S    
C28   C29   A    
C39   O5    S    
C21   H12   S    
C36   N4    T    
C4    O7    A    
C23   C43   A    
C44   H24   S    
C18   C19   A    
C8    C36   S    
C45   O13   S    
C26   C45   A    
C27   C44   A    
C8    C9    A    
C9    C10   A    
C3    C13   A    
C27   C45   A    
C33   H9    S    
C16   O10   A    
C13   C14   A    
C39   H18   S    
C28   H25   S    
C34   C41   A    
C37   H16   S    
C35   O3    S    
Cu1   O9    S    
C1    O6    A    
C15   C20   A    
C25   O12   A    
C34   C44   A    
C5    C7    A    
C30   H26   S    
C43   H2    S    
C38   N5    T    
C21   N1    A    
C35   H13   S    
Cu2   O8    S    
C2    C4    S    
C9    C14   A    
C32   N3    T    
C29   C30   A    
C5    C8    A    
C15   H20   S    
C40   N6    T    
C42   O5    S    
C31   H6    S    
C26   H23   S    
C39   H19   S    
C22   C24   A    
C42   C43   A    
C22   N1    A    
C12   C34   A    
Cu1   N1    S    
C17   N2    A    
C33   H7    S    
C15   C17   A    
Cu1   Cu2   S    
C12   C30   A    
Cu2   O12   S    
C31   H4    S    
C6    C10   A    
C13   H1    S    
C37   H14   S    
C6    C7    A    
Cu1   O11   S    
C25   C27   S    
C35   H10   S    
C22   O4    S    
C19   C24   A    
Cu2   N2    S    
C11   H3    S    
Cu1   O1    S    
C18   H22   S    
C29   C40   S    
C17   C38   S    
C3    C11   A    
C10   C11   A    
C24   H21   S    
C7    O3    S    
C20   C21   A    
C31   O13   S    
C2    C23   A    
C16   O9    A    
C1    O1    A    
C37   O4    S    
C2    C28   A    
C14   O2    S    
C33   O2    S    
C3    C16   S    
C26   C41   A    
Cu1   O7    S    
