data_mof_unit_22112.cif
_audit_creation_date              2012-12-10T18:11:47-0500
_audit_creation_method            fapswitch 2.2
_symmetry_space_group_name_H-M    P1
_symmetry_Int_Tables_number       1
_space_group_crystal_system       triclinic
_cell_length_a                    10.495055
_cell_length_b                    12.615209
_cell_length_c                    13.13376
_cell_angle_alpha                 82.370339
_cell_angle_beta                  90.414971
_cell_angle_gamma                 102.163563
_cell_volume                      1684.4024324

loop_
_atom_site_label
_atom_site_type_symbol
_atom_type_description
_atom_site_fract_x
_atom_site_fract_y
_atom_site_fract_z
_atom_type_partial_charge
C1    C     C_R   0.479976 0.438920 0.691086 0.846002
C2    C     C_R   0.465100 0.446982 0.973518 0.084242
C3    C     C_R   0.433492 0.467850 0.869498 0.084231
C4    C     C_R   0.742248 0.500355 0.499964 0.860641
C5    C     C_R   0.464986 0.529535 0.036395 0.076542
C6    C     C_R   0.413452 0.622729 0.000190 0.174559
C7    C     C_R   0.364295 0.633421 0.901490 -0.255821
C8    C     C_R   0.374056 0.556920 0.836745 -0.203237
C9    C     C_R   0.517411 0.522794 0.133910 -0.259298
C10   C     C_R   0.452961 0.688994 0.164748 -0.213841
C11   C     C_R   0.464245 0.399761 0.800659 -0.114125
C12   C     C_3   0.066694 0.599226 0.517473 -0.135514
C13   C     C_R   0.314173 0.088848 0.349462 -0.301977
C14   C     C_R   0.654289 0.799684 0.629289 0.035024
C15   C     C_R   0.685663 0.904069 0.657462 -0.255980
C16   C     C_R   0.513287 0.560976 0.308835 0.856062
C17   C     C_R   0.626282 0.985187 0.608585 -0.184471
C18   C     C_R   0.534690 0.961999 0.530598 0.014106
C19   C     C_R   0.506311 0.854332 0.504984 0.183608
C20   C     C_R   0.470677 0.040848 0.477455 -0.061258
C21   C     C_R   0.377159 0.010119 0.401354 0.166397
C22   C     C_R   0.349160 0.901864 0.378480 0.139375
C23   C     C_3   0.964551 0.521363 0.591674 -0.187171
C24   C     C_R   0.416126 0.826955 0.428938 -0.237426
C25   C     C_R   0.495969 0.150083 0.496890 -0.039857
C26   C     C_R   0.343877 0.194930 0.372579 0.002581
C27   C     C_R   0.257866 0.499879 0.499599 0.841573
C28   C     C_3   0.933822 0.401696 0.481427 -0.132956
C29   C     C_3   0.023225 0.422774 0.573572 -0.181624
C30   C     C_3   0.122648 0.500375 0.499359 0.035009
C31   C     C_3   0.035958 0.479589 0.407240 -0.182958
C32   C     C_3   0.977205 0.578165 0.425356 -0.178893
C33   C     C_3   0.248320 0.863809 0.300960 -0.962433
C34   C     C_3   0.877742 0.500458 0.499598 0.029994
C35   C     C_R   0.410222 0.702990 0.064097 -0.200862
C36   C     C_R   0.502574 0.596472 0.200139 -0.050608
C37   C     C_R   0.497377 0.299875 0.838067 -0.195702
C38   C     C_R   0.508514 0.271013 0.942879 -0.151438
C39   C     C_R   0.495775 0.344565 0.010259 -0.194983
H1    H     H_    0.046723 0.359610 0.633724 0.134256
H2    H     H_    0.699734 0.736042 0.667036 0.136416
H3    H     H_    0.875956 0.320950 0.466772 0.144205
H4    H     H_    0.653806 0.064455 0.633937 0.130207
H5    H     H_    0.755548 0.922065 0.717113 0.147222
H6    H     H_    0.396210 0.746945 0.407103 0.219429
H7    H     H_    0.069863 0.462590 0.332369 0.133920
H8    H     H_    0.954001 0.641488 0.365228 0.137894
H9    H     H_    0.124741 0.679990 0.531936 0.155028
H10   H     H_    0.930846 0.538469 0.666565 0.133448
H11   H     H_    0.441620 0.747128 0.215787 0.162329
H12   H     H_    0.566408 0.457976 0.162109 0.149255
H13   H     H_    0.320505 0.702002 0.873609 0.148806
H14   H     H_    0.370299 0.774067 0.037537 0.136892
H15   H     H_    0.236234 0.775093 0.295615 0.237875
H16   H     H_    0.152009 0.877382 0.323908 0.248611
H17   H     H_    0.277801 0.909453 0.223639 0.244135
H18   H     H_    0.518698 0.245647 0.786134 0.152015
H19   H     H_    0.507216 0.318059 0.090698 0.134471
H20   H     H_    0.532687 0.193357 0.971704 0.141378
H21   H     H_    0.333226 0.567628 0.761131 0.171592
H22   H     H_    0.296060 0.256209 0.333174 0.136518
H23   H     H_    0.242831 0.069918 0.291126 0.159781
H24   H     H_    0.564949 0.180940 0.552449 0.122046
N1    N     N_R   0.432930 0.222190 0.444670 -0.101398
N2    N     N_R   0.566370 0.776980 0.554790 -0.124727
O1    O     O_R   0.467970 0.366730 0.627150 -0.614568
O2    O     O_R   0.510820 0.544830 0.662520 -0.616814
O3    O     O_R   0.664630 0.410960 0.482340 -0.626908
O4    O     O_R   0.707470 0.589060 0.517710 -0.617957
O5    O     O_R   0.489180 0.455170 0.337480 -0.615079
O6    O     O_R   0.532030 0.633270 0.372850 -0.635101
O7    O     O_R   0.292530 0.410940 0.482290 -0.614840
O8    O     O_R   0.335370 0.589040 0.517660 -0.650973
Zn1   Zn    Zn3+2 0.471390 0.381080 0.476380 0.932190
Zn2   Zn    Zn3+2 0.528610 0.618920 0.523620 0.920935

loop_
_geom_bond_atom_site_label_1
_geom_bond_atom_site_label_2
_ccdc_geom_bond_type
C33   H16   S    
C35   H14   S    
C9    H12   S    
C12   H9    S    
C7    C8    A    
C12   C23   S    
C37   C38   A    
C24   H6    S    
C23   C29   S    
C28   C29   S    
C26   H22   S    
C7    H13   S    
C2    C3    A    
C5    C6    A    
C23   H10   S    
C20   C25   A    
O3    Zn1   S    
O1    Zn1   S    
C6    C35   A    
C18   C19   A    
C25   H24   S    
C11   C37   A    
C26   N1    A    
C2    C39   A    
C13   H23   S    
C31   H7    S    
C1    C11   S    
O5    Zn1   S    
C9    C36   A    
O4    Zn2   S    
C10   C35   A    
C33   H17   S    
C28   C34   S    
C21   C22   A    
C12   C32   S    
C27   C30   S    
O8    Zn2   S    
C16   O6    A    
C4    O4    A    
C1    O1    A    
C38   C39   A    
C4    C34   S    
C16   O5    A    
O7    Zn1   S    
C3    C8    A    
C4    O3    A    
C39   H19   S    
C25   N1    A    
C32   C34   S    
C17   H4    S    
C5    C9    A    
C29   C30   S    
C31   C32   S    
C23   C34   S    
C17   C18   A    
C13   C21   A    
C14   H2    S    
C32   H8    S    
C22   C24   A    
C13   C26   A    
C2    C5    A    
O2    Zn2   S    
C10   H11   S    
C33   H15   S    
C15   C17   A    
C22   C33   S    
C12   C30   S    
C28   C31   S    
C15   H5    S    
C6    C7    A    
N2    Zn2   S    
C19   C24   A    
C16   C36   S    
O6    Zn2   S    
C30   C31   S    
C29   H1    S    
C28   H3    S    
C1    O2    A    
C14   N2    A    
C19   N2    A    
C18   C20   A    
C37   H18   S    
C3    C11   A    
C38   H20   S    
C20   C21   A    
N1    Zn1   S    
C14   C15   A    
C10   C36   A    
C27   O8    A    
C8    H21   S    
C27   O7    A    
