data_mof_unit_28677.cif
_audit_creation_date              2012-12-10T20:30:13-0500
_audit_creation_method            fapswitch 2.2
_symmetry_space_group_name_H-M    P1
_symmetry_Int_Tables_number       1
_space_group_crystal_system       triclinic
_cell_length_a                    9.950423
_cell_length_b                    10.764992
_cell_length_c                    13.23146
_cell_angle_alpha                 92.41646
_cell_angle_beta                  71.827952
_cell_angle_gamma                 90.923764
_cell_volume                      1345.41095751

loop_
_atom_site_label
_atom_site_type_symbol
_atom_type_description
_atom_site_fract_x
_atom_site_fract_y
_atom_site_fract_z
_atom_type_partial_charge
Br1   Br    Br    0.912868 0.585015 0.171501 -0.432237
Br2   Br    Br    0.743362 0.143111 0.594044 -0.371982
Br3   Br    Br    0.099101 0.130053 0.533292 -0.303680
Br4   Br    Br    0.901633 0.321966 0.326933 -0.321889
Br5   Br    Br    0.233331 0.331523 0.318228 -0.464213
Br6   Br    Br    0.045716 0.675605 0.777984 -0.436874
Br7   Br    Br    0.114828 0.340425 0.794967 -0.455558
Br8   Br    Br    0.816254 0.881463 0.439427 -0.386934
C1    C     C_R   0.503634 0.739618 0.494630 0.938493
C2    C     C_R   0.384309 0.435303 0.809706 -0.181962
C3    C     C_R   0.378490 0.933172 0.510981 0.055614
C4    C     C_R   0.424458 0.478473 0.699713 0.906181
C5    C     C_R   0.505849 0.872651 0.496480 -0.235997
C6    C     C_R   0.625298 0.941199 0.502722 0.226138
C7    C     C_R   0.609177 0.066459 0.533159 0.279788
C8    C     C_R   0.490762 0.129407 0.524137 -0.276948
C9    C     C_R   0.373167 0.060395 0.520456 0.078598
C10   C     C_3   0.283685 0.069671 0.450099 0.203684
C11   C     C_3   0.290908 0.929704 0.437113 -0.472708
C12   C     C_R   0.445107 0.443537 0.974217 0.084593
C13   C     C_R   0.894434 0.544379 0.586785 0.053929
C14   C     C_R   0.957201 0.431831 0.425349 0.348943
C15   C     C_R   0.101297 0.433177 0.424392 0.268956
C16   C     C_R   0.496699 0.260682 0.507148 0.921139
C17   C     C_R   0.035811 0.545478 0.586427 0.157865
C18   C     C_3   0.020320 0.672332 0.638502 0.110871
C19   C     C_3   0.865262 0.668198 0.643040 -0.460601
C20   C     C_R   0.577698 0.506858 0.297051 0.922688
C21   C     C_R   0.801186 0.496535 0.008771 -0.173418
C22   C     C_R   0.623085 0.510472 0.180978 -0.132639
C23   C     C_R   0.487653 0.428825 0.862581 0.034200
C24   C     C_R   0.243798 0.404494 0.865870 0.283121
C25   C     C_R   0.202186 0.402526 0.976399 -0.109127
C26   C     C_R   0.299212 0.430531 0.030611 -0.168958
C27   C     C_R   0.551286 0.467440 0.023683 0.094239
C28   C     C_R   0.696296 0.464534 0.962282 0.110137
C29   C     C_R   0.734706 0.428557 0.855378 -0.169560
C30   C     C_R   0.631700 0.405365 0.807482 -0.136493
C31   C     C_R   0.517848 0.495328 0.132041 -0.257399
C32   C     C_R   0.765479 0.522133 0.117766 0.288111
H1    H     H_    0.337667 0.116784 0.375242 0.163180
H2    H     H_    0.257995 0.432712 0.115975 0.202061
H3    H     H_    0.094163 0.379411 0.020688 0.201550
H4    H     H_    0.667243 0.367472 0.726932 0.217239
H5    H     H_    0.187209 0.883520 0.470170 0.238532
H6    H     H_    0.351486 0.896147 0.355068 0.191462
H7    H     H_    0.083264 0.743003 0.585390 0.150248
H8    H     H_    0.789840 0.661275 0.724685 0.234269
H9    H     H_    0.844255 0.419010 0.807999 0.217092
H10   H     H_    0.837178 0.739043 0.595646 0.245073
H11   H     H_    0.910911 0.502008 0.960464 0.209222
H12   H     H_    0.409371 0.505565 0.180013 0.201523
N1    N     N_R   0.856940 0.500860 0.500710 -0.140551
N2    N     N_R   0.142580 0.500820 0.500710 -0.159540
O1    O     O_R   0.385310 0.683210 0.499990 -0.621113
O2    O     O_R   0.614650 0.683240 0.500000 -0.581402
O3    O     O_R   0.328390 0.499940 0.653610 -0.543212
O4    O     O_R   0.557730 0.499980 0.653620 -0.642227
O5    O     O_R   0.385350 0.316760 0.500000 -0.572253
O6    O     O_R   0.614690 0.316790 0.500010 -0.567863
O7    O     O_R   0.442270 0.500020 0.346380 -0.606075
O8    O     O_R   0.671610 0.500060 0.346390 -0.549808
Zn1   Zn    Zn3+2 0.346870 0.499980 0.499990 1.044671
Zn2   Zn    Zn3+2 0.653130 0.500020 0.500010 1.049811

loop_
_geom_bond_atom_site_label_1
_geom_bond_atom_site_label_2
_ccdc_geom_bond_type
C19   H8    S    
C27   C31   A    
C11   H5    S    
C30   H4    S    
C29   C30   A    
C1    O1    A    
Br3   C10   S    
C29   H9    S    
O5    Zn1   S    
C27   C28   A    
Br5   C15   S    
C23   C30   A    
C16   O6    A    
O6    Zn2   S    
C4    O4    A    
C20   O7    A    
O2    Zn2   S    
C9    C10   S    
C13   C19   S    
C11   H6    S    
C22   C32   A    
C8    C16   S    
C1    O2    A    
C5    C6    A    
C24   C25   A    
C13   N1    A    
Br2   C7    S    
C3    C5    A    
C21   C28   A    
C3    C11   S    
C18   C19   S    
Br6   C18   S    
O1    Zn1   S    
C2    C4    S    
C18   H7    S    
C15   N2    A    
C16   O5    A    
C4    O3    A    
C21   C32   A    
C20   C22   S    
C28   C29   A    
C22   C31   A    
C25   C26   A    
C14   N1    A    
O4    Zn2   S    
N1    Zn2   S    
Br8   C6    S    
C8    C9    A    
N2    Zn1   S    
C12   C26   A    
C25   H3    S    
C2    C24   A    
Br4   C14   S    
C17   N2    A    
C19   H10   S    
C13   C17   A    
C10   C11   S    
C21   H11   S    
C10   H1    S    
O7    Zn1   S    
C1    C5    S    
C6    C7    A    
C3    C9    A    
O8    Zn2   S    
Br7   C24   S    
Br1   C32   S    
C17   C18   S    
C14   C15   A    
C12   C27   A    
C2    C23   A    
C7    C8    A    
O3    Zn1   S    
C31   H12   S    
C26   H2    S    
C12   C23   A    
C20   O8    A    
