data_mof_unit_54517.cif
_audit_creation_date              2012-12-10T20:44:48-0500
_audit_creation_method            fapswitch 2.2
_symmetry_space_group_name_H-M    P1
_symmetry_Int_Tables_number       1
_space_group_crystal_system       triclinic
_cell_length_a                    9.944847
_cell_length_b                    10.74861
_cell_length_c                    16.828959
_cell_angle_alpha                 88.123378
_cell_angle_beta                  94.152976
_cell_angle_gamma                 89.187436
_cell_volume                      1792.96965118

loop_
_atom_site_label
_atom_site_type_symbol
_atom_type_description
_atom_site_fract_x
_atom_site_fract_y
_atom_site_fract_z
_atom_type_partial_charge
Br1   Br    Br    0.530105 0.887339 0.313897 -0.517057
Br2   Br    Br    0.855999 0.128716 0.409270 -0.602488
Br3   Br    Br    0.816060 0.660470 0.362134 -0.523536
Br4   Br    Br    0.272757 0.298506 0.896513 -0.504172
C1    C     C_R   0.501309 0.260283 0.502704 0.859129
C2    C     C_R   0.506410 0.128088 0.511848 -0.096725
C3    C     C_R   0.406108 0.063752 0.550106 -0.176039
C4    C     C_R   0.517365 0.493192 0.653101 0.873758
C5    C     C_R   0.404692 0.934380 0.549238 -0.211849
C6    C     C_R   0.501209 0.871483 0.508231 -0.060655
C7    C     C_R   0.608202 0.936311 0.479268 0.015991
C8    C     C_3   0.660671 0.937026 0.398352 0.099835
C9    C     C_3   0.669240 0.076402 0.403300 -0.008274
C10   C     C_R   0.078592 0.440349 0.559717 0.177990
C11   C     C_R   0.063433 0.578853 0.450065 0.105211
C12   C     C_R   0.650243 0.474767 0.783406 -0.211298
C13   C     C_R   0.920003 0.571141 0.446208 0.287797
C14   C     C_R   0.937514 0.444117 0.561472 0.139833
C15   C     C_3   0.935255 0.312245 0.591424 -0.438129
C16   C     C_R   0.499422 0.739682 0.501487 0.927221
C17   C     C_3   0.087587 0.306738 0.585883 -0.472567
C18   C     C_R   0.483414 0.496771 0.346158 0.886341
C19   C     C_R   0.527514 0.462921 0.738105 -0.079434
C20   C     C_R   0.416750 0.409894 0.772739 -0.257926
C21   C     C_R   0.426257 0.373771 0.852732 0.290160
C22   C     C_R   0.547006 0.393730 0.899112 0.267882
C23   C     C_R   0.565542 0.391263 0.141648 -0.166858
C24   C     C_R   0.659681 0.440061 0.863817 -0.212679
C25   C     C_3   0.686454 0.329258 0.269063 -0.368708
C26   C     C_3   0.825156 0.378072 0.250504 -0.711466
C27   C     C_3   0.123347 0.686165 0.405686 -0.381704
C28   C     C_3   0.106842 0.807510 0.449054 -0.751091
C29   C     C_3   0.274478 0.633055 0.240685 -0.405531
C30   C     C_3   0.194819 0.721953 0.181079 -0.802095
C31   C     C_R   0.573437 0.404056 0.223758 0.086245
C32   C     C_R   0.467514 0.455360 0.092208 0.253249
C33   C     C_R   0.477065 0.482003 0.258448 -0.112243
C34   C     C_R   0.376666 0.546886 0.207313 0.122638
C35   C     C_R   0.373649 0.530719 0.124922 -0.149379
C36   C     C_R   0.613697 0.063135 0.483208 0.063165
H1    H     H_    0.326991 0.884537 0.578120 0.159941
H2    H     H_    0.737767 0.512657 0.757098 0.175084
H3    H     H_    0.299159 0.577766 0.084175 0.169824
H4    H     H_    0.323085 0.394992 0.737650 0.182662
H5    H     H_    0.327306 0.113099 0.577927 0.160255
H6    H     H_    0.854730 0.342078 0.193063 0.236024
H7    H     H_    0.824263 0.481045 0.245679 0.285569
H8    H     H_    0.902542 0.346921 0.298084 0.276148
H9    H     H_    0.678711 0.324734 0.333856 0.251125
H10   H     H_    0.680365 0.231072 0.250497 0.222749
H11   H     H_    0.140979 0.794337 0.513013 0.248394
H12   H     H_    0.760961 0.891958 0.399094 0.211214
H13   H     H_    0.167391 0.881404 0.421794 0.271110
H14   H     H_    0.999718 0.838691 0.444745 0.276205
H15   H     H_    0.229205 0.669578 0.398172 0.263406
H16   H     H_    0.076250 0.698081 0.344322 0.223091
H17   H     H_    0.134850 0.788393 0.213931 0.268061
H18   H     H_    0.264365 0.776518 0.145272 0.282319
H19   H     H_    0.123342 0.669717 0.141409 0.253344
H20   H     H_    0.201651 0.573647 0.270512 0.217527
H21   H     H_    0.328985 0.692611 0.284357 0.246415
H22   H     H_    0.599094 0.128303 0.359514 0.147746
H23   H     H_    0.905456 0.305327 0.653804 0.202286
H24   H     H_    0.878147 0.251191 0.550155 0.263910
H25   H     H_    0.144623 0.292138 0.644768 0.201057
H26   H     H_    0.638424 0.331234 0.116245 0.173386
H27   H     H_    0.119037 0.245845 0.538171 0.236656
H28   H     H_    0.752639 0.455002 0.899626 0.171285
N1    N     N_2   0.552058 0.384487 0.982441 -0.171231
N2    N     N_2   0.464072 0.452623 0.008344 -0.135548
N3    N     N_R   0.142860 0.499130 0.500540 -0.133195
N4    N     N_R   0.857210 0.499170 0.500530 -0.132997
O1    O     O_R   0.614690 0.316790 0.499990 -0.610165
O2    O     O_R   0.385350 0.316760 0.500000 -0.614939
O3    O     O_R   0.627460 0.498860 0.616130 -0.621950
O4    O     O_R   0.398120 0.498820 0.616130 -0.620630
O5    O     O_R   0.614650 0.683240 0.500000 -0.581551
O6    O     O_R   0.385310 0.683210 0.500010 -0.636423
O7    O     O_R   0.601880 0.501180 0.383870 -0.549778
O8    O     O_R   0.372540 0.501140 0.383870 -0.649601
Zn1   Zn    Zn3+2 0.653130 0.500020 0.499990 1.001673
Zn2   Zn    Zn3+2 0.346870 0.499980 0.500010 0.944999

loop_
_geom_bond_atom_site_label_1
_geom_bond_atom_site_label_2
_ccdc_geom_bond_type
C12   C24   A    
C10   N3    A    
C10   C14   A    
Br4   C21   S    
C25   H9    S    
C25   C26   S    
C16   O5    A    
C3    H5    S    
C10   C17   S    
C26   H8    S    
C31   C33   A    
C18   O7    A    
C1    C2    S    
C4    O4    A    
C4    C19   S    
C3    C5    A    
C14   C15   S    
O1    Zn1   S    
C1    O2    A    
Br2   C9    S    
C9    C36   S    
C9    H22   S    
C15   H23   S    
C30   H17   S    
C19   C20   A    
C27   H16   S    
C5    C6    A    
N4    Zn1   S    
N3    Zn2   S    
C17   H27   S    
C7    C36   A    
Br1   C8    S    
O2    Zn2   S    
C28   H14   S    
C8    H12   S    
C32   N2    S    
C25   H10   S    
C14   N4    A    
C26   H7    S    
C20   C21   A    
O8    Zn2   S    
O4    Zn2   S    
O7    Zn1   S    
O3    Zn1   S    
C35   H3    S    
C23   C31   A    
C21   C22   A    
C18   C33   S    
C4    O3    A    
C28   H11   S    
C33   C34   A    
O6    Zn2   S    
C27   C28   S    
O5    Zn1   S    
C15   H24   S    
C29   C30   S    
C29   H20   S    
C30   H19   S    
C20   H4    S    
C2    C36   A    
C12   H2    S    
C28   H13   S    
C11   C13   A    
C17   H25   S    
C5    H1    S    
C26   H6    S    
C32   C35   A    
C24   H28   S    
C7    C8    S    
C11   C27   S    
C2    C3    A    
C23   C32   A    
C12   C19   A    
C11   N3    A    
C25   C31   S    
C22   C24   A    
C29   C34   S    
C16   O6    A    
C18   O8    A    
C23   H26   S    
C34   C35   A    
C6    C16   S    
Br3   C13   S    
C1    O1    A    
N1    N2    D    
C6    C7    A    
C8    C9    S    
C13   N4    A    
C29   H21   S    
C30   H18   S    
C22   N1    S    
C27   H15   S    
C15   C17   S    
