data_mof_unit_15458.cif
_audit_creation_date              2012-12-11T21:06:10-0500
_audit_creation_method            fapswitch 2.2
_symmetry_space_group_name_H-M    P1
_symmetry_Int_Tables_number       1
_space_group_crystal_system       triclinic
_cell_length_a                    36.20766
_cell_length_b                    39.821049
_cell_length_c                    8.41813
_cell_angle_alpha                 90.0
_cell_angle_beta                  93.268186
_cell_angle_gamma                 90.124357
_cell_volume                      12117.7184162

loop_
_atom_site_label
_atom_site_type_symbol
_atom_type_description
_atom_site_fract_x
_atom_site_fract_y
_atom_site_fract_z
_atom_type_partial_charge
Ba1   Ba    Ba6+2 0.000060 0.523150 0.844950 1.667955
Ba2   Ba    Ba6+2 0.000060 0.476850 0.344950 1.673870
Ba3   Ba    Ba6+2 0.500060 0.023150 0.844950 1.665044
Ba4   Ba    Ba6+2 0.500060 0.976850 0.344950 1.664824
C1    C     C_3   0.987358 0.682447 0.656868 -0.039990
C2    C     C_2   0.897235 0.625823 0.260615 -0.087275
C3    C     C_R   0.631720 0.813297 0.709718 0.588335
C4    C     C_2   0.112536 0.616775 0.460709 -0.094511
C5    C     C_2   0.093038 0.367353 0.895801 -0.100513
C6    C     C_2   0.611336 0.117671 0.453821 -0.092983
C7    C     C_2   0.594050 0.867283 0.904207 -0.111036
C8    C     C_3   0.086458 0.588305 0.501983 0.014434
C9    C     C_3   0.061136 0.391195 0.919158 -0.082059
C10   C     C_3   0.585353 0.089107 0.494773 0.007633
C11   C     C_3   0.561776 0.890529 0.926988 -0.069642
C12   C     C_1   0.084493 0.573254 0.219599 -0.026691
C13   C     C_2   0.396164 0.874628 0.761515 -0.074509
C14   C     C_1   0.085692 0.426363 0.712937 -0.045582
C15   C     C_1   0.583221 0.074274 0.212832 0.001407
C16   C     C_1   0.584642 0.926073 0.716481 -0.037204
C17   C     C_2   0.107015 0.597949 0.182095 -0.141428
C18   C     C_2   0.108491 0.402455 0.668659 -0.106414
C19   C     C_2   0.605638 0.099001 0.174751 -0.128207
C20   C     C_2   0.606454 0.901453 0.669753 -0.116888
C21   C     C_2   0.122855 0.621149 0.309153 0.226300
C22   C     C_2   0.114370 0.371606 0.769654 0.238707
C23   C     C_2   0.621580 0.122093 0.302123 0.224487
C24   C     C_2   0.396904 0.125550 0.259770 -0.088271
C25   C     C_2   0.614097 0.871252 0.774039 0.239790
C26   C     C_R   0.744627 0.282626 0.131780 0.019508
C27   C     C_R   0.739908 0.714648 0.581671 0.019747
C28   C     C_R   0.245435 0.782086 0.138137 0.019373
C29   C     C_R   0.239505 0.214665 0.576421 0.019533
C30   C     C_R   0.779011 0.273021 0.071819 0.049775
C31   C     C_R   0.776951 0.724761 0.559407 0.049409
C32   C     C_R   0.279679 0.772556 0.076593 0.049569
C33   C     C_R   0.276780 0.224595 0.558123 0.049308
C34   C     C_R   0.787392 0.238483 0.050782 0.020185
C35   C     C_3   0.919188 0.404697 0.711661 -0.066437
C36   C     C_R   0.787134 0.759227 0.571943 0.020272
C37   C     C_R   0.288021 0.738048 0.054517 0.020334
C38   C     C_R   0.287254 0.258929 0.574546 0.020246
C39   C     C_3   0.891249 0.519530 0.154971 0.298604
C40   C     C_3   0.890770 0.480628 0.655246 0.301729
C41   C     C_3   0.391076 0.019443 0.154723 0.298248
C42   C     C_3   0.391018 0.980491 0.655571 0.302032
C43   C     C_R   0.737187 0.317390 0.144905 -0.101050
C44   C     C_R   0.731655 0.679879 0.575269 -0.101082
C45   C     C_R   0.238013 0.816833 0.152168 -0.100988
C46   C     C_3   0.920193 0.596100 0.212053 -0.073642
C47   C     C_R   0.230951 0.179982 0.566563 -0.101325
C48   C     C_R   0.848164 0.255008 0.961215 -0.063849
C49   C     C_R   0.850150 0.743839 0.506847 -0.065507
C50   C     C_R   0.348602 0.754663 0.963233 -0.066178
C51   C     C_R   0.350423 0.243388 0.512629 -0.065838
C52   C     C_R   0.266887 0.678421 0.057211 -0.102335
C53   C     C_R   0.269682 0.317517 0.643314 -0.101348
C54   C     C_R   0.766298 0.178829 0.054885 -0.101506
C55   C     C_R   0.769193 0.818010 0.635862 -0.101073
C56   C     C_R   0.240968 0.654144 0.093715 -0.065890
C57   C     C_3   0.419483 0.904358 0.714288 -0.064132
C58   C     C_R   0.243089 0.341173 0.679163 -0.064464
C59   C     C_R   0.740290 0.154594 0.091111 -0.065872
C60   C     C_R   0.742532 0.841608 0.671879 -0.062812
C61   C     C_R   0.822650 0.230297 0.997168 -0.100514
C62   C     C_R   0.824121 0.767976 0.543380 -0.100449
C63   C     C_R   0.323182 0.729915 0.999719 -0.100408
C64   C     C_R   0.324451 0.267551 0.549335 -0.100705
C65   C     C_3   0.854142 0.536374 0.176560 -0.360025
C66   C     C_3   0.853499 0.464030 0.677724 -0.361890
C67   C     C_3   0.353926 0.036224 0.176079 -0.359606
C68   C     C_3   0.420001 0.095892 0.211597 -0.072976
C69   C     C_3   0.353803 0.963869 0.679116 -0.361767
C70   C     C_3   0.133396 0.503950 0.230141 0.479391
C71   C     C_3   0.130619 0.503595 0.712261 0.433506
C72   C     C_3   0.632929 0.000037 0.219548 0.408927
C73   C     C_3   0.636353 0.996991 0.705563 0.447885
C74   C     C_3   0.169395 0.523271 0.210999 -0.444971
C75   C     C_3   0.164328 0.480542 0.737685 -0.391980
C76   C     C_3   0.655269 0.030208 0.286729 -0.387573
C77   C     C_3   0.667881 0.972711 0.673329 -0.394781
C78   C     C_3   0.999408 0.645780 0.665922 0.341032
C79   C     C_1   0.919242 0.424379 0.983399 0.046311
C80   C     C_3   0.000785 0.350207 0.170111 0.342301
C81   C     C_3   0.498587 0.145374 0.667427 0.341924
C82   C     C_3   0.489887 0.853320 0.142203 0.338766
C83   C     C_R   0.822926 0.357250 0.006081 0.587588
C84   C     C_R   0.821523 0.641727 0.478894 0.587718
C85   C     C_R   0.323382 0.856850 0.010255 0.589002
C86   C     C_R   0.320995 0.141572 0.474475 0.587908
C87   C     C_3   0.155078 0.447495 0.150587 -0.112048
C88   C     C_3   0.159961 0.555874 0.823905 -0.232316
C89   C     C_3   0.643379 0.943063 0.113809 -0.161473
C90   C     C_1   0.919493 0.575594 0.482876 0.054192
C91   C     C_3   0.667536 0.043195 0.861875 -0.214109
C92   C     C_3   0.000195 0.737143 0.778543 -0.228175
C93   C     C_3   0.046222 0.282031 0.158938 -0.196044
C94   C     C_3   0.498488 0.235756 0.795562 -0.228900
C95   C     C_3   0.521714 0.780184 0.117953 -0.205549
C96   C     C_1   0.419370 0.924241 0.984839 0.044958
C97   C     C_3   0.991523 0.314722 0.224915 -0.005304
C98   C     C_1   0.419349 0.075526 0.482629 0.053891
C99   C     C_2   0.895779 0.400619 0.025114 -0.098654
C100  C     C_2   0.895962 0.599228 0.524391 -0.095399
C101  C     C_2   0.395838 0.900543 0.026771 -0.111747
C102  C     C_2   0.395717 0.099090 0.523868 -0.096602
C103  C     C_2   0.883072 0.373854 0.907822 0.211397
C104  C     C_2   0.884076 0.626411 0.408404 0.219769
C105  C     C_2   0.383339 0.873565 0.910175 0.207586
C106  C     C_2   0.383751 0.126160 0.407532 0.221340
C107  C     C_R   0.805296 0.298246 0.032223 -0.078565
C108  C     C_3   0.486320 0.181997 0.663620 -0.037319
C109  C     C_R   0.804088 0.700109 0.523985 -0.079149
C110  C     C_R   0.305859 0.797823 0.036395 -0.078157
C111  C     C_R   0.303861 0.199899 0.522757 -0.079267
C112  C     C_R   0.796985 0.332592 0.048071 -0.033411
C113  C     C_R   0.794591 0.665782 0.515246 -0.033920
C114  C     C_R   0.297564 0.832148 0.053038 -0.034034
C115  C     C_R   0.294085 0.165669 0.510535 -0.034022
C116  C     C_R   0.762714 0.341668 0.103954 -0.061498
C117  C     C_R   0.758330 0.656131 0.542707 -0.061072
C118  C     C_R   0.263424 0.841159 0.110490 -0.061676
C119  C     C_3   0.473328 0.819732 0.191259 -0.000668
C120  C     C_R   0.257585 0.156164 0.534331 -0.061047
C121  C     C_R   0.839873 0.289134 0.976599 -0.032737
C122  C     C_R   0.840691 0.709764 0.497036 -0.031152
C123  C     C_R   0.340307 0.788771 0.979273 -0.031681
C124  C     C_R   0.340688 0.209419 0.499336 -0.030928
C125  C     C_3   0.998441 0.644341 0.204880 0.309628
C126  C     C_3   0.000276 0.355929 0.677721 0.328458
C127  C     C_3   0.497058 0.144965 0.207065 0.309024
C128  C     C_3   0.502166 0.855869 0.657641 0.340615
C129  C     C_2   0.938457 0.420675 0.856343 -0.280388
C130  C     C_R   0.865587 0.314318 0.938188 0.587333
C131  C     C_2   0.938935 0.579459 0.356331 -0.280280
C132  C     C_2   0.438788 0.920332 0.858620 -0.281318
C133  C     C_2   0.438787 0.079384 0.356092 -0.281147
C134  C     C_2   0.067349 0.573615 0.353588 -0.231969
C135  C     C_2   0.068249 0.424926 0.846012 -0.208445
C136  C     C_2   0.565697 0.075174 0.345804 -0.235361
C137  C     C_2   0.567819 0.924456 0.851968 -0.229658
C138  C     C_R   0.219766 0.756807 0.182330 0.020253
C139  C     C_R   0.212163 0.239467 0.604885 0.020601
C140  C     C_R   0.718842 0.257406 0.175400 0.020311
C141  C     C_R   0.867047 0.685141 0.459936 0.587473
C142  C     C_R   0.712491 0.739356 0.610515 0.020528
C143  C     C_R   0.261273 0.712919 0.088484 0.019920
C144  C     C_R   0.260383 0.283396 0.614472 0.019787
C145  C     C_R   0.760581 0.213385 0.084556 0.019906
C146  C     C_R   0.760194 0.783680 0.611563 0.019835
C147  C     C_R   0.227534 0.722372 0.154737 0.049381
C148  C     C_R   0.222843 0.273621 0.626852 0.048827
C149  C     C_R   0.726679 0.222930 0.149103 0.049414
C150  C     C_R   0.722880 0.773677 0.628270 0.049087
C151  C     C_R   0.186401 0.764676 0.254132 -0.100441
C152  C     C_R   0.365896 0.813990 0.940028 0.580346
C153  C     C_R   0.174160 0.231380 0.610798 -0.102384
C154  C     C_R   0.685293 0.265383 0.245443 -0.100500
C155  C     C_R   0.674680 0.731000 0.620954 -0.102038
C156  C     C_R   0.161295 0.739847 0.293335 -0.064076
C157  C     C_R   0.147921 0.255614 0.642251 -0.069310
C158  C     C_R   0.660082 0.240626 0.284185 -0.064113
C159  C     C_R   0.648379 0.755145 0.652690 -0.065626
C160  C     C_R   0.168121 0.705909 0.263188 -0.033804
C161  C     C_R   0.158189 0.289120 0.669430 -0.030061
C162  C     C_R   0.666988 0.206654 0.255385 -0.033496
C163  C     C_R   0.366988 0.184772 0.462127 0.587264
C164  C     C_R   0.658379 0.788837 0.675582 -0.028996
C165  C     C_R   0.201257 0.697090 0.193700 -0.079517
C166  C     C_R   0.195650 0.298272 0.661496 -0.079965
C167  C     C_R   0.700305 0.197705 0.187711 -0.079339
C168  C     C_R   0.695614 0.798258 0.663088 -0.080661
C169  C     C_R   0.208111 0.662969 0.163060 -0.027494
C170  C     C_R   0.205886 0.332073 0.687919 -0.031157
C171  C     C_R   0.707240 0.163521 0.158570 -0.028206
C172  C     C_R   0.705542 0.832248 0.685265 -0.030778
C173  C     C_3   0.019513 0.677412 0.212743 -0.330935
C174  C     C_2   0.895714 0.375061 0.758879 -0.076113
C175  C     C_3   0.008987 0.320104 0.729895 -0.323980
C176  C     C_3   0.518071 0.178067 0.214484 -0.326848
C177  C     C_3   0.510778 0.820111 0.710309 -0.335283
C178  C     C_R   0.181990 0.638251 0.202059 0.581310
C179  C     C_R   0.178761 0.356060 0.724031 0.584084
C180  C     C_R   0.680988 0.138871 0.197225 0.583753
C181  C     C_R   0.678342 0.856150 0.721987 0.586413
C182  C     C_R   0.142456 0.680621 0.301295 0.589663
C183  C     C_R   0.131601 0.313684 0.703167 0.585917
C184  C     C_R   0.641218 0.181457 0.293104 0.589710
H1    H     H_    0.002059 0.638447 0.793503 0.112471
H2    H     H_    0.856957 0.440727 0.748651 0.077809
H3    H     H_    0.467682 0.072113 0.358293 0.062788
H4    H     H_    0.039609 0.563343 0.357999 0.063851
H5    H     H_    0.062297 0.447748 0.910687 0.072712
H6    H     H_    0.537580 0.065737 0.348879 0.060895
H7    H     H_    0.559316 0.947153 0.911467 0.071911
H8    H     H_    0.019029 0.623725 0.201101 0.015120
H9    H     H_    0.025000 0.366918 0.624701 0.053377
H10   H     H_    0.517683 0.124354 0.207784 0.011129
H11   H     H_    0.525606 0.865817 0.591766 0.066626
H12   H     H_    0.982549 0.641946 0.313396 -0.000879
H13   H     H_    0.357561 0.059749 0.245294 0.085448
H14   H     H_    0.993736 0.370443 0.785153 -0.068723
H15   H     H_    0.480402 0.143040 0.313498 0.001762
H16   H     H_    0.498988 0.871300 0.765645 -0.072682
H17   H     H_    0.036049 0.680165 0.106308 0.137923
H18   H     H_    0.017828 0.305051 0.627971 0.132015
H19   H     H_    0.535347 0.180377 0.110166 0.139813
H20   H     H_    0.518436 0.804789 0.607020 0.133180
H21   H     H_    0.999859 0.698720 0.217249 0.121406
H22   H     H_    0.984133 0.308319 0.778011 0.147081
H23   H     H_    0.498345 0.199373 0.214493 0.120400
H24   H     H_    0.357388 0.940510 0.749528 0.077712
H25   H     H_    0.486208 0.808732 0.762551 0.153459
H26   H     H_    0.905413 0.515949 0.273724 0.026572
H27   H     H_    0.905055 0.484239 0.773776 0.026086
H28   H     H_    0.405226 0.015919 0.273557 0.026546
H29   H     H_    0.405483 0.984112 0.773737 0.026111
H30   H     H_    0.908284 0.535589 0.079965 0.031376
H31   H     H_    0.907555 0.464434 0.580222 0.028921
H32   H     H_    0.408085 0.035507 0.079642 0.031430
H33   H     H_    0.407704 0.964281 0.580171 0.030589
H34   H     H_    0.155471 0.466174 0.381147 0.175326
H35   H     H_    0.840414 0.542326 0.058600 0.118556
H36   H     H_    0.183179 0.455346 0.120298 0.069390
H37   H     H_    0.136149 0.447698 0.042533 0.111722
H38   H     H_    0.156745 0.421328 0.195443 0.110077
H39   H     H_    0.155693 0.542123 0.585377 0.187244
H40   H     H_    0.162057 0.582948 0.793990 0.115812
H41   H     H_    0.188253 0.546119 0.852484 0.106734
H42   H     H_    0.143019 0.553658 0.928053 0.133451
H43   H     H_    0.683321 0.980180 0.146000 0.189788
H44   H     H_    0.648734 0.943326 0.985336 0.082509
H45   H     H_    0.613179 0.941716 0.124942 0.133458
H46   H     H_    0.839746 0.457794 0.560128 0.119320
H47   H     H_    0.656609 0.920494 0.169220 0.119850
H48   H     H_    0.665268 0.038198 0.616134 0.189971
H49   H     H_    0.685793 0.065009 0.840492 0.111680
H50   H     H_    0.684206 0.023394 0.924560 0.093639
H51   H     H_    0.645504 0.052366 0.935487 0.151209
H52   H     H_    0.039687 0.702475 0.717441 0.239950
H53   H     H_    0.020726 0.750583 0.858438 0.111837
H54   H     H_    0.973370 0.736736 0.836381 0.129962
H55   H     H_    0.996977 0.750869 0.663670 0.110010
H56   H     H_    0.991543 0.267950 0.114345 0.207243
H57   H     H_    0.340209 0.042127 0.058044 0.118568
H58   H     H_    0.051013 0.272854 0.282945 0.109543
H59   H     H_    0.063412 0.304553 0.140569 0.149990
H60   H     H_    0.055019 0.262262 0.076300 0.106585
H61   H     H_    0.538399 0.202067 0.728362 0.238412
H62   H     H_    0.518861 0.248736 0.877919 0.111769
H63   H     H_    0.471676 0.234549 0.853267 0.130554
H64   H     H_    0.495105 0.250404 0.683384 0.109553
H65   H     H_    0.465183 0.773287 0.081616 0.219348
H66   H     H_    0.526168 0.771280 0.242348 0.108455
H67   H     H_    0.542071 0.800025 0.093580 0.152296
H68   H     H_    0.339825 0.957720 0.561832 0.119889
H69   H     H_    0.526455 0.758916 0.036445 0.105156
H70   H     H_    0.119914 0.515916 0.329506 0.044234
H71   H     H_    0.113208 0.502072 0.814721 0.086168
H72   H     H_    0.613948 0.991388 0.307223 0.121650
H73   H     H_    0.980885 0.367902 0.220350 0.064028
H74   H     H_    0.624266 0.990302 0.818758 0.065324
H75   H     H_    0.163377 0.550324 0.197710 0.139309
H76   H     H_    0.183003 0.483312 0.638280 0.114140
H77   H     H_    0.665997 0.045794 0.190938 0.147014
H78   H     H_    0.680026 0.978682 0.558273 0.123136
H79   H     H_    0.183573 0.514453 0.105655 0.120123
H80   H     H_    0.180010 0.486816 0.850696 0.089738
H81   H     H_    0.679536 0.021559 0.362181 0.096482
H82   H     H_    0.690013 0.974261 0.770175 0.104143
H83   H     H_    0.188276 0.520044 0.318513 0.095913
H84   H     H_    0.501232 0.137229 0.793862 0.114070
H85   H     H_    0.155694 0.453965 0.744848 0.103748
H86   H     H_    0.638313 0.045731 0.362903 0.072525
H87   H     H_    0.657876 0.946588 0.668099 0.116672
H88   H     H_    0.977451 0.630309 0.603719 -0.010767
H89   H     H_    0.997112 0.351005 0.038498 -0.043585
H90   H     H_    0.476770 0.130158 0.602829 -0.013086
H91   H     H_    0.488268 0.854923 0.010687 -0.033613
H92   H     H_    0.986053 0.691095 0.531111 0.102455
H93   H     H_    0.960898 0.311972 0.215664 0.064106
H94   H     H_    0.485185 0.191511 0.539297 0.102421
H95   H     H_    0.472887 0.873720 0.189781 0.061415
H96   H     H_    0.442677 0.822103 0.179538 0.069195
H97   H     H_    0.959139 0.684185 0.702121 0.103426
H98   H     H_    0.000680 0.311019 0.351787 0.113234
H99   H     H_    0.458002 0.183228 0.708188 0.104519
H100  H     H_    0.480991 0.814071 0.318162 0.121174
H101  H     H_    0.038485 0.678016 0.320937 0.148234
H102  H     H_    0.031637 0.320160 0.824343 0.118542
H103  H     H_    0.536333 0.179145 0.324732 0.146500
H104  H     H_    0.533993 0.820165 0.801959 0.121414
H105  H     H_    0.884896 0.400845 0.142449 0.127032
H106  H     H_    0.836028 0.519339 0.242077 0.147636
H107  H     H_    0.884389 0.598585 0.640414 0.114116
H108  H     H_    0.384801 0.900944 0.143768 0.130914
H109  H     H_    0.384135 0.098472 0.639879 0.112672
H110  H     H_    0.755343 0.367860 0.116337 0.122530
H111  H     H_    0.750271 0.629908 0.538887 0.122583
H112  H     H_    0.256067 0.867337 0.123565 0.122558
H113  H     H_    0.249306 0.130009 0.527793 0.122491
H114  H     H_    0.124530 0.632436 0.555895 0.089438
H115  H     H_    0.096443 0.345307 0.970923 0.081622
H116  H     H_    0.623433 0.133253 0.549088 0.091764
H117  H     H_    0.835534 0.481344 0.742020 0.146389
H118  H     H_    0.598424 0.845672 0.981579 0.087910
H119  H     H_    0.136255 0.747480 0.347924 0.117699
H120  H     H_    0.119264 0.247852 0.645380 0.115316
H121  H     H_    0.634896 0.248342 0.337382 0.117830
H122  H     H_    0.619884 0.747160 0.659488 0.116558
H123  H     H_    0.178872 0.789918 0.284232 0.067604
H124  H     H_    0.163413 0.206490 0.588782 0.066995
H125  H     H_    0.677676 0.290660 0.274468 0.067588
H126  H     H_    0.664108 0.705946 0.602527 0.067228
H127  H     H_    0.711478 0.326943 0.184269 0.068585
H128  H     H_    0.335836 0.019172 0.241616 0.147664
H129  H     H_    0.704799 0.669877 0.597363 0.068464
H130  H     H_    0.212392 0.826326 0.192751 0.068652
H131  H     H_    0.203878 0.170103 0.585751 0.068357
H132  H     H_    0.886119 0.356948 0.669304 0.098277
H133  H     H_    0.888051 0.644333 0.172362 0.090563
H134  H     H_    0.386752 0.856404 0.672139 0.100289
H135  H     H_    0.387684 0.144023 0.171395 0.089342
H136  H     H_    0.874653 0.247135 0.920508 0.117861
H137  H     H_    0.877983 0.752117 0.485875 0.115259
H138  H     H_    0.375016 0.746834 0.921588 0.115813
H139  H     H_    0.335974 0.981134 0.744395 0.146252
H140  H     H_    0.378429 0.251561 0.494315 0.114958
H141  H     H_    0.290905 0.669156 0.001759 0.067354
H142  H     H_    0.297554 0.326898 0.641670 0.066866
H143  H     H_    0.790487 0.169474 0.001047 0.067220
H144  H     H_    0.796885 0.827622 0.630310 0.067053
H145  H     H_    0.246886 0.628152 0.066934 0.117521
H146  H     H_    0.251941 0.366883 0.700211 0.118322
H147  H     H_    0.746290 0.128559 0.065621 0.115800
H148  H     H_    0.751160 0.867478 0.689404 0.118980
H149  H     H_    0.114281 0.601417 0.060060 0.116100
H150  H     H_    0.857841 0.559878 0.245884 0.084450
H151  H     H_    0.123912 0.405667 0.562780 0.101733
H152  H     H_    0.613649 0.101894 0.053437 0.117620
H153  H     H_    0.619254 0.903156 0.556563 0.105875
H154  H     H_    0.831855 0.204835 0.983585 0.066953
H155  H     H_    0.833964 0.793496 0.545804 0.066444
H156  H     H_    0.332387 0.704466 0.985668 0.066699
H157  H     H_    0.334504 0.293001 0.554405 0.066251
H158  H     H_    0.966985 0.429138 0.855689 0.067897
H159  H     H_    0.967885 0.572343 0.358821 0.062309
H160  H     H_    0.468026 0.926585 0.862126 0.065427
N1    N     N_R   0.856852 0.348024 0.951675 -0.425336
N2    N     N_2   0.142708 0.538081 0.689779 -0.428623
N3    N     N_2   0.658593 0.972917 0.190534 -0.442615
N4    N     N_2   0.650977 0.031066 0.712789 -0.418398
N5    N     N_2   0.012855 0.703301 0.752452 -0.416229
N6    N     N_2   0.007452 0.289412 0.125347 -0.434345
N7    N     N_2   0.511538 0.202316 0.763173 -0.415767
N8    N     N_2   0.484344 0.792476 0.089710 -0.427255
N9    N     N_R   0.857227 0.651554 0.450652 -0.425475
N10   N     N_R   0.357197 0.847687 0.954433 -0.424983
N11   N     N_R   0.356909 0.151291 0.449596 -0.425584
N12   N     N_R   0.149521 0.647110 0.270749 -0.421698
N13   N     N_R   0.142047 0.346717 0.732019 -0.423449
N14   N     N_R   0.648359 0.147915 0.264016 -0.421922
N15   N     N_R   0.641842 0.846535 0.734534 -0.422778
N16   N     N_2   0.141361 0.469141 0.272360 -0.372029
O1    O     O_2   0.072110 0.546320 0.923350 -0.460320
O2    O     O_3   0.970460 0.355607 0.563888 -0.597200
O3    O     O_3   0.473864 0.144261 0.067728 -0.591827
O4    O     O_3   0.469777 0.855670 0.558163 -0.598766
O5    O     O_3   0.958050 0.483830 0.034350 -0.487704
O6    O     O_3   0.958050 0.516170 0.534350 -0.487218
O7    O     O_3   0.458050 0.983830 0.034350 -0.486550
O8    O     O_3   0.458050 0.016170 0.534350 -0.486480
O9    O     O_2   0.815063 0.386985 0.016087 -0.597512
O10   O     O_2   0.813045 0.612020 0.470340 -0.596592
O11   O     O_2   0.315491 0.886569 0.020769 -0.596873
O12   O     O_2   0.072110 0.453680 0.423350 -0.400383
O13   O     O_2   0.312332 0.111938 0.463248 -0.596252
O14   O     O_2   0.113649 0.688513 0.360222 -0.605857
O15   O     O_2   0.099032 0.305690 0.705379 -0.620922
O16   O     O_2   0.612249 0.189444 0.350434 -0.606003
O17   O     O_2   0.599353 0.804993 0.716067 -0.623008
O18   O     O_2   0.895878 0.306212 0.893873 -0.603271
O19   O     O_2   0.898767 0.693575 0.436704 -0.613482
O20   O     O_2   0.396040 0.805913 0.894042 -0.605679
O21   O     O_2   0.398886 0.193083 0.441629 -0.614807
O22   O     O_2   0.188445 0.608726 0.176362 -0.627467
O23   O     O_2   0.572110 0.046320 0.923350 -0.437195
O24   O     O_2   0.187932 0.385194 0.750042 -0.613247
O25   O     O_2   0.687428 0.109265 0.172946 -0.627456
O26   O     O_2   0.687286 0.885436 0.744695 -0.614711
O27   O     O_3   0.042000 0.516250 0.155330 -0.449564
O28   O     O_3   0.042000 0.483750 0.655330 -0.467771
O29   O     O_3   0.542000 0.016250 0.155330 -0.465925
O30   O     O_3   0.542000 0.983750 0.655330 -0.451535
O31   O     O_3   0.012540 0.574900 0.645500 -0.482623
O32   O     O_3   0.012540 0.425100 0.145500 -0.477006
O33   O     O_3   0.512540 0.074900 0.645500 -0.481692
O34   O     O_2   0.572110 0.953680 0.423350 -0.449246
O35   O     O_3   0.512540 0.925100 0.145500 -0.478177
O36   O     O_2   0.066564 0.606259 0.814278 -0.490390
O37   O     O_2   0.082851 0.409620 0.228876 -0.459401
O38   O     O_2   0.567193 0.106154 0.810188 -0.491776
O39   O     O_2   0.577523 0.901328 0.258288 -0.483872
O40   O     O_3   0.110469 0.504960 0.089285 -0.640475
O41   O     O_3   0.110252 0.494412 0.572914 -0.636498
O42   O     O_3   0.612321 0.007267 0.077000 -0.644797
O43   O     O_3   0.609191 0.996095 0.579874 -0.630822
O44   O     O_3   0.033009 0.641695 0.591776 -0.637823
O45   O     O_3   0.884366 0.511245 0.578339 -0.630255
O46   O     O_3   0.036949 0.359002 0.224651 -0.607468
O47   O     O_3   0.532241 0.141991 0.593053 -0.638440
O48   O     O_3   0.526553 0.856156 0.205254 -0.604094
O49   O     O_2   0.928110 0.546600 0.766510 -0.467192
O50   O     O_2   0.928110 0.453400 0.266510 -0.464453
O51   O     O_2   0.428110 0.046600 0.766510 -0.466616
O52   O     O_2   0.428110 0.953400 0.266510 -0.463034
O53   O     O_3   0.987780 0.574950 0.044470 -0.473005
O54   O     O_3   0.987780 0.425050 0.544470 -0.479884
O55   O     O_3   0.487780 0.074950 0.044470 -0.472881
O56   O     O_3   0.884529 0.488834 0.078846 -0.628539
O57   O     O_3   0.487780 0.925050 0.544470 -0.476817
O58   O     O_2   0.932637 0.605851 0.886245 -0.492154
O59   O     O_2   0.930704 0.395745 0.386442 -0.493096
O60   O     O_2   0.432460 0.105642 0.886131 -0.492551
O61   O     O_2   0.429639 0.896647 0.388886 -0.497411
O62   O     O_3   0.384464 0.011104 0.578710 -0.630358
O63   O     O_3   0.384444 0.988715 0.078786 -0.627822
O64   O     O_3   0.974310 0.644239 0.068289 -0.591494
P1    P     P_3+3 0.075650 0.535480 0.098240 0.999435
P2    P     P_3+3 0.951490 0.395933 0.551846 0.965908
P3    P     P_3+3 0.452647 0.104814 0.053041 0.953775
P4    P     P_3+3 0.451270 0.896142 0.552195 0.964911
P5    P     P_3+3 0.048770 0.396256 0.129921 0.968327
P6    P     P_3+3 0.050713 0.601889 0.640675 0.969964
P7    P     P_3+3 0.545584 0.893337 0.134426 0.948911
P8    P     P_3+3 0.550389 0.102153 0.637929 0.970534
P9    P     P_3+3 0.075650 0.464520 0.598240 1.005327
P10   P     P_3+3 0.575650 0.035480 0.098240 0.998480
P11   P     P_3+3 0.575650 0.964520 0.598240 0.997635
P12   P     P_3+3 0.924520 0.535770 0.591580 0.994719
P13   P     P_3+3 0.924520 0.464230 0.091580 0.995856
P14   P     P_3+3 0.424520 0.035770 0.591580 0.995252
P15   P     P_3+3 0.424520 0.964230 0.091580 0.996757
P16   P     P_3+3 0.952808 0.604928 0.053193 0.955249

loop_
_geom_bond_atom_site_label_1
_geom_bond_atom_site_label_2
_ccdc_geom_bond_type
C53   H142  S    
C3    C164  A    
C48   H136  S    
C80   C97   S    
C153  C157  A    
C69   H24   S    
Ba2   O50   S    
C64   H157  S    
C37   C63   A    
O57   P4    S    
C72   H72   S    
C161  C183  A    
C162  C184  A    
C9    C135  S    
C1    N5    S    
C5    H115  S    
C160  C182  A    
C6    H116  S    
C94   H63   S    
C86   O13   D    
C3    N15   Am   
Ba1   O6    S    
C84   O10   D    
O52   P15   D    
C33   C38   A    
C5    C9    S    
C119  N8    S    
C163  O21   D    
C13   C57   S    
C133  H3    S    
C7    C11   S    
C58   H146  S    
C107  C121  A    
C40   C66   S    
C28   C138  A    
C126  H14   S    
C18   H151  S    
C90   C100  D    
C7    H118  S    
Ba3   O7    S    
O41   P9    S    
C75   H76   S    
C175  H18   S    
C83   N1    Am   
C5    C22   D    
C90   C131  D    
C151  H123  S    
Ba4   P11   S    
C181  O26   D    
C23   N14   S    
O56   P13   S    
C25   N15   S    
O29   P10   S    
C71   N2    S    
C138  C147  A    
C15   C19   D    
C132  H160  S    
C128  C177  S    
C148  C166  A    
C125  O64   S    
C91   N4    S    
C142  C150  A    
C73   O43   S    
O32   P5    S    
C36   C146  A    
C61   H154  S    
C108  H94   S    
C74   H83   S    
O30   P11   S    
C40   O45   S    
C70   O40   S    
C169  C178  A    
C83   O9    D    
C27   C44   A    
C72   N3    S    
Ba2   O5    S    
C182  O14   D    
C67   H57   S    
C35   C174  S    
Ba4   O57   S    
C66   H2    S    
C166  C170  A    
C141  O19   D    
C2    H133  S    
C12   C134  D    
C85   O11   D    
C97   N6    S    
C13   C105  D    
C123  C152  A    
C93   H59   S    
O54   P2    S    
O53   P16   S    
C173  H101  S    
O40   P1    S    
H61   N7    S    
O63   P15   S    
C46   C131  S    
C31   C36   A    
C1    C78   S    
C60   H148  S    
C180  N14   Am   
C82   O48   S    
C77   H82   S    
Ba1   P12   S    
C54   H143  S    
C31   C109  A    
O44   P6    S    
C56   H145  S    
C119  H100  S    
C24   H135  S    
C184  N14   Am   
C106  N11   S    
O37   P5    D    
C65   H106  S    
C99   C103  S    
C87   H36   S    
C71   C75   S    
C157  C161  A    
C48   C61   A    
C135  H5    S    
C6    C23   D    
O60   P3    D    
C12   C17   D    
C41   C67   S    
C8    P6    S    
C101  H108  S    
C81   C108  S    
C32   C110  A    
C3    O17   D    
C100  H107  S    
C79   C99   D    
C16   P11   S    
O3    P3    S    
C28   C32   A    
O51   P14   D    
C104  N9    S    
O48   P7    S    
Ba3   P14   S    
C91   H49   S    
C145  C149  A    
C120  H113  S    
C87   N16   S    
Ba4   O8    S    
O28   P9    S    
C177  H104  S    
C60   C172  A    
O12   P9    D    
Ba2   O32   S    
Ba1   O49   S    
C39   C65   S    
C158  C162  A    
C157  H120  S    
C149  C167  A    
C9    P5    S    
C178  N12   Am   
C122  C141  A    
C75   H80   S    
C70   H70   S    
C86   N11   Am   
C26   C30   A    
C70   N16   S    
C154  H125  S    
C6    C10   S    
C44   C117  A    
C8    C134  S    
C109  C122  A    
C24   C106  D    
C78   O44   S    
C111  C124  A    
C112  C116  A    
C127  O3    S    
C65   H35   S    
C98   C133  D    
C12   P1    S    
C143  C147  A    
C85   N10   Am   
C69   H68   S    
C34   C61   A    
C4    C8    S    
C49   H137  S    
Ba4   O35   S    
C84   N9    Am   
C13   H134  S    
O38   P8    D    
C108  N7    S    
C59   H147  S    
C2    C46   S    
C159  H122  S    
C98   P14   S    
O59   P2    D    
Ba3   O23   S    
C69   H139  S    
Ba4   P15   S    
C43   C116  A    
C10   C136  S    
C92   H54   S    
C111  C115  A    
C78   H1    S    
C18   C22   S    
C109  C113  A    
C39   H30   S    
Ba3   Ba4   S    
C126  H9    S    
C179  O24   D    
C81   O47   S    
C17   C21   S    
H52   N5    S    
C14   C18   D    
C80   O46   S    
C16   C137  D    
C144  C148  A    
O36   P6    D    
C103  N1    S    
C127  C176  S    
Ba1   O28   S    
C20   H153  S    
C51   H140  S    
C147  C165  A    
C97   H93   S    
C74   H79   S    
C52   C143  A    
C180  O25   D    
C87   H38   S    
O31   P6    S    
C94   H64   S    
Ba1   O5    S    
C88   H41   S    
O64   P16   S    
C22   N13   S    
O61   P4    D    
C1    H97   S    
C92   H53   S    
H65   N8    S    
C182  N12   Am   
O46   P5    S    
C62   H155  S    
C42   H29   S    
C41   H32   S    
C165  C169  A    
C126  O2    S    
C177  H25   S    
C39   H26   S    
C42   C69   S    
C96   C132  D    
C121  C130  A    
C4    C21   D    
C153  H124  S    
C95   N8    S    
C38   C144  A    
C92   N5    S    
C88   N2    S    
C51   C64   A    
C44   H129  S    
C172  C181  A    
Ba3   O30   S    
Ba4   O52   S    
C29   C139  A    
C175  H22   S    
O58   P16   D    
C156  C160  A    
C17   H149  S    
C95   H66   S    
C119  H96   S    
C178  O22   D    
O1    P1    D    
C95   H69   S    
C40   H27   S    
C26   C140  A    
C175  H102  S    
C76   H81   S    
C137  H7    S    
C20   C25   S    
C101  C105  S    
C11   C137  S    
C152  O20   D    
C124  C163  A    
C107  C112  A    
C108  H99   S    
O35   P7    S    
C176  H19   S    
C127  H15   S    
C34   C145  A    
C67   H128  S    
Ba4   O29   S    
C75   H85   S    
C36   C62   A    
C56   C169  A    
Ba2   O6    S    
H34   N16   S    
C32   C37   A    
C24   C68   S    
C1    H92   S    
C99   H105  S    
Ba3   P10   S    
C128  H16   S    
C73   H74   S    
C72   C76   S    
C127  H10   S    
C93   H58   S    
C94   H62   S    
C79   P13   S    
C89   H45   S    
C125  C173  S    
C29   C33   A    
C52   C56   A    
C92   H55   S    
O7    P15   S    
C129  H158  S    
Ba3   O33   S    
O45   P12   S    
C73   C77   S    
O5    P13   S    
Ba2   O54   S    
C96   C101  D    
Ba1   P1    S    
C83   C112  A    
C89   H44   S    
C139  C148  A    
O4    P4    S    
Ba3   O8    S    
Ba4   O34   S    
C27   C31   A    
C80   H73   S    
O50   P13   D    
O27   P1    S    
C100  C104  S    
C125  H8    S    
O47   P8    S    
C130  O18   D    
C184  O16   D    
C35   C129  S    
C55   C146  A    
C81   H84   S    
C161  C166  A    
C183  N13   Am   
C65   H150  S    
H43   N3    S    
C134  H4    S    
C170  C179  A    
C156  H119  S    
O43   P11   S    
C33   C111  A    
C29   C47   A    
C105  N10   S    
C130  N1    Am   
C131  H159  S    
C39   O56   S    
C89   N3    S    
Ba3   O51   S    
C110  C123  A    
C35   P2    S    
O6    P12   S    
C177  H20   S    
C117  H111  S    
C173  H17   S    
C97   H98   S    
C159  C164  A    
C118  H112  S    
C102  H109  S    
C19   H152  S    
C142  C155  A    
O39   P7    D    
C164  C168  A    
C88   H40   S    
C70   C74   S    
C53   C144  A    
C71   O41   S    
Ba2   O12   S    
C81   H90   S    
C14   P9    S    
C136  H6    S    
C57   C132  S    
H56   N6    S    
C171  C180  A    
Ba2   P9    S    
C163  N11   Am   
O33   P8    S    
C74   H75   S    
C50   H138  S    
C72   O42   S    
O55   P3    S    
C93   H60   S    
C53   C58   A    
O42   P10   S    
C115  C120  A    
C89   H47   S    
C55   C60   A    
C42   H33   S    
C114  C118  A    
O23   P10   D    
C58   C170  A    
C152  N10   Am   
C41   H28   S    
C158  H121  S    
Ba1   Ba2   S    
C66   H46   S    
C66   H117  S    
C173  H21   S    
C140  C149  A    
C113  C117  A    
C95   H67   S    
C52   H141  S    
C27   C142  A    
O8    P14   S    
C16   C20   D    
C15   C136  D    
C82   H95   S    
C21   N12   S    
C45   H130  S    
O49   P12   D    
C19   C23   S    
C138  C151  A    
C174  H132  S    
C73   N4    S    
C47   C120  A    
Ba2   O27   S    
C54   C145  A    
O34   P11   D    
Ba2   P13   S    
C46   P16   S    
C162  C167  A    
C87   H37   S    
C38   C64   A    
C30   C107  A    
C160  C165  A    
C40   H31   S    
C179  N13   Am   
C155  H126  S    
C139  C153  A    
O2    P2    S    
C128  O4    S    
C28   C45   A    
C4    H114  S    
C176  H103  S    
C43   H127  S    
C76   H77   S    
C26   C43   A    
C94   N7    S    
C126  C175  S    
C141  N9    Am   
C91   H51   S    
C50   C63   A    
C167  C171  A    
C55   H144  S    
C128  H11   S    
C10   P8    S    
C77   H87   S    
C91   H50   S    
C176  H23   S    
C78   H88   S    
C11   P7    S    
Ba4   O7    S    
C37   C143  A    
C88   H42   S    
C80   H89   S    
O62   P14   S    
C76   H86   S    
C93   N6    S    
C150  C168  A    
C82   H91   S    
C85   C114  A    
C49   C62   A    
C116  H110  S    
C63   H156  S    
C110  C114  A    
C68   C133  S    
C103  C174  D    
C77   H78   S    
H48   N4    S    
C155  C159  A    
C140  C154  A    
C102  C106  S    
C68   P3    S    
C54   C59   A    
C67   H13   S    
Ba1   O1    S    
C151  C156  A    
C30   C34   A    
C71   H71   S    
C48   C121  A    
C59   C171  A    
C50   C123  A    
Ba1   O31   S    
Ba3   O55   S    
C86   C115  A    
H39   N2    S    
Ba1   O53   S    
C183  O15   D    
C57   P4    S    
C90   P12   S    
C45   C118  A    
C41   O63   S    
C15   P10   S    
C181  N15   Am   
C98   C102  D    
C14   C135  D    
C79   C129  D    
C125  H12   S    
C49   C122  A    
C154  C158  A    
C168  C172  A    
C96   P15   S    
C47   H131  S    
C51   C124  A    
C7    C25   D    
C146  C150  A    
C82   C119  S    
C2    C104  D    
C84   C113  A    
C42   O62   S    
