data_mof_unit_29659.cif
_audit_creation_date              2012-12-10T19:09:36-0500
_audit_creation_method            fapswitch 2.2
_symmetry_space_group_name_H-M    P1
_symmetry_Int_Tables_number       1
_space_group_crystal_system       triclinic
_cell_length_a                    9.583804
_cell_length_b                    10.867438
_cell_length_c                    17.108205
_cell_angle_alpha                 87.307295
_cell_angle_beta                  94.057606
_cell_angle_gamma                 90.945049
_cell_volume                      1775.25953946

loop_
_atom_site_label
_atom_site_type_symbol
_atom_type_description
_atom_site_fract_x
_atom_site_fract_y
_atom_site_fract_z
_atom_type_partial_charge
C1    C     C_R   0.498990 0.262584 0.500951 0.813401
C2    C     C_R   0.652428 0.453728 0.781175 0.314422
C3    C     C_R   0.582816 0.472372 0.142087 -0.167945
C4    C     C_R   0.590799 0.481607 0.222824 -0.300120
C5    C     C_R   0.452759 0.452220 0.100707 0.333779
C6    C     C_R   0.469976 0.473272 0.264432 -0.096175
C7    C     C_R   0.340501 0.443039 0.224259 0.387070
C8    C     C_R   0.333198 0.435559 0.142219 -0.308670
C9    C     C_R   0.623482 0.067700 0.500710 -0.075416
C10   C     C_R   0.497627 0.129345 0.501914 -0.038183
C11   C     C_R   0.373905 0.060930 0.509398 -0.224420
C12   C     C_R   0.517711 0.497738 0.651152 0.890113
C13   C     C_R   0.378441 0.932934 0.516899 -0.210563
C14   C     C_R   0.504465 0.870660 0.511461 -0.012891
C15   C     C_R   0.628512 0.939784 0.505159 -0.026172
C16   C     C_3   0.757422 0.942774 0.561568 0.262570
C17   C     C_3   0.750736 0.082661 0.555955 0.765688
C18   C     C_R   0.065529 0.541720 0.434812 0.024913
C19   C     C_R   0.080792 0.440962 0.559266 0.564183
C20   C     C_R   0.931311 0.443269 0.559282 -0.138433
C21   C     C_R   0.918600 0.537886 0.434265 0.068056
C22   C     C_3   0.906837 0.659910 0.390593 0.590583
C23   C     C_R   0.501839 0.737181 0.504999 0.791742
C24   C     C_3   0.067656 0.664219 0.388657 0.760322
C25   C     C_R   0.481912 0.492856 0.349545 0.810349
C26   C     C_R   0.527765 0.492302 0.737993 -0.307661
C27   C     C_R   0.410895 0.523174 0.779044 0.419794
C28   C     C_R   0.416278 0.507613 0.860545 -0.334572
C29   C     C_R   0.537520 0.463182 0.902893 0.158704
C30   C     C_R   0.654070 0.434165 0.862991 0.374702
Cu1   Cu    Cu3+1 0.640670 0.499980 0.500000 1.013032
Cu2   Cu    Cu3+1 0.359330 0.500020 0.500000 1.044717
H1    H     H_    0.692357 0.495860 0.252452 0.242998
H2    H     H_    0.283234 0.882715 0.527837 0.205773
H3    H     H_    0.852202 0.909594 0.536396 0.080830
H4    H     H_    0.879310 0.400368 0.607521 0.211503
H5    H     H_    0.678457 0.483642 0.112250 0.183010
H6    H     H_    0.325511 0.532181 0.890438 0.205027
H7    H     H_    0.233892 0.417282 0.110282 0.147542
H8    H     H_    0.274666 0.105831 0.512187 0.156540
N1    N     N_2   0.550192 0.453505 0.985952 -0.190500
N2    N     N_2   0.436995 0.453478 0.017573 -0.237625
N3    N     N_R   0.147870 0.500930 0.499500 -0.227430
N4    N     N_R   0.851960 0.500890 0.499500 -0.223435
O1    O     O_R   0.618810 0.319640 0.500000 -0.558327
O2    O     O_R   0.381230 0.319680 0.499990 -0.586238
O3    O     O_R   0.631790 0.498830 0.613930 -0.559712
O4    O     O_R   0.394210 0.498870 0.613920 -0.493231
O5    O     O_R   0.618770 0.680320 0.500010 -0.533287
O6    O     O_R   0.381190 0.680360 0.500000 -0.564510
O7    O     O_R   0.605790 0.501130 0.386080 -0.559579
O8    O     O_R   0.368210 0.501170 0.386070 -0.521935
O9    O     O_3   0.730325 0.890791 0.636475 -0.551188
C31   C     C_3   0.858374 0.866098 0.679736 -0.346610
H9    H     H_    0.925758 0.950139 0.684434 0.151669
H10   H     H_    0.915602 0.792339 0.652958 0.147459
H11   H     H_    0.836236 0.833480 0.740066 0.186618
O10   O     O_3   0.716625 0.133757 0.626075 -0.695399
H12   H     H_    0.804704 0.139661 0.659799 0.325072
O11   O     O_3   0.872265 0.140865 0.526176 -0.641661
C32   C     C_3   0.873344 0.145988 0.443473 -0.415359
H13   H     H_    0.797166 0.214399 0.416853 0.214487
H14   H     H_    0.852169 0.054395 0.418587 0.160139
H15   H     H_    0.978839 0.176925 0.427363 0.197822
O12   O     O_3   0.160082 0.389403 0.622823 -0.526780
C33   C     C_3   0.123979 0.264242 0.635657 -0.279009
H16   H     H_    0.209188 0.219600 0.673514 0.183098
H17   H     H_    0.113700 0.214542 0.580191 0.179993
H18   H     H_    0.027149 0.254457 0.667443 0.163913
O13   O     O_3   0.836430 0.651380 0.316543 -0.720631
H19   H     H_    0.841731 0.734571 0.290356 0.330159
O14   O     O_3   0.849622 0.750234 0.434231 -0.740610
H20   H     H_    0.891641 0.739358 0.488766 0.305530
O15   O     O_3   0.111873 0.648126 0.311728 -0.571926
C34   C     C_3   0.228024 0.721860 0.291753 -0.160238
H21   H     H_    0.311467 0.725865 0.340082 0.184100
H22   H     H_    0.193774 0.815314 0.270766 0.127031
H23   H     H_    0.274547 0.682078 0.241378 0.162780
O16   O     O_3   0.135393 0.759344 0.432267 -0.617015
C35   C     C_3   0.095438 0.879133 0.403152 -0.405931
H24   H     H_    0.053400 0.928653 0.451317 0.198819
H25   H     H_    0.016641 0.881506 0.352095 0.175986
H26   H     H_    0.189268 0.931168 0.385165 0.187242
O17   O     O_3   0.773865 0.391993 0.904910 -0.559093
C36   C     C_3   0.769893 0.262131 0.907777 -0.245533
H27   H     H_    0.769821 0.225641 0.848047 0.183834
H28   H     H_    0.677809 0.225392 0.938041 0.154080
H29   H     H_    0.865299 0.228000 0.941939 0.177114
O18   O     O_3   0.770384 0.425733 0.743765 -0.554377
C37   C     C_3   0.865717 0.525811 0.749996 -0.255000
H30   H     H_    0.891557 0.550186 0.811839 0.186679
H31   H     H_    0.824063 0.607279 0.714929 0.156712
H32   H     H_    0.965191 0.500059 0.726117 0.210201
O19   O     O_3   0.223280 0.420689 0.265611 -0.688104
H33   H     H_    0.142463 0.401454 0.228537 0.327658
O20   O     O_3   0.287879 0.564131 0.740021 -0.521379
C38   C     C_3   0.293841 0.693820 0.732329 -0.284254
H34   H     H_    0.382882 0.726471 0.697996 0.159446
H35   H     H_    0.300588 0.735463 0.790710 0.148942
H36   H     H_    0.196104 0.726525 0.699851 0.169180

loop_
_geom_bond_atom_site_label_1
_geom_bond_atom_site_label_2
_ccdc_geom_bond_type
C33   H17   S    
C5    N2    S    
C2    O18   S    
C18   C21   A    
N1    N2    D    
C19   C20   A    
C12   O4    A    
C1    O1    A    
C38   H34   S    
C7    C8    A    
O9    C31   S    
C26   C27   A    
C18   C24   S    
C28   C29   A    
C12   O3    A    
C16   H3    S    
C1    O2    A    
C23   O5    A    
C33   H18   S    
C15   C16   S    
C32   H14   S    
C16   O9    S    
Cu2   O8    S    
C20   N4    A    
C31   H9    S    
C16   C17   S    
O13   H19   S    
C8    H7    S    
C9    C10   A    
C17   O10   S    
C33   H16   S    
Cu1   O3    S    
C21   C22   S    
Cu2   O4    S    
C27   O20   S    
C32   H13   S    
Cu1   O5    S    
C35   H26   S    
C22   O14   S    
C38   H35   S    
C19   N3    A    
C36   H28   S    
C31   H10   S    
Cu1   N4    S    
O17   C36   S    
C35   H25   S    
O15   C34   S    
C35   H24   S    
C23   O6    A    
O10   H12   S    
C36   H27   S    
C12   C26   S    
O11   C32   S    
C14   C23   S    
C32   H15   S    
C34   H21   S    
C25   O7    A    
C29   C30   A    
C21   N4    A    
C24   O16   S    
C37   H31   S    
Cu1   Cu2   S    
C28   H6    S    
O20   C38   S    
O19   H33   S    
C2    C26   A    
C34   H22   S    
Cu2   O6    S    
C9    C17   S    
C22   C24   S    
C4    C6    A    
C3    C4    A    
C38   H36   S    
C37   H32   S    
C36   H29   S    
C7    O19   S    
C4    H1    S    
C29   N1    S    
Cu2   O2    S    
C1    C10   S    
Cu1   O7    S    
O14   H20   S    
C3    C5    A    
C5    C8    A    
C6    C7    A    
C2    C30   A    
C9    C15   A    
C25   O8    A    
C13   H2    S    
C18   N3    A    
C6    C25   S    
C11   C13   A    
C24   O15   S    
C37   H30   S    
Cu2   N3    S    
C19   O12   S    
C30   O17   S    
C11   H8    S    
C34   H23   S    
C10   C11   A    
C17   O11   S    
O16   C35   S    
C20   H4    S    
C3    H5    S    
O12   C33   S    
Cu1   O1    S    
C27   C28   A    
C14   C15   A    
O18   C37   S    
C13   C14   A    
C22   O13   S    
C31   H11   S    
