data_mof_unit_60840.cif
_audit_creation_date              2012-12-10T20:12:30-0500
_audit_creation_method            fapswitch 2.2
_symmetry_space_group_name_H-M    P1
_symmetry_Int_Tables_number       1
_space_group_crystal_system       triclinic
_cell_length_a                    15.942891
_cell_length_b                    15.942838
_cell_length_c                    59.908793
_cell_angle_alpha                 89.999755
_cell_angle_beta                  89.999749
_cell_angle_gamma                 89.999716
_cell_volume                      15227.3131747

loop_
_atom_site_label
_atom_site_type_symbol
_atom_type_description
_atom_site_fract_x
_atom_site_fract_y
_atom_site_fract_z
_atom_type_partial_charge
C1    C     C_R   0.500000 1.000000 0.810411 0.801044
C2    C     C_R   0.531734 0.851456 0.452766 -0.213897
C3    C     C_1   0.223424 0.723424 0.750000 -0.147675
C4    C     C_1   0.276576 0.223424 0.250000 -0.147675
C5    C     C_1   0.723424 0.776576 0.750000 -0.147303
C6    C     C_1   0.223424 0.723424 0.250000 -0.147308
C7    C     C_1   0.776576 0.276576 0.750000 -0.147675
C8    C     C_R   0.514367 0.073408 0.582559 0.560207
C9    C     C_R   0.515410 0.926802 0.417449 0.560166
C10   C     C_R   0.926615 0.485512 0.582559 0.560204
C11   C     C_R   0.073222 0.484711 0.417448 0.560165
C12   C     C_R   0.485636 0.926590 0.582559 0.560206
C13   C     C_R   0.851064 0.470162 0.547242 -0.213881
C14   C     C_R   0.484586 0.073196 0.417449 0.560167
C15   C     C_R   0.073384 0.514491 0.582558 0.560204
C16   C     C_R   0.926777 0.515286 0.417448 0.560166
C17   C     C_R   0.985361 0.573355 0.082556 0.560177
C18   C     C_R   0.984875 0.426744 0.917446 0.560173
C19   C     C_R   0.426673 0.014776 0.082556 0.560184
C20   C     C_R   0.573282 0.014996 0.917445 0.560185
C21   C     C_R   0.014641 0.426646 0.082556 0.560177
C22   C     C_R   0.015121 0.573257 0.917446 0.560172
C23   C     C_R   0.573328 0.985227 0.082556 0.560185
C24   C     C_R   0.148594 0.468513 0.452765 -0.213902
C25   C     C_R   0.426719 0.985001 0.917445 0.560186
C26   C     C_R   0.424563 0.991284 0.629612 -0.096981
C27   C     C_R   0.424524 0.008396 0.370389 -0.096772
C28   C     C_R   0.008648 0.575448 0.629612 -0.096965
C29   C     C_R   0.991506 0.575463 0.370388 -0.096778
C30   C     C_R   0.575440 0.008715 0.629612 -0.096981
C31   C     C_R   0.575473 0.991603 0.370389 -0.096772
C32   C     C_R   0.991351 0.424555 0.629612 -0.096966
C33   C     C_R   0.008493 0.424534 0.370388 -0.096777
C34   C     C_R   0.075412 0.491045 0.129613 -0.096822
C35   C     C_R   0.470413 0.851013 0.547242 -0.213886
C36   C     C_R   0.075456 0.508547 0.870388 -0.096809
C37   C     C_R   0.508708 0.924561 0.129612 -0.096863
C38   C     C_R   0.491531 0.924532 0.870388 -0.096872
C39   C     C_R   0.924590 0.508955 0.129613 -0.096822
C40   C     C_R   0.924540 0.491454 0.870388 -0.096809
C41   C     C_R   0.491293 0.075441 0.129612 -0.096862
C42   C     C_R   0.508469 0.075465 0.870388 -0.096873
C43   C     C_R   0.424452 0.991538 0.652950 -0.199555
C44   C     C_R   0.424417 0.008151 0.347050 -0.199705
C45   C     C_R   0.008396 0.575558 0.652950 -0.199567
C46   C     C_R   0.468263 0.148542 0.452766 -0.213897
C47   C     C_R   0.991753 0.575571 0.347050 -0.199700
C48   C     C_R   0.575550 0.008461 0.652950 -0.199554
C49   C     C_R   0.575581 0.991848 0.347050 -0.199705
C50   C     C_R   0.991604 0.424444 0.652950 -0.199566
C51   C     C_R   0.008247 0.424427 0.347050 -0.199699
C52   C     C_R   0.075523 0.491300 0.152951 -0.199666
C53   C     C_R   0.075565 0.508299 0.847050 -0.199678
C54   C     C_R   0.508456 0.924452 0.152950 -0.199638
C55   C     C_R   0.491779 0.924424 0.847050 -0.199634
C56   C     C_R   0.924479 0.508700 0.152951 -0.199665
C57   C     C_R   0.148934 0.529839 0.547241 -0.213880
C58   C     C_R   0.924432 0.491702 0.847050 -0.199678
C59   C     C_R   0.491544 0.075550 0.152950 -0.199638
C60   C     C_R   0.508221 0.075574 0.847050 -0.199634
C61   C     C_R   0.500002 1.000000 0.617831 0.293895
C62   C     C_R   0.499998 0.999999 0.382172 0.293408
C63   C     C_R   0.999999 0.500001 0.617830 0.293864
C64   C     C_R   0.999999 0.499999 0.382172 0.293420
C65   C     C_R   0.000001 0.500000 0.117830 0.293543
C66   C     C_R   0.999998 0.500001 0.882171 0.293502
C67   C     C_R   0.500000 0.000001 0.117829 0.293633
C68   C     C_R   0.851404 0.531485 0.452766 -0.213902
C69   C     C_R   0.500000 0.999999 0.882171 0.293637
C70   C     C_R   0.500001 0.999999 0.547221 -0.066565
C71   C     C_R   0.499999 0.999999 0.452787 -0.066582
C72   C     C_R   0.999999 0.500001 0.547220 -0.066566
C73   C     C_R   0.999999 0.499999 0.452787 -0.066579
C74   C     C_R   0.000001 0.500000 0.047218 -0.066577
C75   C     C_R   0.999999 0.500001 0.952784 -0.066579
C76   C     C_R   0.500001 0.000001 0.047217 -0.066574
C77   C     C_R   0.500001 0.999999 0.952784 -0.066572
C78   C     C_R   0.514098 0.074888 0.559072 -0.102217
C79   C     C_R   0.969837 0.648870 0.047239 -0.213888
C80   C     C_R   0.515172 0.925322 0.440936 -0.102113
C81   C     C_R   0.925135 0.485779 0.559071 -0.102200
C82   C     C_R   0.074701 0.484951 0.440935 -0.102128
C83   C     C_R   0.485905 0.925110 0.559072 -0.102217
C84   C     C_R   0.484825 0.074676 0.440936 -0.102114
C85   C     C_R   0.074864 0.514223 0.559071 -0.102202
C86   C     C_R   0.925297 0.515046 0.440935 -0.102128
C87   C     C_R   0.985618 0.574834 0.059069 -0.102162
C88   C     C_R   0.985121 0.425264 0.940933 -0.102136
C89   C     C_R   0.425193 0.014520 0.059068 -0.102161
C90   C     C_R   0.968850 0.351334 0.952763 -0.213889
C91   C     C_R   0.574763 0.014745 0.940932 -0.102166
C92   C     C_R   0.014384 0.425167 0.059069 -0.102162
C93   C     C_R   0.014876 0.574737 0.940933 -0.102135
C94   C     C_R   0.574808 0.985482 0.059068 -0.102160
C95   C     C_R   0.425238 0.985252 0.940932 -0.102166
C96   C     C_R   0.351186 0.030433 0.047238 -0.213885
C97   C     C_R   0.500000 0.000000 0.189589 0.801033
C98   C     C_R   0.648722 0.030884 0.952762 -0.213898
C99   C     C_R   0.030165 0.351131 0.047239 -0.213889
C100  C     C_R   0.031147 0.648667 0.952763 -0.213890
C101  C     C_R   0.648815 0.969568 0.047238 -0.213884
C102  C     C_R   0.351280 0.969113 0.952762 -0.213897
C103  C     C_R   0.500001 1.000000 0.664876 -0.020750
C104  C     C_R   0.499999 1.000000 0.335124 -0.020810
C105  C     C_R   1.000000 0.500001 0.664876 -0.020759
C106  C     C_R   1.000000 0.499999 0.335124 -0.020801
C107  C     C_R   0.000001 0.500000 0.164877 -0.020733
C108  C     C_R   1.000000 0.500000 0.810411 0.801049
C109  C     C_R   0.999999 0.500000 0.835124 -0.020784
C110  C     C_R   0.500000 0.000001 0.164876 -0.020760
C111  C     C_R   0.500000 0.999999 0.835124 -0.020793
C112  C     C_R   0.006545 0.576990 0.988242 -0.053365
C113  C     C_R   0.006036 0.422970 0.011760 -0.053386
C114  C     C_R   0.423000 0.993591 0.988241 -0.053389
C115  C     C_R   0.577021 0.993826 0.011759 -0.053361
C116  C     C_R   0.993453 0.423011 0.988242 -0.053365
C117  C     C_R   0.993964 0.577032 0.011760 -0.053386
C118  C     C_R   0.577001 0.006408 0.988241 -0.053389
C119  C     C_R   0.000000 0.500000 0.189589 0.801022
C120  C     C_R   0.422981 0.006174 0.011759 -0.053361
C121  C     C_R   0.493151 0.076963 0.488245 -0.053367
C122  C     C_R   0.494265 0.922945 0.511763 -0.053387
C123  C     C_R   0.923025 0.506719 0.488244 -0.053390
C124  C     C_R   0.077043 0.505864 0.511762 -0.053363
C125  C     C_R   0.506848 0.923036 0.488245 -0.053368
C126  C     C_R   0.505735 0.077053 0.511763 -0.053388
C127  C     C_R   0.076973 0.493280 0.488244 -0.053390
C128  C     C_R   0.922955 0.494137 0.511762 -0.053363
C129  C     C_R   0.999999 0.500001 0.976483 -0.064438
C130  C     C_R   0.000000 0.500000 0.310411 0.801053
C131  C     C_R   0.000000 0.500001 0.023519 -0.064445
C132  C     C_R   0.500001 0.999999 0.976482 -0.064439
C133  C     C_R   0.500001 0.000000 0.023519 -0.064441
C134  C     C_R   0.499999 0.999999 0.476486 -0.064434
C135  C     C_R   0.500001 0.999999 0.523522 -0.064437
C136  C     C_R   0.999999 0.499999 0.476485 -0.064441
C137  C     C_R   0.999999 0.500000 0.523522 -0.064437
C138  C     C_R   0.028205 0.649980 0.976023 0.706435
C139  C     C_R   0.027212 0.349838 0.023979 0.706465
C140  C     C_R   0.349972 0.972061 0.976022 0.706461
C141  C     C_R   1.000000 0.500000 0.689589 0.801026
C142  C     C_R   0.650114 0.972518 0.023978 0.706441
C143  C     C_R   0.971793 0.350022 0.976023 0.706434
C144  C     C_R   0.972788 0.650163 0.023979 0.706465
C145  C     C_R   0.650030 0.027937 0.976022 0.706461
C146  C     C_R   0.349887 0.027482 0.023978 0.706439
C147  C     C_R   0.471204 0.149867 0.476026 0.706425
C148  C     C_R   0.473374 0.849731 0.523982 0.706469
C149  C     C_R   0.850085 0.528545 0.476025 0.706455
C150  C     C_R   0.150222 0.526878 0.523981 0.706446
C151  C     C_R   0.528795 0.850131 0.476026 0.706425
C152  C     C_R   0.500000 0.000000 0.310411 0.801057
C153  C     C_R   0.526627 0.150268 0.523982 0.706469
C154  C     C_R   0.149914 0.471454 0.476025 0.706454
C155  C     C_R   0.849777 0.473123 0.523982 0.706446
C156  C     C_R   0.660331 0.839669 0.750000 0.855323
C157  C     C_R   0.339669 0.160331 0.250000 0.855005
C158  C     C_R   0.160331 0.660331 0.750000 0.855002
C159  C     C_R   0.839669 0.339669 0.250000 0.855319
C160  C     C_R   0.339669 0.160331 0.750000 0.855319
C161  C     C_R   0.660331 0.839669 0.250000 0.855001
C162  C     C_R   0.839669 0.339669 0.750000 0.855002
C163  C     C_R   0.500000 0.000000 0.689589 0.801019
C164  C     C_R   0.160331 0.660331 0.250000 0.855319
C165  C     C_R   0.660331 0.160331 0.250000 0.855315
C166  C     C_R   0.339669 0.839669 0.750000 0.855002
C167  C     C_R   0.160331 0.339669 0.250000 0.854998
C168  C     C_R   0.839669 0.660331 0.750000 0.855323
C169  C     C_R   0.339669 0.839669 0.250000 0.855316
C170  C     C_R   0.660331 0.160331 0.750000 0.855002
C171  C     C_R   0.839669 0.660331 0.250000 0.854993
C172  C     C_R   0.160331 0.339669 0.750000 0.855319
C173  C     C_1   0.723424 0.223424 0.750000 -0.147675
C174  C     C_R   0.529590 0.148985 0.547242 -0.213885
C175  C     C_1   0.276576 0.776576 0.250000 -0.147311
C176  C     C_1   0.776576 0.723424 0.750000 -0.147303
C177  C     C_1   0.223424 0.276576 0.250000 -0.147677
C178  C     C_1   0.276576 0.776576 0.750000 -0.147675
C179  C     C_1   0.723424 0.223424 0.250000 -0.147311
C180  C     C_1   0.223424 0.276576 0.750000 -0.147302
C181  C     C_1   0.776576 0.723424 0.250000 -0.147675
C182  C     C_1   0.723424 0.776576 0.250000 -0.147673
C183  C     C_1   0.276576 0.223424 0.750000 -0.147301
C184  C     C_1   0.776576 0.276576 0.250000 -0.147308
F1    F     F_    0.055770 0.720642 0.986281 -0.567412
F2    F     F_    0.446558 0.778781 0.513724 -0.567409
F3    F     F_    0.779485 0.556270 0.486284 -0.567303
F4    F     F_    0.221126 0.553811 0.513722 -0.567484
F5    F     F_    0.556635 0.779576 0.486284 -0.567372
F6    F     F_    0.553443 0.221217 0.513723 -0.567410
F7    F     F_    0.220513 0.443729 0.486284 -0.567303
F8    F     F_    0.778872 0.446189 0.513723 -0.567484
F9    F     F_    0.054308 0.278995 0.013721 -0.567379
F10   F     F_    0.279261 0.944622 0.986281 -0.567333
F11   F     F_    0.720908 0.945295 0.013720 -0.567455
F12   F     F_    0.944228 0.279360 0.986282 -0.567412
F13   F     F_    0.945691 0.721006 0.013721 -0.567378
F14   F     F_    0.720741 0.055375 0.986280 -0.567334
F15   F     F_    0.279093 0.054704 0.013720 -0.567455
F16   F     F_    0.443364 0.220422 0.486284 -0.567372
H1    H     H_    0.634714 0.015199 0.661646 0.170149
H2    H     H_    0.865254 0.485096 0.838354 0.170193
H3    H     H_    0.484811 0.134714 0.161646 0.170164
H4    H     H_    0.514764 0.134761 0.838355 0.170191
H5    H     H_    0.134663 0.484370 0.161648 0.170149
H6    H     H_    0.134744 0.514904 0.838354 0.170193
H7    H     H_    0.515189 0.865287 0.161646 0.170165
H8    H     H_    0.485236 0.865238 0.838355 0.170191
H9    H     H_    0.634060 0.015368 0.620658 0.148417
H10   H     H_    0.634125 0.985208 0.379341 0.148716
H11   H     H_    0.984752 0.365929 0.620658 0.148436
H12   H     H_    0.634773 0.985362 0.338355 0.170212
H13   H     H_    0.014964 0.365891 0.379341 0.148707
H14   H     H_    0.365944 0.984631 0.620658 0.148417
H15   H     H_    0.365871 0.014790 0.379341 0.148716
H16   H     H_    0.015247 0.634074 0.620657 0.148437
H17   H     H_    0.985035 0.634106 0.379341 0.148707
H18   H     H_    0.865989 0.515792 0.120660 0.148627
H19   H     H_    0.865902 0.484939 0.879341 0.148658
H20   H     H_    0.484649 0.134064 0.120659 0.148575
H21   H     H_    0.514925 0.134109 0.879342 0.148576
H22   H     H_    0.134013 0.484208 0.120660 0.148628
H23   H     H_    0.984921 0.365274 0.661646 0.170157
H24   H     H_    0.134094 0.515062 0.879341 0.148657
H25   H     H_    0.515351 0.865939 0.120659 0.148575
H26   H     H_    0.485076 0.865888 0.879342 0.148576
H27   H     H_    0.545311 0.206427 0.555949 0.230833
H28   H     H_    0.548283 0.794247 0.444059 0.230788
H29   H     H_    0.793649 0.454345 0.555949 0.230819
H30   H     H_    0.205830 0.452059 0.444058 0.230801
H31   H     H_    0.454692 0.793571 0.555950 0.230832
H32   H     H_    0.451714 0.205751 0.444058 0.230788
H33   H     H_    0.206349 0.545657 0.555948 0.230820
H34   H     H_    0.014811 0.365243 0.338355 0.170203
H35   H     H_    0.794168 0.547939 0.444058 0.230801
H36   H     H_    0.953893 0.706250 0.055947 0.230824
H37   H     H_    0.952527 0.294061 0.944056 0.230798
H38   H     H_    0.293835 0.046481 0.055946 0.230808
H39   H     H_    0.706024 0.047106 0.944054 0.230811
H40   H     H_    0.046109 0.293751 0.055947 0.230824
H41   H     H_    0.047470 0.705940 0.944055 0.230798
H42   H     H_    0.706166 0.953521 0.055946 0.230808
H43   H     H_    0.293978 0.952891 0.944055 0.230811
H44   H     H_    0.365288 0.984801 0.661646 0.170149
H45   H     H_    0.365225 0.014638 0.338355 0.170212
H46   H     H_    0.015079 0.634727 0.661646 0.170157
H47   H     H_    0.985189 0.634755 0.338355 0.170204
H48   H     H_    0.865339 0.515630 0.161648 0.170149
N1    N     N_R   0.500002 0.999999 0.593805 -0.358289
N2    N     N_R   0.499998 0.999999 0.406200 -0.358184
N3    N     N_R   0.999999 0.500002 0.593805 -0.358280
N4    N     N_R   0.999999 0.499998 0.406200 -0.358188
N5    N     N_R   0.000002 0.500000 0.093803 -0.358218
N6    N     N_R   0.999998 0.500001 0.906198 -0.358205
N7    N     N_R   0.500000 0.000002 0.093803 -0.358231
N8    N     N_R   0.500000 0.999998 0.906198 -0.358233
O1    O     O_3   0.500000 0.000000 0.750000 -0.483372
O2    O     O_R   0.500000 0.069020 0.200420 -0.642988
O3    O     O_R   0.069020 0.500000 0.799580 -0.642995
O4    O     O_R   0.930980 0.500000 0.200420 -0.642978
O5    O     O_R   0.000000 0.569020 0.299580 -0.642995
O6    O     O_R   0.000000 0.430980 0.700420 -0.642987
O7    O     O_R   0.430980 1.000000 0.299580 -0.643001
O8    O     O_R   0.569020 0.000000 0.700420 -0.642986
O9    O     O_R   0.000000 0.430980 0.299580 -0.642997
O10   O     O_R   0.000000 0.569020 0.700420 -0.642988
O11   O     O_R   0.569020 1.000000 0.299580 -0.642999
O12   O     O_3   0.500000 0.000000 0.250000 -0.483370
O13   O     O_R   0.430980 0.000000 0.700420 -0.642984
O14   O     O_R   0.597490 0.833170 0.762730 -0.635348
O15   O     O_R   0.402510 0.166830 0.237270 -0.635824
O16   O     O_R   0.166830 0.597490 0.762730 -0.635800
O17   O     O_R   0.833170 0.402510 0.237270 -0.635313
O18   O     O_R   0.402510 0.166830 0.762730 -0.635348
O19   O     O_R   0.597490 0.833170 0.237270 -0.635823
O20   O     O_R   0.833170 0.402510 0.762730 -0.635802
O21   O     O_R   0.166830 0.597490 0.237270 -0.635315
O22   O     O_R   0.597490 0.166830 0.237270 -0.635324
O23   O     O_3   0.000000 0.500000 0.750000 -0.483372
O24   O     O_R   0.402510 0.833170 0.762730 -0.635800
O25   O     O_R   0.166830 0.402510 0.237270 -0.635831
O26   O     O_R   0.833170 0.597490 0.762730 -0.635344
O27   O     O_R   0.402510 0.833170 0.237270 -0.635323
O28   O     O_R   0.597490 0.166830 0.762730 -0.635798
O29   O     O_R   0.833170 0.597490 0.237270 -0.635830
O30   O     O_R   0.166830 0.402510 0.762730 -0.635344
O31   O     O_R   0.097490 0.333170 0.262730 -0.635795
O32   O     O_R   0.902510 0.666830 0.737270 -0.635329
O33   O     O_R   0.666830 0.097490 0.262730 -0.635354
O34   O     O_3   1.000000 0.500000 0.250000 -0.483373
O35   O     O_R   0.333170 0.902510 0.737270 -0.635821
O36   O     O_R   0.902510 0.666830 0.262730 -0.635795
O37   O     O_R   0.097490 0.333170 0.737270 -0.635328
O38   O     O_R   0.333170 0.902510 0.262730 -0.635356
O39   O     O_R   0.666830 0.097490 0.737270 -0.635822
O40   O     O_R   0.097490 0.666830 0.737270 -0.635820
O41   O     O_R   0.902510 0.333170 0.262730 -0.635354
O42   O     O_R   0.666830 0.902510 0.737270 -0.635324
O43   O     O_R   0.333170 0.097490 0.262730 -0.635792
O44   O     O_R   0.902510 0.333170 0.737270 -0.635818
O45   O     O_R   0.500000 0.069020 0.799580 -0.642996
O46   O     O_R   0.097490 0.666830 0.262730 -0.635352
O47   O     O_R   0.333170 0.097490 0.737270 -0.635324
O48   O     O_R   0.666830 0.902510 0.262730 -0.635792
O49   O     O_2   0.528139 0.144864 0.594061 -0.535124
O50   O     O_2   0.530175 0.855539 0.405949 -0.535320
O51   O     O_2   0.855182 0.471621 0.594060 -0.535145
O52   O     O_2   0.144509 0.470066 0.405949 -0.535305
O53   O     O_2   0.471865 0.855134 0.594061 -0.535124
O54   O     O_2   0.469820 0.144459 0.405949 -0.535320
O55   O     O_2   0.144816 0.528383 0.594060 -0.535145
O56   O     O_R   0.500000 0.930980 0.200420 -0.642987
O57   O     O_2   0.855489 0.529930 0.405949 -0.535305
O58   O     O_2   0.971340 0.644767 0.094056 -0.535250
O59   O     O_2   0.970386 0.355426 0.905946 -0.535280
O60   O     O_2   0.355289 0.028932 0.094056 -0.535234
O61   O     O_2   0.644622 0.029370 0.905944 -0.535227
O62   O     O_2   0.028663 0.355234 0.094056 -0.535251
O63   O     O_2   0.029610 0.644576 0.905946 -0.535279
O64   O     O_2   0.644712 0.971072 0.094056 -0.535234
O65   O     O_2   0.355378 0.970627 0.905945 -0.535228
O66   O     O_R   0.930980 0.500000 0.799580 -0.642997
O67   O     O_R   0.069020 0.500000 0.200420 -0.642980
O68   O     O_R   0.500000 0.930980 0.799580 -0.642997
Zn1   Zn    Zn3+2 0.599000 1.000000 0.730930 0.987348
Zn2   Zn    Zn3+2 0.901000 0.500000 0.769070 0.987340
Zn3   Zn    Zn3+2 0.500000 0.099000 0.230930 0.987343
Zn4   Zn    Zn3+2 0.500000 0.901000 0.769070 0.987341
Zn5   Zn    Zn3+2 0.901000 0.500000 0.230930 0.987344
Zn6   Zn    Zn3+2 0.099000 0.500000 0.769070 0.987340
Zn7   Zn    Zn3+2 0.500000 0.901000 0.230930 0.987343
Zn8   Zn    Zn3+2 0.500000 0.099000 0.769070 0.987341
Zn9   Zn    Zn3+2 0.401000 0.000000 0.269070 0.987335
Zn10  Zn    Zn3+2 1.000000 0.599000 0.730930 0.987346
Zn11  Zn    Zn3+2 0.000000 0.401000 0.269070 0.987335
Zn12  Zn    Zn3+2 0.401000 1.000000 0.730930 0.987348
Zn13  Zn    Zn3+2 0.599000 0.000000 0.269070 0.987335
Zn14  Zn    Zn3+2 0.000000 0.401000 0.730930 0.987347
Zn15  Zn    Zn3+2 0.000000 0.599000 0.269070 0.987335
Zn16  Zn    Zn3+2 0.099000 0.500000 0.230930 0.987343

loop_
_geom_bond_atom_site_label_1
_geom_bond_atom_site_label_2
_ccdc_geom_bond_type
C28   H16   S    
C8    C78   A    
C154  F7    S    
C120  C146  A    
O6    Zn14  S    
C39   H18   S    
C4    C177  T    
C79   C87   A    
C16   N4    A    
C2    H28   S    
C41   C67   A    
C55   H8    S    
C56   H48   S    
O45   Zn8   S    
C79   H36   S    
O44   Zn14  S    
O5    Zn15  S    
C36   C66   A    
O29   Zn5   S    
O36   Zn15  S    
C148  F2    S    
C108  C109  S    
C120  C133  A    
C74   C92   A    
C161  C182  S    
C68   C149  A    
C76   C94   A    
C38   C55   A    
C65   N5    S    
C3    C158  S    
C121  C147  A    
C171  C181  S    
C122  C148  A    
C112  C129  A    
C42   H21   S    
C36   H24   S    
C90   C143  A    
C95   C102  A    
C38   H26   S    
C119  O4    A    
C38   C69   A    
C39   C65   A    
C31   C62   A    
C147  F16   S    
C30   H9    S    
C47   H47   S    
C25   N8    A    
C24   C154  A    
C172  O37   A    
C8    N1    A    
C40   C58   A    
C159  O17   A    
C112  C138  A    
C124  C137  A    
C138  F1    S    
C127  C136  A    
C33   H13   S    
C98   H39   S    
C8    O49   S    
O1    Zn1   S    
C12   N1    A    
C174  H27   S    
C164  O46   A    
C172  O30   A    
C39   C56   A    
C115  C118  A    
C93   C100  A    
C44   H45   S    
C124  C127  A    
C46   C84   A    
C99   H40   S    
C152  O7    A    
C19   N7    A    
C25   C95   A    
O26   Zn2   S    
C5    C176  T    
O28   Zn8   S    
O22   Zn3   S    
C41   H20   S    
C75   C93   A    
C53   C109  A    
C106  C130  S    
C77   C91   A    
O18   Zn8   S    
C55   C111  A    
C17   C87   A    
C26   C61   A    
C45   H46   S    
O41   Zn11  S    
C76   C133  A    
O31   Zn11  S    
C43   H44   S    
C104  C152  S    
C89   C96   A    
C143  F12   S    
C57   C85   A    
C91   C98   A    
C160  O47   A    
C130  O5    A    
O32   Zn10  S    
C28   C63   A    
C62   N2    S    
C25   O65   S    
C58   H2    S    
C30   C61   A    
O1    Zn12  S    
C77   C132  A    
C139  F9    S    
C21   C92   A    
C165  O22   A    
C169  O38   A    
C49   C104  A    
C72   C85   A    
O11   Zn13  S    
C29   C47   A    
C30   C48   A    
C68   H35   S    
C150  F4    S    
C54   C110  A    
C161  O19   A    
C64   N4    S    
C130  O9    A    
C162  O20   A    
C27   C44   A    
C60   H4    S    
C9    O50   S    
O25   Zn16  S    
C113  C139  A    
C36   C53   A    
C114  C140  A    
C74   C87   A    
C76   C89   A    
O67   Zn16  S    
C74   C131  A    
C99   C139  A    
C127  C154  A    
C45   C105  A    
C97   O2    A    
C11   C82   A    
C52   H5    S    
C117  C144  A    
C32   H11   S    
C48   C103  A    
O42   Zn1   S    
C18   C88   A    
C15   C85   A    
C169  O27   A    
C170  O28   A    
C27   C62   A    
C101  C142  A    
C4    C157  S    
C53   H6    S    
C157  O43   A    
C101  H42   S    
C167  O25   A    
C166  O35   A    
O12   Zn3   S    
C119  O67   A    
C121  C134  A    
C164  O21   A    
C160  O18   A    
O34   Zn15  S    
C1    O68   A    
C170  O39   A    
C179  C184  T    
C168  C176  S    
C96   H38   S    
C118  C145  A    
C98   C145  A    
O43   Zn9   S    
C96   C146  A    
C11   N4    A    
O7    Zn9   S    
C141  O10   A    
C122  C125  A    
O19   Zn7   S    
C9    N2    A    
C145  F14   S    
C60   C111  A    
O66   Zn2   S    
C165  C179  S    
C10   O51   S    
C37   C67   A    
C49   H12   S    
C35   C148  A    
C117  C131  A    
C29   C64   A    
C118  C132  A    
C155  F8    S    
C21   N5    A    
C97   O56   A    
C61   N1    S    
O12   Zn7   S    
C108  O3    A    
C159  O41   A    
O33   Zn13  S    
C69   N8    S    
C125  C134  A    
C63   N3    S    
O23   Zn14  S    
C14   C84   A    
C71   C134  A    
C181  C182  T    
O8    Zn1   S    
C163  O13   A    
C14   O54   S    
C3    C178  T    
C24   H30   S    
C112  C117  A    
O30   Zn6   S    
C156  O14   A    
C6    C175  T    
C157  O15   A    
C13   C81   A    
O35   Zn12  S    
C158  O16   A    
O48   Zn13  S    
O3    Zn6   S    
C167  O31   A    
C168  O32   A    
C144  F13   S    
C66   N6    S    
C52   C107  A    
C163  O8    A    
C142  F11   S    
C166  C178  S    
C159  C184  S    
C160  C183  S    
C72   C81   A    
C16   O57   S    
C171  O36   A    
C172  C180  S    
C37   H25   S    
C115  C142  A    
O56   Zn7   S    
C40   C66   A    
C16   C86   A    
O23   Zn2   S    
O20   Zn2   S    
C46   H32   S    
O47   Zn12  S    
C31   C49   A    
O27   Zn7   S    
C107  C119  S    
C20   N8    A    
C44   C104  A    
C20   C91   A    
C50   H23   S    
C35   C83   A    
C115  C133  A    
C153  C174  A    
C18   N6    A    
C12   C83   A    
C46   C147  A    
C73   C136  A    
O68   Zn4   S    
C47   C106  A    
O12   Zn9   S    
C169  C175  S    
C102  C140  A    
C70   C83   A    
O4    Zn5   S    
C100  C138  A    
C167  C177  S    
C88   C90   A    
C126  C135  A    
C149  F3    S    
C40   H19   S    
C70   C135  A    
O23   Zn6   S    
O2    Zn3   S    
C73   C82   A    
C165  O33   A    
C2    C151  A    
C124  C150  A    
C90   H37   S    
O14   Zn4   S    
C171  O29   A    
C14   N2    A    
C67   N7    S    
C33   C51   A    
C5    C156  S    
C10   C81   A    
C34   C52   A    
C17   O58   S    
C26   H14   S    
C158  O40   A    
C1    C111  S    
C168  O26   A    
C31   H10   S    
O12   Zn13  S    
C35   H31   S    
C43   C103  A    
C122  C135  A    
O34   Zn5   S    
C13   H29   S    
C126  C153  A    
C59   H3    S    
C102  H43   S    
C140  F10   S    
C114  C120  A    
C100  H41   S    
C170  C173  S    
C123  C149  A    
C70   C78   A    
C58   C109  A    
C68   C86   A    
C141  O6    A    
O10   Zn10  S    
C17   N5    A    
C21   O62   S    
C27   H15   S    
C51   H34   S    
O16   Zn6   S    
C156  O42   A    
C23   O64   S    
C33   C64   A    
C105  C141  S    
C59   C110  A    
C10   N3    A    
O9    Zn11  S    
C146  F15   S    
C161  O48   A    
C24   C82   A    
C13   C155  A    
C128  C155  A    
C116  C129  A    
C94   C101  A    
C125  C151  A    
C180  C183  T    
C113  C116  A    
C29   H17   S    
O13   Zn12  S    
O17   Zn5   S    
C1    O45   A    
O34   Zn16  S    
C34   C65   A    
C166  O24   A    
C71   C80   A    
C26   C43   A    
C153  F6    S    
C152  O11   A    
O39   Zn1   S    
C7    C162  S    
C28   C45   A    
O1    Zn4   S    
C108  O66   A    
C18   O59   S    
C41   C59   A    
C23   N7    A    
C42   C60   A    
C48   H1    S    
C77   C95   A    
C42   C69   A    
C9    C80   A    
C128  C137  A    
C56   C107  A    
C19   C89   A    
O34   Zn11  S    
C50   C105  A    
C116  C143  A    
C79   C144  A    
O21   Zn16  S    
C57   C150  A    
C32   C50   A    
C37   C54   A    
C72   C137  A    
C19   O60   S    
C22   C93   A    
O40   Zn10  S    
O37   Zn14  S    
C162  O44   A    
O24   Zn4   S    
C71   C84   A    
C20   O61   S    
C11   O52   S    
C113  C131  A    
C22   O63   S    
O1    Zn8   S    
C114  C132  A    
C32   C63   A    
C6    C164  S    
C57   H33   S    
O38   Zn9   S    
O15   Zn3   S    
C103  C163  S    
C12   O53   S    
C23   C94   A    
C123  C136  A    
C121  C126  A    
C97   C110  S    
C123  C128  A    
C15   N3    A    
C51   C106  A    
C7    C173  T    
O23   Zn10  S    
C73   C86   A    
C22   N6    A    
C2    C80   A    
O46   Zn15  S    
C75   C129  A    
C75   C88   A    
C151  F5    S    
C92   C99   A    
C54   H7    S    
C78   C174  A    
C34   H22   S    
C15   O55   S    
