data_mof_unit_52860.cif
_audit_creation_date              2013-03-05T16:34:12-0500
_audit_creation_method            fapswitch 2.2
_symmetry_space_group_name_H-M    P1
_symmetry_Int_Tables_number       1
_space_group_crystal_system       triclinic
_cell_length_a                    10.807183
_cell_length_b                    10.797825
_cell_length_c                    9.555373
_cell_angle_alpha                 89.18848
_cell_angle_beta                  90.032588
_cell_angle_gamma                 90.08561
_cell_volume                      1114.94211745

loop_
_atom_site_label
_atom_site_type_symbol
_atom_site_description
_atom_site_fract_x
_atom_site_fract_y
_atom_site_fract_z
_atom_type_partial_charge
O1    O     O_R   0.500000 0.319640 0.618810 -0.564547
O2    O     O_R   0.500010 0.319680 0.381230 -0.590171
C1    C     C_R   0.501416 0.262721 0.501108 0.799877
O3    O     O_R   0.319640 0.499990 0.618790 -0.594231
O4    O     O_R   0.319650 0.500030 0.381210 -0.577071
C2    C     C_R   0.262312 0.501982 0.499766 0.779783
Cu1   Cu    Cu3+1 0.499990 0.499980 0.640670 0.976595
Cu2   Cu    Cu3+1 0.500010 0.500020 0.359330 0.953043
O5    O     O_R   0.499990 0.680320 0.618770 -0.579948
O6    O     O_R   0.500000 0.680360 0.381190 -0.565593
O7    O     O_R   0.680350 0.499970 0.618790 -0.544721
O8    O     O_R   0.680360 0.500010 0.381210 -0.590713
C3    C     C_R   0.502730 0.737760 0.499469 0.852174
C4    C     C_R   0.737491 0.496028 0.500184 0.811117
H1    H     H_    0.309181 0.781860 0.970209 0.100933
C5    C     C_R   0.260354 0.787810 0.187597 -0.124663
H2    H     H_    0.318161 0.867404 0.208682 0.120553
C6    C     C_R   0.193484 0.731200 0.295991 -0.097553
H3    H     H_    0.200292 0.766982 0.400624 0.090562
C7    C     C_R   0.121573 0.625585 0.270342 0.126257
C8    C     C_R   0.113673 0.579997 0.133791 -0.134476
H4    H     H_    0.059493 0.497940 0.112846 0.110440
C9    C     C_R   0.180048 0.637318 0.025185 -0.092402
H5    H     H_    0.175846 0.600530 0.920460 0.135570
C10   C     C_R   0.254638 0.740029 0.052711 -0.107236
C11   C     C_R   0.932959 0.551172 0.389342 -0.228824
H6    H     H_    0.881042 0.596098 0.305721 0.166075
C12   C     C_R   0.871338 0.491459 0.499975 -0.063945
C13   C     C_R   0.938300 0.433378 0.609717 0.030033
C14   C     C_R   0.066615 0.442095 0.608962 -0.239424
H7    H     H_    0.119044 0.396719 0.691847 0.145365
C15   C     C_R   0.128150 0.503120 0.499100 -0.074172
C16   C     C_R   0.060974 0.558136 0.387700 -0.004869
C17   C     C_R   0.898837 0.388474 0.863782 -0.099705
H8    H     H_    0.959688 0.464168 0.890390 0.154569
C18   C     C_R   0.839539 0.321400 0.970604 -0.161304
H9    H     H_    0.854547 0.345644 0.078855 0.134002
C19   C     C_R   0.760768 0.223252 0.937692 -0.115087
H10   H     H_    0.714837 0.171413 0.020439 0.124436
C20   C     C_R   0.741946 0.191509 0.797982 -0.065965
H11   H     H_    0.681876 0.114723 0.772751 0.153109
C21   C     C_R   0.800485 0.258955 0.690825 -0.124766
H12   H     H_    0.784961 0.233488 0.582996 0.099975
C22   C     C_R   0.878078 0.359316 0.722926 0.108700
C23   C     C_R   0.453702 0.062548 0.611509 0.127817
C24   C     C_R   0.511464 0.130182 0.505339 -0.154088
C25   C     C_R   0.587494 0.068709 0.410278 -0.279981
H13   H     H_    0.643181 0.120949 0.335751 0.153107
C26   C     C_R   0.589933 0.938815 0.409570 0.152552
C27   C     C_R   0.511488 0.871572 0.501326 -0.067997
C28   C     C_R   0.452157 0.935212 0.608162 0.042333
C29   C     C_3   0.321492 0.927902 0.658798 -0.525265
C30   C     C_3   0.323493 0.068962 0.663294 -0.027479
H14   H     H_    0.256863 0.892074 0.578862 0.174592
H15   H     H_    0.314448 0.881538 0.762497 0.198390
H16   H     H_    0.258959 0.115711 0.588764 0.150923
C31   C     C_R   0.590002 0.561562 0.072387 0.209842
N1    N     N_R   0.500790 0.500930 0.147930 -0.179133
C32   C     C_R   0.418688 0.429401 0.075510 -0.054981
H17   H     H_    0.350957 0.374447 0.132046 0.140502
C33   C     C_R   0.418665 0.429422 0.926692 -0.087118
H18   H     H_    0.350866 0.374612 0.871821 0.162944
N2    N     N_R   0.500790 0.500890 0.852020 -0.217102
C34   C     C_R   0.589715 0.562006 0.924795 0.241649
C35   C     C_3   0.613609 0.698085 0.917899 0.105703
C36   C     C_3   0.616792 0.696654 0.076650 -0.563289
H19   H     H_    0.535253 0.752568 0.873371 0.114420
H20   H     H_    0.709682 0.714262 0.122089 0.238340
H21   H     H_    0.539387 0.750012 0.122585 0.203640
N3    N     N_3   0.673384 0.876857 0.318387 -0.591860
H22   H     H_    0.662570 0.915623 0.218232 0.210422
H23   H     H_    0.763373 0.897523 0.350876 0.231428
N4    N     N_3   0.316732 0.118202 0.805091 -0.591174
H24   H     H_    0.378405 0.071021 0.871435 0.227446
H25   H     H_    0.227499 0.101310 0.843171 0.228666
N5    N     N_R   0.732929 0.728590 0.853703 0.160938
O9    O     O_R   0.834251 0.674282 0.895055 -0.393291
O10   O     O_R   0.738336 0.812300 0.754681 -0.374677

loop_
_geom_bond_atom_site_label_1
_geom_bond_atom_site_label_2
_geom_bond_distance
_ccdc_geom_bond_type
C36   H20   1.110727 S    
N4    H24   1.047400 S    
C2    C15   1.449992 S    
C31   C36   1.487852 S    
Cu1   Cu2   2.688302 S    
C25   C26   1.402976 A    
C23   C24   1.389458 A    
Cu1   O7    1.960483 S    
C11   H6    1.085316 S    
C35   N5    1.463389 S    
C18   H9    1.082647 S    
C19   C20   1.397674 A    
N5    O10   1.300535 A    
C6    H3    1.079385 S    
O4    C2    1.292010 A    
O7    C4    1.292218 A    
H1    C10   1.078242 S    
C36   H21   1.110585 S    
C23   C28   1.375845 A    
C17   H8    1.081309 S    
C33   N2    1.369465 A    
O5    C3    1.290363 A    
Cu2   N1    2.019914 S    
C5    H2    1.082911 S    
C35   H19   1.112747 S    
C9    H5    1.082766 S    
N3    H22   1.045670 S    
C6    C7    1.403437 A    
C29   H15   1.106430 S    
C20   C21   1.399022 A    
C23   C30   1.493956 S    
C32   H17   1.081580 S    
C8    H4    1.082264 S    
N4    H25   1.045776 S    
C21   C22   1.406434 A    
O3    Cu1   1.960137 S    
C29   H14   1.108102 S    
C19   H10   1.082569 S    
O2    Cu2   1.955544 S    
C32   C33   1.422012 A    
C28   C29   1.494577 S    
C17   C22   1.404434 A    
N5    O9    1.301506 A    
O3    C2    1.294738 A    
N1    C32   1.369331 A    
N2    C34   1.361247 A    
O1    C1    1.289391 A    
C13   C14   1.389784 A    
C11   C16   1.385506 A    
C25   H13   1.084250 S    
Cu2   O8    1.960138 S    
C27   C28   1.395509 A    
Cu1   N2    2.019706 S    
C7    C16   1.480927 S    
C5    C6    1.396523 A    
C20   H11   1.082073 S    
O8    C4    1.293583 A    
C26   C27   1.412656 A    
C26   N3    1.428036 S    
C8    C9    1.398554 A    
C13   C22   1.485945 S    
C21   H12   1.083089 S    
C29   C30   1.524475 S    
C31   C34   1.410237 A    
C30   H16   1.112971 S    
C5    C10   1.396384 A    
Cu1   O5    1.955541 S    
C24   C25   1.400133 A    
C12   C13   1.413685 A    
O1    Cu1   1.961390 S    
C30   N4    1.464405 S    
O6    C3    1.296960 A    
O4    Cu2   1.960483 S    
C1    C24   1.435409 S    
C11   C12   1.398919 A    
C15   C16   1.412631 A    
C18   C19   1.397568 A    
O2    C1    1.292542 A    
C34   C35   1.492038 S    
C14   C15   1.399413 A    
C31   N1    1.365556 A    
C14   H7    1.085216 S    
C17   C18   1.398401 A    
C9    C10   1.397973 A    
C33   H18   1.081241 S    
C3    C27   1.448196 S    
C7    C8    1.403581 A    
Cu2   O6    1.961390 S    
C35   C36   1.517163 S    
N3    H23   1.045440 S    
C4    C12   1.447427 S    
