data_mof_unit_38516.cif
_audit_creation_date              2012-12-10T20:53:04-0500
_audit_creation_method            fapswitch 2.2
_symmetry_space_group_name_H-M    P1
_symmetry_Int_Tables_number       1
_space_group_crystal_system       triclinic
_cell_length_a                    18.426466
_cell_length_b                    18.373233
_cell_length_c                    18.202258
_cell_angle_alpha                 60.153106
_cell_angle_beta                  60.19596
_cell_angle_gamma                 59.881547
_cell_volume                      4365.01889429

loop_
_atom_site_label
_atom_site_type_symbol
_atom_type_description
_atom_site_fract_x
_atom_site_fract_y
_atom_site_fract_z
_atom_type_partial_charge
C1    C     C_R   0.389486 0.109580 0.110885 0.495506
C2    C     C_R   0.346239 0.833101 0.847832 -0.094995
C3    C     C_R   0.906603 0.521298 0.037919 0.011037
C4    C     C_R   0.451986 0.091210 0.964074 -0.003358
C5    C     C_R   0.548423 0.909031 0.036027 0.000238
C6    C     C_R   0.936902 0.955846 0.554844 -0.012093
C7    C     C_R   0.044455 0.063099 0.445671 -0.010484
C8    C     C_R   0.947858 0.554314 0.943864 0.022638
C9    C     C_R   0.052482 0.445885 0.055587 0.020871
C10   C     C_R   0.555564 0.947909 0.944044 0.005027
C11   C     C_R   0.444455 0.052142 0.056135 0.001996
C12   C     C_1   0.804021 0.025226 0.458408 0.224157
C13   C     C_R   0.188592 0.170579 0.673200 -0.080891
C14   C     C_1   0.976236 0.197990 0.540940 0.243551
C15   C     C_1   0.043803 0.621242 0.741221 0.184977
C16   C     C_1   0.956383 0.383036 0.258100 0.196562
C17   C     C_1   0.581496 0.043222 0.743280 0.194591
C18   C     C_1   0.416988 0.956286 0.257437 0.196692
C19   C     C_1   0.980852 0.670904 0.059756 0.218258
C20   C     C_1   0.029793 0.313600 0.937913 0.196287
C21   C     C_1   0.702214 0.030075 0.084845 0.205776
C22   C     C_1   0.285060 0.972070 0.879523 0.190898
C23   C     C_1   0.053103 0.133381 0.781364 0.211352
C24   C     C_R   0.791090 0.811307 0.331478 -0.100628
C25   C     C_1   0.907986 0.852334 0.187852 0.195534
C26   C     C_3   0.116259 0.699416 0.237767 -0.122364
C27   C     C_3   0.815080 0.372767 0.793297 -0.112480
C28   C     C_3   0.732078 0.284837 0.111843 -0.116390
C29   C     C_3   0.464461 0.726954 0.729118 -0.109107
C30   C     C_3   0.348566 0.199331 0.638693 -0.110576
C31   C     C_3   0.704023 0.701664 0.509954 -0.133246
C32   C     C_R   0.055851 0.613127 0.245493 0.321540
C33   C     C_R   0.955964 0.372308 0.750434 0.316425
C34   C     C_R   0.638632 0.257320 0.088555 0.300020
C35   C     C_R   0.389582 0.739991 0.869541 0.313616
C36   C     C_R   0.276180 0.147379 0.614102 0.303720
C37   C     C_R   0.714327 0.835651 0.402485 0.301728
C38   C     C_R   0.992251 0.576178 0.320699 0.048768
C39   C     C_R   0.610496 0.890309 0.889312 0.499127
C40   C     C_R   0.009242 0.423497 0.678542 0.060593
C41   C     C_R   0.589553 0.310569 0.028850 0.060509
C42   C     C_R   0.409430 0.690735 0.950265 0.071375
C43   C     C_R   0.312361 0.068770 0.593839 0.070498
C44   C     C_R   0.684015 0.921326 0.406675 0.082478
C45   C     C_R   0.923502 0.574137 0.309260 -0.170504
C46   C     C_R   0.069267 0.436886 0.692570 -0.150970
C47   C     C_R   0.583857 0.271370 0.983298 -0.139399
C48   C     C_R   0.388042 0.734789 0.006651 -0.141940
C49   C     C_R   0.261730 0.013516 0.634288 -0.146562
C50   C     C_R   0.107980 0.111609 0.390119 0.532390
C51   C     C_R   0.732724 0.979054 0.343319 -0.155207
C52   C     C_R   0.918998 0.606635 0.223496 -0.136232
C53   C     C_R   0.076675 0.399711 0.777657 -0.134070
C54   C     C_R   0.622056 0.179277 0.000778 -0.107926
C55   C     C_R   0.347465 0.827328 0.983143 -0.121107
C56   C     C_R   0.176009 0.035636 0.694859 -0.137343
C57   C     C_R   0.808039 0.954363 0.273497 -0.152521
C58   C     C_R   0.984611 0.639016 0.148226 -0.002822
C59   C     C_R   0.023105 0.350180 0.849919 -0.014952
C60   C     C_R   0.666644 0.125424 0.063685 -0.016745
C61   C     C_R   0.888356 0.892143 0.609980 0.538445
C62   C     C_R   0.326639 0.876643 0.903713 -0.014116
C63   C     C_R   0.139527 0.113723 0.715017 -0.013921
C64   C     C_R   0.836862 0.871210 0.266677 -0.013779
C65   C     C_R   0.948770 0.588547 0.466427 -0.160201
C66   C     C_R   0.052591 0.411892 0.532838 -0.111241
C67   C     C_R   0.592281 0.462854 0.965177 -0.130157
C68   C     C_R   0.407210 0.537615 0.026834 -0.126742
C69   C     C_R   0.464643 0.980966 0.592873 -0.157683
C70   C     C_R   0.533844 0.016474 0.408279 -0.130674
C71   C     C_R   0.949062 0.553147 0.554383 0.022940
C72   C     C_R   0.109449 0.389773 0.110881 0.498841
C73   C     C_R   0.051923 0.447140 0.445159 0.045435
C74   C     C_R   0.551970 0.555428 0.943828 0.023099
C75   C     C_R   0.447664 0.444909 0.049240 0.020161
C76   C     C_R   0.555715 0.943398 0.551944 0.040538
C77   C     C_R   0.443252 0.054325 0.448919 0.036514
C78   C     C_R   0.002151 0.463935 0.587870 0.014185
C79   C     C_R   0.999100 0.536398 0.411461 0.011084
C80   C     C_R   0.457808 0.593375 0.973470 0.009354
C81   C     C_R   0.541643 0.407210 0.015377 0.014865
C82   C     C_R   0.590650 0.960631 0.458181 0.020561
C83   C     C_R   0.890916 0.610271 0.888671 0.505485
C84   C     C_R   0.407720 0.035688 0.542924 0.004568
C85   C     C_R   0.108708 0.390189 0.389882 0.543857
C86   C     C_R   0.891586 0.609829 0.610038 0.506466
C87   C     C_R   0.390415 0.389813 0.108508 0.505473
C88   C     C_R   0.609519 0.610229 0.889670 0.490560
C89   C     C_R   0.389125 0.110670 0.390909 0.540063
C90   C     C_R   0.610674 0.888595 0.609232 0.529348
C91   C     C_R   0.064668 0.027147 0.318159 -0.081489
C92   C     C_R   0.970012 0.937815 0.683253 -0.080047
C93   C     C_R   0.187431 0.456953 0.923872 -0.092576
C94   C     C_R   0.053640 0.640933 0.159129 -0.047746
C95   C     C_R   0.812860 0.543301 0.075585 -0.098513
C96   C     C_R   0.403408 0.182388 0.928580 -0.094805
C97   C     C_R   0.597720 0.818144 0.071380 -0.090346
C98   C     C_R   0.021288 0.020682 0.278239 -0.132512
C99   C     C_R   0.976006 0.981959 0.722843 -0.138520
C100  C     C_R   0.229023 0.489159 0.832327 -0.137063
C101  C     C_R   0.771139 0.512449 0.167289 -0.145371
C102  C     C_R   0.410483 0.221859 0.838746 -0.133355
C103  C     C_R   0.590808 0.778825 0.161172 -0.126609
C104  C     C_R   0.935558 0.017666 0.325845 -0.120497
C105  C     C_R   0.963621 0.335630 0.836419 -0.087975
C106  C     C_R   0.980238 0.067475 0.674386 -0.127797
C107  C     C_R   0.179203 0.543702 0.775385 -0.127484
C108  C     C_R   0.820836 0.459454 0.224357 -0.127687
C109  C     C_R   0.467895 0.173126 0.780917 -0.121369
C110  C     C_R   0.532664 0.827316 0.219176 -0.106230
C111  C     C_R   0.898861 0.006550 0.417329 0.029666
C112  C     C_R   0.992904 0.103125 0.582598 0.024302
C113  C     C_R   0.086738 0.566711 0.808910 -0.001046
C114  C     C_R   0.913307 0.436234 0.190685 -0.000241
C115  C     C_R   0.518465 0.083643 0.812186 0.006023
C116  C     C_R   0.675078 0.164248 0.107302 -0.097154
C117  C     C_R   0.481252 0.916486 0.188121 0.010295
C118  C     C_R   0.950613 0.996785 0.461186 -0.006452
C119  C     C_R   0.002602 0.050679 0.539181 -0.007002
C120  C     C_R   0.041628 0.534430 0.903968 0.009388
C121  C     C_R   0.958597 0.466677 0.095511 0.006535
C122  C     C_R   0.509268 0.039692 0.906080 -0.001771
C123  C     C_R   0.490721 0.960432 0.094128 -0.002592
C124  C     C_R   0.022607 0.028185 0.407580 -0.005129
C125  C     C_R   0.970543 0.978813 0.593274 -0.005782
C126  C     C_R   0.093704 0.479040 0.961521 0.012692
H1    H     H_    0.972869 0.106161 0.708518 0.144493
H2    H     H_    0.335433 0.567383 0.050803 0.153472
H3    H     H_    0.436841 0.967960 0.664774 0.133880
H4    H     H_    0.561196 0.028730 0.336477 0.149105
H5    H     H_    0.130800 0.029895 0.278149 0.160588
H6    H     H_    0.966624 0.871784 0.724016 0.170800
H7    H     H_    0.230285 0.414299 0.964619 0.105472
H8    H     H_    0.770068 0.585072 0.034765 0.109226
H9    H     H_    0.359054 0.224956 0.969551 0.116542
H10   H     H_    0.642568 0.775696 0.030331 0.118313
H11   H     H_    0.051765 0.024082 0.208674 0.130557
H12   H     H_    0.897581 0.025375 0.291095 0.107492
H13   H     H_    0.971675 0.952144 0.792678 0.143836
H14   H     H_    0.300648 0.471374 0.805284 0.113504
H15   H     H_    0.699514 0.530259 0.194357 0.114455
H16   H     H_    0.372300 0.291362 0.813464 0.110448
H17   H     H_    0.629604 0.709554 0.186320 0.113965
H18   H     H_    0.105331 0.664582 0.100791 0.122729
H19   H     H_    0.924789 0.294569 0.892398 0.113611
H20   H     H_    0.708280 0.122180 0.157069 0.106996
H21   H     H_    0.327533 0.871498 0.787859 0.102358
H22   H     H_    0.159806 0.231564 0.688124 0.113851
H23   H     H_    0.786496 0.436815 0.295943 0.121187
H24   H     H_    0.811245 0.748750 0.323199 0.116492
H25   H     H_    0.873824 0.546701 0.366777 0.124353
H26   H     H_    0.110666 0.475803 0.637351 0.126811
H27   H     H_    0.547377 0.311989 0.936294 0.106777
H28   H     H_    0.404285 0.697467 0.068074 0.115606
H29   H     H_    0.290041 0.951521 0.621341 0.121416
H30   H     H_    0.707834 0.046396 0.343450 0.139150
H31   H     H_    0.865072 0.605351 0.215782 0.132811
H32   H     H_    0.124407 0.409313 0.787112 0.128297
H33   H     H_    0.615145 0.149883 0.966671 0.129753
H34   H     H_    0.213494 0.567519 0.703933 0.117742
H35   H     H_    0.332455 0.860441 0.026860 0.124874
H36   H     H_    0.138988 0.990729 0.727515 0.129920
H37   H     H_    0.840687 0.002382 0.221362 0.110644
H38   H     H_    0.050231 0.733769 0.279400 0.123008
H39   H     H_    0.127137 0.738325 0.165221 0.133073
H40   H     H_    0.167685 0.696925 0.254791 0.145855
H41   H     H_    0.790549 0.437262 0.803303 0.145119
H42   H     H_    0.809811 0.317381 0.858386 0.116947
H43   H     H_    0.770731 0.378545 0.764719 0.141112
H44   H     H_    0.766262 0.305247 0.037843 0.097259
H45   H     H_    0.526501 0.794211 0.289656 0.125799
H46   H     H_    0.769187 0.215002 0.144806 0.113924
H47   H     H_    0.733143 0.328259 0.136869 0.159462
H48   H     H_    0.522904 0.729601 0.730285 0.136427
H49   H     H_    0.490400 0.680103 0.693312 0.138565
H50   H     H_    0.427739 0.793168 0.690109 0.116956
H51   H     H_    0.381656 0.129629 0.676496 0.135916
H52   H     H_    0.289400 0.233581 0.685667 0.124557
H53   H     H_    0.396463 0.235281 0.604029 0.144531
H54   H     H_    0.730725 0.710351 0.546924 0.134257
H55   H     H_    0.757456 0.658381 0.468952 0.109348
H56   H     H_    0.474156 0.206245 0.710428 0.104762
H57   H     H_    0.655523 0.666719 0.560871 0.125534
H58   H     H_    0.908022 0.656769 0.440635 0.120294
H59   H     H_    0.093993 0.343889 0.558235 0.143926
H60   H     H_    0.663929 0.433182 0.941610 0.117054
N1    N     N_1   0.727901 0.041172 0.490682 -0.275094
N2    N     N_1   0.251746 0.048761 0.860137 -0.314596
N3    N     N_1   0.983688 0.148367 0.835062 -0.293423
N4    N     N_1   0.964617 0.839254 0.123313 -0.316076
N5    N     N_1   0.961781 0.274180 0.508819 -0.263145
N6    N     N_1   0.010351 0.664637 0.686313 -0.303179
N7    N     N_1   0.990408 0.340573 0.312474 -0.279557
N8    N     N_1   0.631984 0.011375 0.687699 -0.268130
N9    N     N_1   0.365615 0.987270 0.313564 -0.305997
N10   N     N_1   0.977789 0.696745 0.988620 -0.282649
N11   N     N_1   0.035128 0.284361 0.008624 -0.287453
N12   N     N_1   0.730609 0.953443 0.101948 -0.270543
O1    O     O_3   0.250000 0.250000 0.250000 -0.448923
O2    O     O_R   0.865800 0.694910 0.573470 -0.558845
O3    O     O_R   0.305090 0.426530 0.134200 -0.545740
O4    O     O_R   0.694910 0.573470 0.865800 -0.575540
O5    O     O_R   0.426530 0.134200 0.305090 -0.536431
O6    O     O_R   0.573470 0.865800 0.694910 -0.559061
O7    O     O_R   0.134190 0.426530 0.134200 -0.546394
O8    O     O_R   0.865810 0.573470 0.865800 -0.541336
O9    O     O_R   0.426530 0.134200 0.134190 -0.536775
O10   O     O_R   0.573470 0.865800 0.865810 -0.532279
O11   O     O_R   0.134200 0.134190 0.426530 -0.527131
O12   O     O_3   0.750000 0.750000 0.750000 -0.437714
O13   O     O_R   0.865800 0.865810 0.573470 -0.519983
O14   O     O_R   0.426530 0.305080 0.134210 -0.534915
O15   O     O_R   0.573470 0.694920 0.865790 -0.550051
O16   O     O_R   0.305080 0.134210 0.426530 -0.531000
O17   O     O_R   0.694920 0.865790 0.573470 -0.528155
O18   O     O_R   0.134210 0.426530 0.305080 -0.507962
O19   O     O_R   0.865790 0.573470 0.694920 -0.539356
O20   O     O_3   0.125850 0.611428 0.256464 -0.557056
O21   O     O_3   0.902684 0.354036 0.732803 -0.553455
O22   O     O_3   0.642739 0.296062 0.134438 -0.559649
O23   O     O_R   0.305080 0.134200 0.134200 -0.545486
O24   O     O_3   0.407823 0.695091 0.816350 -0.574339
O25   O     O_3   0.325952 0.202223 0.573503 -0.567397
O26   O     O_3   0.659511 0.784373 0.457109 -0.576337
O27   O     O_R   0.694920 0.865800 0.865800 -0.536856
O28   O     O_R   0.134200 0.134200 0.305080 -0.540285
O29   O     O_R   0.865800 0.865800 0.694920 -0.539423
O30   O     O_R   0.134200 0.305080 0.134200 -0.524476
O31   O     O_R   0.865800 0.694920 0.865800 -0.526477
O32   O     O_R   0.134200 0.305090 0.426530 -0.534031
Zn1   Zn    Zn3+2 0.206620 0.206630 0.380140 1.001481
Zn2   Zn    Zn3+2 0.793380 0.793370 0.619860 0.974260
Zn3   Zn    Zn3+2 0.206630 0.380140 0.206620 0.971784
Zn4   Zn    Zn3+2 0.793370 0.619860 0.793380 0.921312
Zn5   Zn    Zn3+2 0.380140 0.206620 0.206630 0.963311
Zn6   Zn    Zn3+2 0.619860 0.793380 0.793370 0.934338
Zn7   Zn    Zn3+2 0.206620 0.206620 0.206620 0.969752
Zn8   Zn    Zn3+2 0.793380 0.793380 0.793380 0.980359

loop_
_geom_bond_atom_site_label_1
_geom_bond_atom_site_label_2
_ccdc_geom_bond_type
C109  H56   S    
C68   C80   A    
C48   C55   A    
C32   C94   A    
C15   N6    T    
C26   H39   S    
C42   C80   S    
C65   C79   A    
C96   C102  A    
C26   O20   S    
C8    C83   S    
O27   Zn8   S    
C87   O14   A    
C46   H26   S    
C1    C11   S    
C9    C72   S    
C7    C124  A    
C36   C43   A    
C92   C125  A    
C107  H34   S    
C53   C59   A    
O9    Zn5   S    
C106  C112  A    
C68   C75   A    
C40   C46   A    
C77   C89   S    
C53   H32   S    
C59   C105  A    
C103  C110  A    
O12   Zn8   S    
C6    C61   S    
C18   C117  S    
C92   H6    S    
C83   O8    A    
C44   C82   S    
C25   N4    T    
O1    Zn3   S    
C21   N12   T    
C61   O13   A    
C34   O22   S    
C28   H47   S    
C91   H5    S    
C38   C79   S    
C34   C116  A    
C71   C86   S    
C55   C62   A    
C56   H36   S    
C70   H4    S    
C108  H23   S    
C69   C76   A    
C1    O23   A    
O11   Zn1   S    
C108  C114  A    
C35   C42   A    
O1    Zn1   S    
C93   C126  A    
C107  C113  A    
C38   C45   A    
C16   N7    T    
C100  H14   S    
C54   H33   S    
C4    C96   A    
C114  C121  A    
C101  H15   S    
C28   H46   S    
C50   O11   A    
C20   C59   S    
C57   H37   S    
C66   H59   S    
C9    C121  A    
C30   H53   S    
C15   C113  S    
C51   C57   A    
O12   Zn6   S    
O15   Zn6   S    
C27   H43   S    
C13   H22   S    
C67   H60   S    
C27   H42   S    
C110  H45   S    
C101  C108  A    
C23   C63   S    
C118  C124  A    
C105  H19   S    
C19   N10   T    
C24   C64   A    
C115  C122  A    
C74   C80   A    
C31   H55   S    
C70   C77   A    
C87   O3    A    
C43   C84   S    
C99   H13   S    
C17   N8    T    
C34   C41   A    
C93   C100  A    
C29   H49   S    
C1    O9    A    
O16   Zn1   S    
O1    Zn7   S    
C110  C117  A    
C5    C10   A    
C90   O17   A    
C96   H9    S    
C90   O6    A    
C33   O21   S    
C19   C58   S    
C41   C47   A    
C29   O24   S    
C66   C78   A    
C51   H30   S    
C33   C40   A    
C39   O27   A    
O13   Zn2   S    
C98   H11   S    
O17   Zn2   S    
C7    C119  A    
C33   C105  A    
C55   H35   S    
C13   C36   A    
C3    C8    A    
C88   O15   A    
C35   O24   S    
C76   C82   A    
C2    C35   A    
C43   C49   A    
C54   C60   A    
C47   H27   S    
C45   C52   A    
C2    H21   S    
C65   C71   A    
C66   C73   A    
C106  H1    S    
C95   H8    S    
O29   Zn8   S    
C16   C114  S    
C10   C39   S    
C45   H25   S    
C25   C64   S    
C42   C48   A    
C14   C112  S    
C22   C62   S    
O5    Zn5   S    
O10   Zn6   S    
O1    Zn5   S    
O4    Zn4   S    
C113  C120  A    
O3    Zn3   S    
C13   C63   A    
C24   H24   S    
C41   C81   S    
C39   O10   A    
C24   C37   A    
C73   C79   A    
C56   C63   A    
C4    C122  A    
C67   C74   A    
C61   O29   A    
C52   C58   A    
C4    C11   A    
C36   O25   S    
C73   C85   S    
C97   C103  A    
O18   Zn3   S    
C21   C60   S    
C47   C54   A    
C29   H48   S    
C119  C125  A    
C44   C51   A    
C28   H44   S    
C89   O5    A    
C5    C97   A    
C67   C81   A    
C32   C38   A    
C91   C124  A    
C111  C118  A    
C68   H2    S    
C40   C78   S    
C6    C125  A    
C60   C116  A    
C14   N5    T    
C29   H50   S    
C12   C111  S    
C23   N3    T    
O14   Zn5   S    
C104  C111  A    
C3    C121  A    
C17   C115  S    
C57   C64   A    
C76   C90   S    
C75   C87   S    
C52   H31   S    
C27   H41   S    
C99   C106  A    
C48   H28   S    
C26   H40   S    
C100  C107  A    
C31   H57   S    
C18   N9    T    
C49   H29   S    
C11   C123  A    
C85   O32   A    
C7    C50   S    
C10   C122  A    
C103  H17   S    
O19   Zn4   S    
C112  C119  A    
C30   H52   S    
C30   O25   S    
C8    C120  A    
C75   C81   A    
C49   C56   A    
C83   O31   A    
C28   O22   S    
C5    C123  A    
C93   H7    S    
C9    C126  A    
C77   C84   A    
C31   H54   S    
O8    Zn4   S    
C94   H18   S    
C37   C44   A    
O7    Zn3   S    
C117  C123  A    
O30   Zn7   S    
O6    Zn6   S    
C69   C84   A    
C116  H20   S    
C12   N1    T    
C6    C118  A    
C98   C104  A    
C46   C53   A    
C26   H38   S    
C30   H51   S    
C104  H12   S    
C120  C126  A    
O12   Zn4   S    
C91   C98   A    
C58   C94   A    
O32   Zn1   S    
C70   C82   A    
C88   O4    A    
C20   N11   T    
C37   O26   S    
C50   O28   A    
C109  C115  A    
C31   O26   S    
C2    C62   A    
C22   N2    T    
O2    Zn2   S    
C27   O21   S    
C69   H3    S    
C72   O30   A    
C72   O7    A    
O23   Zn7   S    
O28   Zn7   S    
O12   Zn2   S    
C85   O18   A    
C102  C109  A    
C3    C95   A    
C102  H16   S    
C97   H10   S    
C74   C88   S    
O31   Zn8   S    
C86   O19   A    
C71   C78   A    
C32   O20   S    
C95   C101  A    
C92   C99   A    
C86   O2    A    
C89   O16   A    
C65   H58   S    
