data_mof_unit_9277.cif
_audit_creation_date              2012-12-10T17:33:56-0500
_audit_creation_method            fapswitch 2.2
_symmetry_space_group_name_H-M    P1
_symmetry_Int_Tables_number       1
_space_group_crystal_system       triclinic
_cell_length_a                    10.780541
_cell_length_b                    12.090161
_cell_length_c                    13.152592
_cell_angle_alpha                 88.293282
_cell_angle_beta                  94.277903
_cell_angle_gamma                 86.549053
_cell_volume                      1705.40107475

loop_
_atom_site_label
_atom_site_type_symbol
_atom_type_description
_atom_site_fract_x
_atom_site_fract_y
_atom_site_fract_z
_atom_type_partial_charge
C1    C     C_R   0.508357 0.519410 0.700166 0.969814
C2    C     C_3   0.119925 0.494482 0.508844 -0.156132
C3    C     C_3   0.056283 0.513148 0.398576 -0.423416
C4    C     C_3   0.069922 0.593448 0.575693 0.213056
C5    C     C_R   0.521652 0.481492 0.190174 -0.185453
C6    C     C_R   0.511546 0.535264 0.810032 -0.045895
C7    C     C_R   0.450347 0.645371 0.948669 -0.180039
C8    C     C_R   0.475415 0.640990 0.847562 0.116980
C9    C     C_R   0.540848 0.443296 0.877339 -0.201515
C10   C     C_R   0.532281 0.454589 0.981510 0.119663
C11   C     C_R   0.495342 0.560110 0.018299 -0.032161
C12   C     C_R   0.741538 0.500871 0.504909 0.890671
C13   C     C_R   0.504165 0.577387 0.123089 0.319493
C14   C     C_R   0.549320 0.376314 0.152237 -0.275758
C15   C     C_R   0.560757 0.362494 0.049379 0.105286
C16   C     C_R   0.390811 0.968206 0.400106 -0.184777
C17   C     C_R   0.386665 0.853194 0.415468 0.610572
C18   C     C_R   0.563844 0.849854 0.534002 -0.007046
C19   C     C_R   0.562310 0.968927 0.525106 -0.105799
C20   C     C_R   0.474417 0.027318 0.456564 -0.081563
C21   C     C_R   0.467534 0.145313 0.446887 -0.029265
C22   C     C_R   0.613562 0.150838 0.588615 0.439864
C23   C     C_R   0.506642 0.483708 0.300079 0.923005
C24   C     C_R   0.644554 0.033447 0.582068 0.291437
C25   C     C_R   0.257118 0.498845 0.501780 0.932839
C26   C     C_3   0.937815 0.397378 0.571690 -0.381484
C27   C     C_3   0.078509 0.379572 0.556008 0.459983
C28   C     C_3   0.915352 0.502128 0.398390 -0.436669
C29   C     C_3   0.924954 0.607394 0.559855 -0.143588
C30   C     C_3   0.877058 0.501613 0.509370 -0.022776
H1    H     H_    0.889017 0.321541 0.552341 0.242503
H2    H     H_    0.103897 0.670221 0.542598 0.195938
H3    H     H_    0.867185 0.574168 0.353305 0.197799
H4    H     H_    0.071481 0.598048 0.369841 0.230511
H5    H     H_    0.563428 0.302844 0.202528 0.187041
H6    H     H_    0.398095 0.715890 0.973419 0.223743
H7    H     H_    0.577781 0.365975 0.849788 0.248108
H8    H     H_    0.412219 0.187166 0.383516 0.196186
H9    H     H_    0.923504 0.407140 0.653576 0.204940
H10   H     H_    0.320359 0.014809 0.350219 0.215894
H11   H     H_    0.631211 0.803513 0.586038 0.200325
H12   H     H_    0.885921 0.427288 0.359082 0.240257
H13   H     H_    0.097955 0.455087 0.344800 0.261775
H14   H     H_    0.901663 0.677955 0.503696 0.204879
N1    N     N_R   0.523380 0.207800 0.519350 -0.161489
N2    N     N_R   0.476620 0.792180 0.480650 -0.172905
O1    O     O_R   0.506240 0.421700 0.658830 -0.537510
O2    O     O_R   0.491240 0.609310 0.646410 -0.621306
O3    O     O_R   0.692710 0.406190 0.506230 -0.617614
O4    O     O_R   0.677700 0.593810 0.493810 -0.623162
O5    O     O_R   0.508760 0.390690 0.353590 -0.655295
O6    O     O_R   0.493760 0.578300 0.341170 -0.527376
O7    O     O_R   0.322300 0.406190 0.506190 -0.591200
O8    O     O_R   0.307290 0.593810 0.493770 -0.558278
Zn1   Zn    Zn3+2 0.510020 0.374730 0.508290 1.059695
Zn2   Zn    Zn3+2 0.489980 0.625270 0.491710 1.088699
S1    S     S_3+6 0.501227 0.718735 0.163347 0.045643
O9    O     O_2   0.368463 0.748001 0.181074 -0.186303
O10   O     O_2   0.585904 0.732995 0.256751 -0.280153
O11   O     O_3   0.540189 0.812782 0.076966 -0.522489
H15   H     H_    0.606949 0.774436 0.041112 0.351867
N3    N     N_3   0.598197 0.254483 0.014166 -0.428315
H16   H     H_    0.648056 0.208211 0.073584 0.210466
H17   H     H_    0.515958 0.214285 0.996020 0.238549
N4    N     N_3   0.462771 0.741818 0.784300 -0.390696
H18   H     H_    0.420409 0.807853 0.821331 0.206056
H19   H     H_    0.553570 0.764410 0.771716 0.218785
S2    S     S_3+6 0.649394 0.207092 0.708692 0.055275
O12   O     O_2   0.704461 0.317418 0.696058 -0.366764
O13   O     O_2   0.523406 0.219552 0.750681 -0.328065
O14   O     O_3   0.742482 0.131377 0.796941 -0.460668
H20   H     H_    0.763081 0.183538 0.851496 0.380296
S3    S     S_3+6 0.785257 0.967181 0.641474 0.076081
O15   O     O_2   0.755334 0.908231 0.738059 -0.294841
O16   O     O_2   0.837912 0.884051 0.570648 -0.316001
O17   O     O_3   0.896196 0.057037 0.668508 -0.440763
H21   H     H_    0.954486 0.018232 0.720509 0.409440
S4    S     S_3+6 0.244367 0.806330 0.361725 0.072550
O18   O     O_2   0.200792 0.876533 0.268112 -0.261037
O19   O     O_2   0.253458 0.688193 0.331186 -0.286452
O20   O     O_3   0.135552 0.827885 0.445535 -0.557946
H22   H     H_    0.055101 0.829818 0.403590 0.387468
N5    N     N_3   0.146653 0.354963 0.656214 -0.367504
H23   H     H_    0.241673 0.334040 0.650538 0.254139
H24   H     H_    0.110575 0.287239 0.692608 0.230141
S5    S     S_3+6 0.094393 0.254641 0.480528 0.020410
O21   O     O_2   0.227791 0.223634 0.467131 -0.278675
O22   O     O_2   0.044934 0.159777 0.537389 -0.250053
O23   O     O_3   0.018371 0.265657 0.363994 -0.563760
H25   H     H_    0.948948 0.216563 0.366564 0.381784
N6    N     N_3   0.858865 0.636821 0.650116 -0.393539
H26   H     H_    0.904414 0.698178 0.691144 0.314418
H27   H     H_    0.845746 0.569419 0.698517 0.220563
S6    S     S_3+6 0.131356 0.595844 0.708087 0.018783
O24   O     O_2   0.052088 0.539019 0.780002 -0.285493
O25   O     O_2   0.259421 0.540931 0.721308 -0.342451
O26   O     O_3   0.139858 0.730389 0.736974 -0.513371
H28   H     H_    0.211987 0.732789 0.786594 0.391143

loop_
_geom_bond_atom_site_label_1
_geom_bond_atom_site_label_2
_ccdc_geom_bond_type
C7    H6    S    
C19   C20   A    
C6    C9    A    
C12   O3    A    
C23   O6    A    
C7    C8    A    
C7    C11   A    
C3    H13   S    
C26   C27   S    
N3    H16   S    
C3    C28   S    
C25   O7    A    
C10   C15   A    
S5    O22   D    
C26   H9    S    
S1    O10   D    
C13   S1    S    
O26   H28   S    
C18   C19   A    
S3    O15   D    
N3    H17   S    
C21   H8    S    
S2    O12   D    
N4    H19   S    
C2    C27   S    
C9    C10   A    
C5    C13   A    
C4    C29   S    
C8    N4    S    
S3    O16   D    
C18   N2    A    
O20   H22   S    
C21   N1    A    
O7    Zn1   S    
O8    Zn2   S    
C1    C6    S    
O17   H21   S    
C18   H11   S    
N6    H26   S    
S5    O21   D    
C1    O1    A    
S1    O11   S    
C6    C8    A    
C3    H4    S    
O3    Zn1   S    
C14   H5    S    
O4    Zn2   S    
O11   H15   S    
C27   S5    S    
C2    C4    S    
C29   C30   S    
N6    H27   S    
C23   O5    A    
N5    H23   S    
C5    C23   S    
C16   C20   A    
C9    H7    S    
S4    O19   D    
C25   O8    A    
S6    O25   D    
C22   S2    S    
C5    C14   A    
C4    H2    S    
C16   H10   S    
C4    S6    S    
N5    H24   S    
C28   H3    S    
C26   C30   S    
C29   H14   S    
S3    O17   S    
C22   C24   A    
C29   N6    S    
O1    Zn1   S    
O2    Zn2   S    
C12   C30   S    
S4    O18   D    
S5    O23   S    
C12   O4    A    
C17   N2    A    
C1    O2    A    
S6    O26   S    
C28   C30   S    
C2    C3    S    
O14   H20   S    
C11   C13   A    
S4    O20   S    
S1    O9    D    
C16   C17   A    
S2    O14   S    
C28   H12   S    
C17   S4    S    
C15   N3    S    
C19   C24   A    
C2    C25   S    
O5    Zn1   S    
S6    O24   D    
C24   S3    S    
C10   C11   A    
C27   N5    S    
C26   H1    S    
C22   N1    A    
C20   C21   A    
N1    Zn1   S    
S2    O13   D    
N4    H18   S    
N2    Zn2   S    
C14   C15   A    
O23   H25   S    
O6    Zn2   S    
