data_mof_unit_59146.cif
_audit_creation_date              2012-12-10T17:15:17-0500
_audit_creation_method            fapswitch 2.2
_symmetry_space_group_name_H-M    P1
_symmetry_Int_Tables_number       1
_space_group_crystal_system       triclinic
_cell_length_a                    10.128338
_cell_length_b                    10.683598
_cell_length_c                    12.805632
_cell_angle_alpha                 91.313793
_cell_angle_beta                  89.124028
_cell_angle_gamma                 95.375149
_cell_volume                      1379.084161

loop_
_atom_site_label
_atom_site_type_symbol
_atom_type_description
_atom_site_fract_x
_atom_site_fract_y
_atom_site_fract_z
_atom_type_partial_charge
C1    C     C_R   0.444011 0.266717 0.497138 0.882720
C2    C     C_R   0.678581 0.574772 0.039690 -0.107714
C3    C     C_R   0.332834 0.508260 0.862671 0.076705
C4    C     C_R   0.671315 0.555766 0.146821 0.092178
C5    C     C_R   0.570178 0.570491 0.870919 0.318492
C6    C     C_R   0.448455 0.448485 0.125658 0.304901
C7    C     C_R   0.567310 0.543908 0.977318 -0.014870
C8    C     C_R   0.450116 0.484168 0.022141 -0.003812
C9    C     C_2   0.409010 0.133165 0.509108 0.250841
C10   C     C_2   0.582424 0.867539 0.528075 0.262970
C11   C     C_2   0.494937 0.068156 0.558670 -0.205097
C12   C     C_R   0.554375 0.733442 0.510030 0.836948
C13   C     C_2   0.480922 0.932850 0.557204 -0.191349
C14   C     C_3   0.788321 0.604900 0.212676 -0.783898
C15   C     C_3   0.199467 0.525208 0.817693 -0.682414
C16   C     C_3   0.853935 0.326000 0.494979 -0.505861
C17   C     C_3   0.131596 0.655400 0.395737 -0.564078
C18   C     C_2   0.078237 0.502357 0.527286 0.366863
C19   C     C_2   0.938279 0.535226 0.540539 0.388274
C20   C     C_R   0.473947 0.513910 0.699034 0.920211
C21   C     C_R   0.528490 0.495282 0.301246 0.933207
C22   C     C_R   0.553135 0.495154 0.189878 -0.153672
C23   C     C_R   0.456306 0.536454 0.811168 -0.158518
C24   C     C_R   0.332879 0.472225 0.965719 -0.128661
Cl1   Cl    Cl    0.316262 0.343237 0.174624 -0.556389
Cl2   Cl    Cl    0.711896 0.654362 0.813380 -0.527792
Cl3   Cl    Cl    0.744132 0.939411 0.504039 -0.499980
Cl4   Cl    Cl    0.259992 0.062247 0.454936 -0.489383
Cl5   Cl    Cl    0.917083 0.689940 0.581678 -0.460360
Cl6   Cl    Cl    0.122393 0.377604 0.603145 -0.575511
H1    H     H_    0.238775 0.442961 0.003249 0.208636
H2    H     H_    0.142680 0.432163 0.806995 0.279902
H3    H     H_    0.780523 0.305843 0.432412 0.231410
H4    H     H_    0.949260 0.317424 0.453049 0.208696
H5    H     H_    0.838023 0.252769 0.555122 0.257207
H6    H     H_    0.206378 0.669300 0.331894 0.237595
H7    H     H_    0.032464 0.636828 0.359583 0.187190
H8    H     H_    0.136763 0.742759 0.444720 0.261783
H9    H     H_    0.769799 0.618948 0.006769 0.207652
H10   H     H_    0.382018 0.886450 0.570275 0.204959
H11   H     H_    0.585492 0.114549 0.591668 0.203104
H12   H     H_    0.868787 0.654708 0.165290 0.235861
H13   H     H_    0.756937 0.672719 0.273044 0.256493
H14   H     H_    0.830796 0.525532 0.250517 0.248919
H15   H     H_    0.142620 0.580644 0.874083 0.226422
H16   H     H_    0.204974 0.580113 0.745443 0.273863
N1    N     N_2   0.162330 0.550370 0.457540 -0.094472
N2    N     N_2   0.837670 0.449630 0.542460 -0.092546
O1    O     O_R   0.567930 0.307680 0.508550 -0.663779
O2    O     O_R   0.432070 0.692320 0.491450 -0.645617
O3    O     O_R   0.351090 0.340020 0.481290 -0.493796
O4    O     O_R   0.648910 0.659980 0.518710 -0.514089
O5    O     O_R   0.590490 0.486480 0.665020 -0.545551
O6    O     O_R   0.409510 0.513520 0.334980 -0.563061
O7    O     O_R   0.373660 0.518820 0.637760 -0.593036
O8    O     O_R   0.626340 0.481180 0.362240 -0.635671
Zn1   Zn    Zn3+2 0.644780 0.478400 0.518200 1.032460
Zn2   Zn    Zn3+2 0.355220 0.521600 0.481800 1.054515

loop_
_geom_bond_atom_site_label_1
_geom_bond_atom_site_label_2
_ccdc_geom_bond_type
C10   Cl3   S    
C21   O8    A    
C2    C4    A    
C18   Cl6   S    
C17   H6    S    
C16   H3    S    
C4    C22   A    
C12   O4    A    
C3    C23   A    
C2    C7    A    
C5    C23   A    
C20   C23   S    
C14   H12   S    
C18   N1    D    
C16   N2    S    
C6    C22   A    
C24   H1    S    
C1    C9    S    
N2    Zn1   S    
O3    Zn2   S    
C17   H7    S    
C21   C22   S    
N1    Zn2   S    
C9    C11   D    
C3    C24   A    
O1    Zn1   S    
C10   C12   S    
C20   O7    A    
C8    C24   A    
C11   H11   S    
C17   H8    S    
C16   H5    S    
C4    C14   S    
C21   O6    A    
C19   Cl5   S    
C6    Cl1   S    
C7    C8    A    
O4    Zn1   S    
C15   H15   S    
C5    Cl2   S    
O2    Zn2   S    
C11   C13   S    
C3    C15   S    
O8    Zn1   S    
C14   H14   S    
C18   C19   S    
O6    Zn2   S    
O7    Zn2   S    
C5    C7    A    
O5    Zn1   S    
C19   N2    D    
C14   H13   S    
C13   H10   S    
C6    C8    A    
C1    O3    A    
C15   H16   S    
C16   H4    S    
C1    O1    A    
C2    H9    S    
C12   O2    A    
C17   N1    S    
C9    Cl4   S    
C20   O5    A    
C10   C13   D    
C15   H2    S    
