data_mof_unit_13022.cif
_audit_creation_date              2012-12-11T16:24:15-0500
_audit_creation_method            fapswitch 2.2
_symmetry_space_group_name_H-M    P1
_symmetry_Int_Tables_number       1
_space_group_crystal_system       triclinic
_cell_length_a                    14.712279
_cell_length_b                    14.749444
_cell_length_c                    33.193096
_cell_angle_alpha                 96.071738
_cell_angle_beta                  96.089802
_cell_angle_gamma                 61.202493
_cell_volume                      6264.05725342

loop_
_atom_site_label
_atom_site_type_symbol
_atom_type_description
_atom_site_fract_x
_atom_site_fract_y
_atom_site_fract_z
_atom_type_partial_charge
C1    C     C_R   0.389481 0.703349 0.446814 0.532052
C2    C     C_R   0.326993 0.340278 0.309223 0.021118
C3    C     C_R   0.377199 0.253418 0.332399 -0.091250
C4    C     C_R   0.397210 0.264749 0.374558 0.021897
C5    C     C_R   0.400214 0.250123 0.164753 -0.031700
C6    C     C_R   0.394086 0.244673 0.121820 0.005093
C7    C     C_R   0.214987 0.386128 0.121662 -0.051707
C8    C     C_R   0.222925 0.396087 0.164537 -0.015527
C9    C     C_R   0.313266 0.323604 0.185744 0.000319
C10   C     C_1   0.317092 0.324796 0.229417 0.041046
C11   C     C_1   0.320801 0.329017 0.265842 0.018447
C12   C     C_R   0.405192 0.385762 0.434219 0.542133
C13   C     C_R   0.296476 0.302181 0.100607 0.028417
C14   C     C_R   0.768695 0.365299 0.412184 -0.021332
C15   C     C_R   0.807045 0.424157 0.395335 0.004781
C16   C     C_R   0.816287 0.414271 0.353275 -0.101637
C17   C     C_R   0.802215 0.338063 0.328918 -0.013020
C18   C     C_R   0.786959 0.265891 0.347284 -0.093567
C19   C     C_R   0.772405 0.276853 0.388858 -0.006827
C20   C     C_R   0.818129 0.318210 0.202972 0.342723
C21   C     C_R   0.807305 0.331317 0.284571 0.341106
C22   C     C_R   0.807908 0.394775 0.138051 -0.079591
C23   C     C_R   0.705052 0.407563 0.448482 0.526034
C24   C     C_R   0.838555 0.384320 0.098418 0.000862
C25   C     C_R   0.920076 0.196657 0.101173 -0.132639
C26   C     C_R   0.886944 0.208421 0.139948 -0.117979
C27   C     C_R   0.835276 0.307227 0.159457 0.004715
C28   C     C_R   0.901535 0.283439 0.080828 -0.017633
C29   C     C_R   0.367716 0.763656 0.410164 0.020079
C30   C     C_R   0.273724 0.791959 0.385626 -0.001537
C31   C     C_R   0.275475 0.793492 0.343529 -0.105637
C32   C     C_R   0.364165 0.779911 0.326148 -0.002029
C33   C     C_R   0.449188 0.772537 0.351617 -0.101848
C34   C     C_R   0.393084 0.702176 0.561085 0.544655
C35   C     C_R   0.449694 0.770742 0.393834 0.001065
C36   C     C_R   0.358973 0.796017 0.200520 0.346592
C37   C     C_R   0.364836 0.781313 0.281735 0.341522
C38   C     C_R   0.266770 0.813937 0.131825 -0.109141
C39   C     C_R   0.242635 0.853567 0.093566 -0.124645
C40   C     C_R   0.384852 0.894161 0.104099 -0.115072
C41   C     C_R   0.409074 0.854395 0.142423 -0.097401
C42   C     C_R   0.347423 0.817988 0.157334 0.028107
C43   C     C_R   0.298689 0.898012 0.080036 0.013654
C44   C     C_R   0.363533 0.371645 0.584036 0.024525
C45   C     C_R   0.405886 0.388557 0.548656 0.575672
C46   C     C_R   0.286908 0.460515 0.604189 -0.180857
C47   C     C_R   0.257191 0.457058 0.642198 0.007237
C48   C     C_R   0.307841 0.362664 0.661411 0.040103
C49   C     C_R   0.376690 0.271724 0.640037 -0.171125
C50   C     C_R   0.403300 0.274396 0.600995 0.003681
C51   C     C_R   0.290092 0.351330 0.785123 0.324590
C52   C     C_R   0.299312 0.359253 0.704755 0.391109
C53   C     C_R   0.225199 0.422707 0.855436 0.035016
C54   C     C_R   0.230978 0.404123 0.897227 0.029487
C55   C     C_R   0.360059 0.224243 0.882540 -0.139327
C56   C     C_R   0.701716 0.413449 0.562602 0.537250
C57   C     C_R   0.361983 0.245033 0.843216 -0.136439
C58   C     C_R   0.292565 0.341635 0.828786 -0.004333
C59   C     C_R   0.290939 0.300766 0.909226 0.012204
C60   C     C_R   0.755563 0.379990 0.602666 0.019139
C61   C     C_R   0.780215 0.447047 0.629198 -0.121993
C62   C     C_R   0.809135 0.426368 0.669993 -0.103247
C63   C     C_R   0.814495 0.338227 0.684561 0.043216
C64   C     C_R   0.796816 0.267619 0.657899 -0.106545
C65   C     C_R   0.767743 0.288155 0.617110 -0.127440
C66   C     C_R   0.887562 0.212021 0.822577 -0.104639
C67   C     C_R   0.367633 0.366000 0.392878 0.034080
C68   C     C_R   0.914373 0.200973 0.864078 -0.123564
C69   C     C_R   0.871938 0.382188 0.873392 -0.112864
C70   C     C_R   0.844981 0.393028 0.831952 -0.099441
C71   C     C_R   0.855755 0.307281 0.806377 0.038225
C72   C     C_1   0.841273 0.315768 0.763312 -0.008568
C73   C     C_1   0.830140 0.324641 0.727298 -0.007698
C74   C     C_R   0.910360 0.285128 0.889647 0.017349
C75   C     C_R   0.374667 0.759448 0.601183 -0.008353
C76   C     C_R   0.280060 0.793667 0.618586 -0.168074
C77   C     C_R   0.268149 0.828682 0.659452 0.016762
C78   C     C_R   0.310164 0.452382 0.369320 -0.146946
C79   C     C_R   0.354083 0.828099 0.683460 0.052325
C80   C     C_R   0.447701 0.801324 0.665594 0.003068
C81   C     C_R   0.456270 0.767692 0.624238 -0.107127
C82   C     C_R   0.391411 0.902362 0.831951 -0.126126
C83   C     C_R   0.370480 0.925705 0.872707 -0.135538
C84   C     C_R   0.238565 0.867971 0.862014 0.006323
C85   C     C_R   0.261090 0.845719 0.820776 -0.066986
C86   C     C_R   0.334407 0.865652 0.805870 0.022680
C87   C     C_1   0.345750 0.853739 0.763100 0.012382
C88   C     C_1   0.350543 0.843732 0.726914 0.039723
C89   C     C_R   0.290430 0.439511 0.327897 -0.108250
C90   C     C_R   0.291127 0.913936 0.888064 0.018573
C91   C     C_R   0.961460 0.265125 0.045065 0.518753
C92   C     C_R   0.274193 0.261859 0.059498 0.592558
C93   C     C_R   0.259292 0.959357 0.043820 0.541461
C94   C     C_R   0.962485 0.267642 0.930735 0.540774
C95   C     C_R   0.271797 0.264655 0.945709 0.545733
C96   C     C_R   0.256424 0.964370 0.928838 0.535892
Cr1   Cr    Cr6+3 0.576280 0.580550 0.506370 0.997611
Cr2   Cr    Cr6+3 0.346780 0.572400 0.496520 1.003725
Cr3   Cr    Cr6+3 0.576960 0.347070 0.497150 1.043658
Cr4   Cr    Cr6+3 0.087320 0.083240 0.984860 1.014060
Cr5   Cr    Cr6+3 0.087720 0.316210 0.996740 1.059851
Cr6   Cr    Cr6+3 0.317350 0.090340 0.995890 1.051984
H1    H     H_    0.836182 0.465371 0.339594 0.142611
H2    H     H_    0.784524 0.201625 0.329017 0.185163
H3    H     H_    0.763689 0.471377 0.152534 0.183808
H4    H     H_    0.966680 0.118666 0.088316 0.146078
H5    H     H_    0.908001 0.139506 0.155591 0.151308
H6    H     H_    0.176550 0.854255 0.075499 0.142525
H7    H     H_    0.206626 0.806543 0.324284 0.147046
H8    H     H_    0.515664 0.768019 0.338542 0.145731
H9    H     H_    0.218747 0.784958 0.142152 0.154543
H10   H     H_    0.429882 0.927346 0.094398 0.150131
H11   H     H_    0.472331 0.857812 0.161196 0.166971
H12   H     H_    0.251787 0.535041 0.590944 0.124513
H13   H     H_    0.412270 0.198610 0.654411 0.113409
H14   H     H_    0.403226 0.176871 0.317359 0.121567
H15   H     H_    0.409102 0.145394 0.891176 0.138210
H16   H     H_    0.414364 0.183006 0.823136 0.132567
H17   H     H_    0.944209 0.125108 0.875605 0.126773
H18   H     H_    0.895894 0.145290 0.802925 0.126292
H19   H     H_    0.801117 0.199034 0.668966 0.119669
H20   H     H_    0.749337 0.234958 0.597471 0.130033
H21   H     H_    0.771568 0.518318 0.619024 0.127804
H22   H     H_    0.820027 0.467167 0.819610 0.127968
H23   H     H_    0.868001 0.448391 0.892264 0.144362
H24   H     H_    0.822952 0.481343 0.690491 0.126376
H25   H     H_    0.412746 0.959140 0.891669 0.133611
H26   H     H_    0.449033 0.917113 0.820483 0.112818
H27   H     H_    0.528323 0.742165 0.610179 0.138635
H28   H     H_    0.216195 0.789138 0.600638 0.113248
H29   H     H_    0.219514 0.816133 0.799359 0.150096
H30   H     H_    0.286021 0.530504 0.382380 0.139062
H31   H     H_    0.251109 0.507120 0.310076 0.161981
N1    N     N_R   0.803288 0.406137 0.225429 -0.217361
N2    N     N_R   0.307806 0.430980 0.731800 -0.185461
N3    N     N_R   0.288514 0.282004 0.718608 -0.220713
N4    N     N_R   0.284025 0.278165 0.758161 -0.212673
N5    N     N_R   0.797841 0.412626 0.265455 -0.216464
N6    N     N_R   0.820627 0.243973 0.262034 -0.224084
N7    N     N_R   0.826557 0.237309 0.222049 -0.216933
N8    N     N_R   0.285640 0.782829 0.216837 -0.211740
N9    N     N_R   0.288564 0.775502 0.256601 -0.212619
N10   N     N_R   0.439516 0.792205 0.265340 -0.221614
N11   N     N_R   0.436419 0.799832 0.225563 -0.212445
N12   N     N_R   0.303548 0.426978 0.771333 -0.248438
O1    O     O_R   0.679450 0.499830 0.463150 -0.522226
O2    O     O_R   0.356040 0.477400 0.534170 -0.516400
O3    O     O_R   0.495910 0.323070 0.537100 -0.464043
O4    O     O_R   0.663920 0.359620 0.542290 -0.507723
O5    O     O_3   0.500010 0.500010 0.500010 -0.232942
O6    O     O_R   0.170070 0.978950 0.027680 -0.518914
O7    O     O_R   0.001760 0.175230 0.026640 -0.495159
O8    O     O_R   0.984760 0.333570 0.037150 -0.523796
O9    O     O_R   0.183410 0.309240 0.041890 -0.469408
O10   O     O_R   0.340240 0.172500 0.045430 -0.481061
O11   O     O_R   0.309670 0.000990 0.032050 -0.501154
O12   O     O_R   0.480650 0.664000 0.464630 -0.501743
O13   O     O_R   0.168330 0.982130 0.939200 -0.528895
O14   O     O_R   0.000140 0.178170 0.944610 -0.502248
O15   O     O_R   0.983010 0.336750 0.948660 -0.512760
O16   O     O_R   0.181800 0.312190 0.959860 -0.497780
O17   O     O_R   0.338500 0.175680 0.956950 -0.507973
O18   O     O_R   0.308050 0.003930 0.950020 -0.501311
O19   O     O_3   0.164130 0.163270 0.992500 -0.248694
O20   O     O_R   0.323930 0.675950 0.455370 -0.525828
O21   O     O_R   0.354700 0.475360 0.451930 -0.505854
O22   O     O_R   0.494470 0.320860 0.448390 -0.498377
O23   O     O_R   0.662580 0.357570 0.460050 -0.505225
O24   O     O_R   0.680900 0.502040 0.551870 -0.522365
O25   O     O_R   0.481990 0.666040 0.546870 -0.504799
O26   O     O_R   0.325370 0.678160 0.544080 -0.520884
C97   C     C_2   0.490690 0.187379 0.099312 0.271487
H32   H     H_    0.558497 0.121104 0.111348 0.167697
O27   O     O_2   0.497028 0.217196 0.067278 -0.485937
C98   C     C_2   0.764553 0.193349 0.407168 0.240426
H33   H     H_    0.783737 0.181671 0.439317 0.113776
O28   O     O_2   0.738801 0.135027 0.386395 -0.522901
C99   C     C_2   0.802815 0.478897 0.075975 0.241091
H34   H     H_    0.806498 0.473339 0.043301 0.133676
O29   O     O_2   0.766783 0.564782 0.093653 -0.501470
C100  C     C_3   0.170645 0.822390 0.403091 -0.271163
C101  C     C_3   0.086097 0.929820 0.391145 -0.439121
H35   H     H_    0.113296 0.988176 0.399394 0.157180
H36   H     H_    0.064093 0.929784 0.358123 0.167256
H37   H     H_    0.015466 0.952859 0.407584 0.154527
H38   H     H_    0.145014 0.763808 0.392432 0.153610
H39   H     H_    0.177062 0.827380 0.436713 0.174123
C102  C     C_3   0.537821 0.776618 0.420383 -0.262471
C103  C     C_3   0.558897 0.862678 0.409344 -0.457748
H40   H     H_    0.599560 0.840763 0.380771 0.156450
H41   H     H_    0.484823 0.935785 0.405877 0.159454
H42   H     H_    0.609545 0.876179 0.433787 0.149264
H43   H     H_    0.518236 0.795170 0.452613 0.167199
H44   H     H_    0.609594 0.700948 0.417847 0.160692
C104  C     C_2   0.496614 0.180404 0.188460 0.209579
H45   H     H_    0.522108 0.210557 0.216038 0.134020
O30   O     O_2   0.544694 0.087916 0.178812 -0.512648
C105  C     C_2   0.471232 0.174159 0.579550 0.235969
H46   H     H_    0.523432 0.107919 0.596909 0.090813
O31   O     O_2   0.465404 0.162415 0.542579 -0.504932
C106  C     C_3   0.181161 0.493479 0.929092 -0.235149
C107  C     C_3   0.228002 0.566797 0.931543 -0.431118
H47   H     H_    0.312994 0.523720 0.939290 0.159957
H48   H     H_    0.214687 0.603201 0.902507 0.160451
H49   H     H_    0.191637 0.629390 0.955567 0.153356
H50   H     H_    0.095689 0.536500 0.923166 0.204828
H51   H     H_    0.194789 0.465892 0.960011 0.170578
C108  C     C_2   0.173500 0.554174 0.660415 0.241999
H52   H     H_    0.154701 0.628336 0.649366 0.085019
O32   O     O_2   0.121692 0.552637 0.686477 -0.477398
C109  C     C_2   0.144785 0.522107 0.838723 0.210914
H53   H     H_    0.159630 0.552228 0.813292 0.147884
O33   O     O_2   0.058856 0.569890 0.852159 -0.528373
C110  C     C_3   0.449615 0.168290 0.398481 -0.263074
C111  C     C_3   0.378768 0.170308 0.429481 -0.417675
H54   H     H_    0.357502 0.237870 0.451747 0.181461
H55   H     H_    0.306740 0.173732 0.413775 0.143840
H56   H     H_    0.419564 0.098979 0.446497 0.163160
H57   H     H_    0.469949 0.097684 0.377838 0.135670
H58   H     H_    0.524246 0.158620 0.413703 0.208795
C112  C     C_3   0.537668 0.805077 0.691883 -0.276608
C113  C     C_3   0.634519 0.778870 0.669940 -0.443303
H59   H     H_    0.670460 0.697222 0.657281 0.146705
H60   H     H_    0.614663 0.832309 0.645393 0.150932
H61   H     H_    0.692514 0.787894 0.691879 0.154323
H62   H     H_    0.509416 0.884507 0.706574 0.153744
H63   H     H_    0.561596 0.750362 0.716293 0.148484
C114  C     C_3   0.157027 0.846995 0.877694 -0.272829
C115  C     C_3   0.124368 0.776700 0.849878 -0.453470
H64   H     H_    0.078820 0.816503 0.822350 0.166512
H65   H     H_    0.193683 0.703045 0.841117 0.152533
H66   H     H_    0.073758 0.758313 0.866201 0.179794
H67   H     H_    0.188454 0.809031 0.906882 0.161960
H68   H     H_    0.085796 0.921826 0.883201 0.173572
C116  C     C_2   0.165665 0.860727 0.675653 0.225901
H69   H     H_    0.108433 0.845481 0.657183 0.094136
O34   O     O_2   0.142377 0.906283 0.708919 -0.504169
C117  C     C_2   0.136378 0.482135 0.186986 0.242158
H70   H     H_    0.056304 0.509966 0.175526 0.105379
O35   O     O_2   0.153791 0.524446 0.218225 -0.484571
C118  C     C_2   0.124591 0.467495 0.099056 0.259690
H71   H     H_    0.046185 0.496704 0.108120 0.106908
O36   O     O_2   0.137790 0.504188 0.070296 -0.482244
C119  C     C_3   0.841429 0.495348 0.420911 -0.268097
C120  C     C_3   0.954952 0.464299 0.415413 -0.446870
H72   H     H_    0.005935 0.381611 0.421808 0.158926
H73   H     H_    0.965374 0.476453 0.384159 0.157826
H74   H     H_    0.979403 0.512747 0.436886 0.141251
H75   H     H_    0.791142 0.576475 0.412435 0.143920
H76   H     H_    0.837078 0.492084 0.453773 0.175682

loop_
_geom_bond_atom_site_label_1
_geom_bond_atom_site_label_2
_ccdc_geom_bond_type
C8    C9    A    
C7    C13   A    
C66   C68   A    
Cr3   O3    S    
C120  H73   S    
C94   O14   A    
C55   C59   A    
C56   O24   A    
C103  H42   S    
C45   O3    A    
C41   C42   A    
C74   C94   S    
C36   C42   S    
C53   C109  S    
C36   N8    A    
C49   C50   A    
C12   O22   A    
C45   O2    A    
C99   H34   S    
C50   C105  S    
C7    C8    A    
C40   H10   S    
C6    C97   S    
C100  C101  S    
Cr4   O7    S    
C25   C28   A    
Cr3   O4    S    
C26   C27   A    
C115  H64   S    
C117  H70   S    
C119  H76   S    
C47   C108  S    
C22   H3    S    
N10   N11   A    
C91   O8    A    
C115  H66   S    
C3    H14   S    
C95   O16   A    
C68   H17   S    
Cr2   O5    S    
C5    C6    A    
C16   C17   A    
Cr2   O2    S    
C111  H55   S    
C68   C74   A    
C15   C16   A    
C77   C116  S    
Cr1   O24   S    
C119  C120  S    
C18   C19   A    
C106  C107  S    
C103  H41   S    
C78   H30   S    
C101  H35   S    
C79   C88   S    
C19   C98   S    
C43   C93   S    
C80   C112  S    
C15   C119  S    
C76   H28   S    
C40   C43   A    
C109  H53   S    
Cr5   O15   S    
C44   C46   A    
C108  H52   S    
N2    N12   A    
C107  H49   S    
C116  H69   S    
C105  O31   D    
C105  H46   S    
Cr5   O8    S    
C92   O10   A    
C29   C30   A    
C9    C10   S    
C114  H68   S    
C61   C62   A    
C34   O25   A    
Cr6   O17   S    
C34   C75   S    
C5    C104  S    
N1    N5    A    
C102  H44   S    
Cr5   O16   S    
C78   C89   A    
C66   H18   S    
C120  H72   S    
C116  O34   D    
C103  H40   S    
C67   C78   A    
C84   C90   A    
C21   N5    A    
C2    C11   S    
C114  C115  S    
C23   O1    A    
C97   O27   D    
C25   H4    S    
Cr3   O22   S    
C54   C59   A    
C77   C79   A    
Cr4   O6    S    
C106  H51   S    
C39   H6    S    
C12   C67   S    
C117  O35   D    
C4    C110  S    
C107  H47   S    
Cr6   O18   S    
C63   C64   A    
C47   C48   A    
C100  H38   S    
C38   C39   A    
C84   C85   A    
Cr2   O21   S    
Cr1   O1    S    
C98   O28   D    
C37   N9    A    
C95   O17   A    
C41   H11   S    
C62   H24   S    
C46   H12   S    
C110  C111  S    
C72   C73   T    
C39   C43   A    
C63   C73   S    
C113  H61   S    
C25   C26   A    
C85   C86   A    
C112  H62   S    
C89   H31   S    
C17   C21   S    
Cr1   O25   S    
C104  H45   S    
C60   C61   A    
C118  O36   D    
C101  H37   S    
Cr1   O12   S    
C14   C23   S    
C2    C89   A    
C75   C76   A    
C66   C71   A    
C5    C9    A    
C112  C113  S    
Cr4   O13   S    
C23   O23   A    
C16   H1    S    
C81   H27   S    
C31   C32   A    
C1    O20   A    
Cr3   O5    S    
Cr1   O5    S    
C109  O33   D    
C7    C118  S    
C62   C63   A    
C1    C29   S    
C17   C18   A    
C31   H7    S    
C69   C74   A    
Cr4   O19   S    
C51   C58   S    
C18   H2    S    
C32   C37   S    
C110  H58   S    
C113  H60   S    
C82   H26   S    
C114  H67   S    
C70   C71   A    
C107  H48   S    
C59   C95   S    
Cr2   O26   S    
C51   N4    A    
C108  O32   D    
C40   C41   A    
C106  H50   S    
C60   C65   A    
C30   C31   A    
C22   C27   A    
C55   C57   A    
C13   C92   S    
C24   C99   S    
C52   N3    A    
C30   C100  S    
C22   C24   A    
C111  H56   S    
C96   O13   A    
C21   N6    A    
C53   C54   A    
C3    C4    A    
C84   C114  S    
Cr6   O11   S    
C97   H32   S    
N6    N7    A    
Cr3   O23   S    
C55   H15   S    
C44   C50   A    
C100  H39   S    
C83   C90   A    
C112  H63   S    
C46   C47   A    
C48   C49   A    
C94   O15   A    
C65   H20   S    
C37   N10   A    
C49   H13   S    
C86   C87   S    
C14   C19   A    
C93   O11   A    
C75   C81   A    
C44   C45   S    
C24   C28   A    
C83   H25   S    
C80   C81   A    
C26   H5    S    
C102  H43   S    
C4    C67   A    
C99   O29   D    
C53   C58   A    
C90   C96   S    
C20   C27   S    
C8    C117  S    
Cr5   O19   S    
C54   C106  S    
C29   C35   A    
C96   O18   A    
C61   H21   S    
C110  H57   S    
C64   C65   A    
C20   N7    A    
C119  H75   S    
C2    C3    A    
C36   N11   A    
C71   C72   S    
C115  H65   S    
C98   H33   S    
C82   C86   A    
N8    N9    A    
C32   C33   A    
C6    C13   A    
C12   O21   A    
C76   C77   A    
Cr4   O14   S    
C57   C58   A    
C91   O7    A    
Cr5   O9    S    
C118  H71   S    
C1    O12   A    
C33   C35   A    
C28   C91   S    
C111  H54   S    
C69   C70   A    
C113  H59   S    
C101  H36   S    
Cr2   O20   S    
C93   O6    A    
C10   C11   T    
C34   O26   A    
C69   H23   S    
C79   C80   A    
C38   C42   A    
C70   H22   S    
C48   C52   S    
C56   C60   S    
C87   C88   T    
Cr6   O19   S    
C82   C83   A    
C35   C102  S    
C120  H74   S    
C56   O4    A    
C52   N2    A    
C51   N12   A    
C14   C15   A    
C102  C103  S    
C92   O9    A    
C33   H8    S    
C20   N1    A    
C38   H9    S    
Cr6   O10   S    
C85   H29   S    
N3    N4    A    
C64   H19   S    
C57   H16   S    
C104  O30   D    
