data_mof_unit_41346.cif
_audit_creation_date              2012-12-10T18:05:16-0500
_audit_creation_method            fapswitch 2.2
_symmetry_space_group_name_H-M    P1
_symmetry_Int_Tables_number       1
_space_group_crystal_system       triclinic
_cell_length_a                    9.539626
_cell_length_b                    10.829667
_cell_length_c                    16.928407
_cell_angle_alpha                 88.118953
_cell_angle_beta                  94.025963
_cell_angle_gamma                 89.648711
_cell_volume                      1743.57201157

loop_
_atom_site_label
_atom_site_type_symbol
_atom_type_description
_atom_site_fract_x
_atom_site_fract_y
_atom_site_fract_z
_atom_type_partial_charge
C1    C     C_R   0.499818 0.262291 0.498876 0.845782
C2    C     C_R   0.065890 0.591267 0.459602 0.449223
C3    C     C_R   0.516785 0.505643 0.651353 0.815403
C4    C     C_R   0.482961 0.492404 0.349000 0.815966
C5    C     C_R   0.525101 0.521460 0.738341 -0.150205
C6    C     C_R   0.473728 0.472920 0.262693 -0.151589
C7    C     C_R   0.413481 0.574506 0.778613 0.026943
C8    C     C_R   0.583502 0.415368 0.223907 0.014967
C9    C     C_R   0.428995 0.582786 0.861723 0.363843
C10   C     C_R   0.571847 0.408797 0.140765 0.363165
C11   C     C_R   0.550133 0.532914 0.904755 0.210457
C12   C     C_R   0.500137 0.737720 0.500785 0.842801
C13   C     C_R   0.451948 0.459014 0.096598 0.209555
C14   C     C_R   0.665099 0.493167 0.864261 0.038196
C15   C     C_R   0.336091 0.499829 0.136115 0.041670
C16   C     C_R   0.650831 0.486874 0.781733 -0.277415
C17   C     C_R   0.349348 0.508583 0.218493 -0.275445
C18   C     C_R   0.380330 0.065306 0.466511 0.420895
C19   C     C_R   0.619311 0.934647 0.533603 0.421151
C20   C     C_3   0.708901 0.350799 0.268568 -0.307479
C21   C     C_3   0.840307 0.432070 0.269169 -0.329555
C22   C     C_3   0.967610 0.365118 0.310651 -0.797480
C23   C     C_R   0.382440 0.936530 0.469061 -0.375882
C24   C     C_3   0.281060 0.630652 0.735293 -0.333382
C25   C     C_3   0.313250 0.753561 0.692877 -0.339944
C26   C     C_3   0.184569 0.804274 0.643327 -0.775257
C27   C     C_3   0.804444 0.457658 0.907757 -0.376294
C28   C     C_3   0.831948 0.318151 0.906534 -0.330664
C29   C     C_3   0.967425 0.282521 0.955585 -0.822279
C30   C     C_3   0.196808 0.533560 0.091893 -0.376188
C31   C     C_3   0.166083 0.672577 0.093165 -0.330406
C32   C     C_3   0.029594 0.705794 0.044378 -0.824633
C33   C     C_R   0.617270 0.063426 0.530982 -0.365449
C34   C     C_R   0.500825 0.871564 0.501784 -0.108280
C35   C     C_R   0.498998 0.128412 0.498102 -0.107323
C36   C     C_R   0.081713 0.409242 0.539490 -0.071566
C37   C     C_R   0.918371 0.591203 0.460952 -0.057283
C38   C     C_R   0.934128 0.408897 0.540567 0.463217
Cu1   Cu    Cu3+1 0.640660 0.500020 0.500000 0.952719
Cu2   Cu    Cu3+1 0.359340 0.499980 0.500000 0.947922
H1    H     H_    0.738688 0.452686 0.751268 0.176862
H2    H     H_    0.864615 0.457190 0.207443 0.241448
H3    H     H_    0.821291 0.518931 0.299927 0.225771
H4    H     H_    0.685975 0.321287 0.329593 0.198496
H5    H     H_    0.730952 0.262465 0.239924 0.218518
H6    H     H_    0.150380 0.738325 0.597129 0.276361
H7    H     H_    0.096759 0.820436 0.681593 0.245527
H8    H     H_    0.211100 0.893302 0.613786 0.247659
H9    H     H_    0.346961 0.822137 0.737688 0.223078
H10   H     H_    0.400470 0.741835 0.653819 0.221999
H11   H     H_    0.228588 0.564442 0.694753 0.206606
H12   H     H_    0.261787 0.545000 0.248211 0.171299
H13   H     H_    0.198916 0.649459 0.776721 0.233373
H14   H     H_    0.638608 0.318056 0.053379 0.340458
H15   H     H_    0.368348 0.676246 0.949549 0.340550
H16   H     H_    0.058343 0.331150 0.931660 0.254316
H17   H     H_    0.959735 0.306868 0.018402 0.267923
H18   H     H_    0.985509 0.181367 0.953271 0.243411
H19   H     H_    0.742951 0.267344 0.930958 0.225043
H20   H     H_    0.841105 0.289686 0.844610 0.217598
H21   H     H_    0.889989 0.507882 0.879304 0.193129
H22   H     H_    0.808612 0.486802 0.970189 0.233165
H23   H     H_    0.292433 0.887014 0.444102 0.202324
H24   H     H_    0.037420 0.681503 0.981567 0.268257
H25   H     H_    0.939982 0.655620 0.068622 0.250604
H26   H     H_    0.009262 0.806633 0.046600 0.243904
H27   H     H_    0.156369 0.700853 0.155073 0.216011
H28   H     H_    0.253752 0.725043 0.068608 0.226903
H29   H     H_    0.111851 0.481810 0.119891 0.192429
H30   H     H_    0.194253 0.504710 0.029440 0.236049
H31   H     H_    0.192178 0.071916 0.413190 0.326361
H32   H     H_    0.807179 0.928011 0.587297 0.325659
H33   H     H_    0.791222 0.343358 0.604158 0.361523
H34   H     H_    0.707180 0.112922 0.556080 0.200006
H35   H     H_    0.208612 0.656428 0.395757 0.362557
H36   H     H_    0.143335 0.337235 0.571596 0.178123
H37   H     H_    0.856807 0.663386 0.428995 0.174358
H38   H     H_    0.946185 0.337286 0.372311 0.262344
H39   H     H_    0.993444 0.281548 0.278045 0.257023
H40   H     H_    0.059727 0.427371 0.312417 0.243926
N1    N     N_2   0.555787 0.519569 0.988526 -0.248620
N2    N     N_2   0.447593 0.471305 0.012859 -0.246519
N3    N     N_R   0.852070 0.500030 0.499980 -0.242011
N4    N     N_R   0.147930 0.499970 0.500020 -0.245243
O1    O     O_R   0.618740 0.319660 0.500000 -0.595367
O2    O     O_3   0.325871 0.642829 0.899717 -0.758359
O3    O     O_3   0.265611 0.130619 0.431997 -0.717841
O4    O     O_3   0.733847 0.869322 0.568327 -0.720423
O5    O     O_3   0.878113 0.313628 0.583315 -0.763689
O6    O     O_3   0.121873 0.686344 0.416675 -0.766472
O7    O     O_R   0.381260 0.680340 0.500000 -0.589884
O8    O     O_R   0.381170 0.319630 0.500010 -0.530426
O9    O     O_R   0.618830 0.680370 0.499990 -0.530691
O10   O     O_R   0.631780 0.498870 0.613920 -0.598241
O11   O     O_R   0.368220 0.501130 0.386080 -0.600646
O12   O     O_R   0.394210 0.498840 0.613930 -0.589403
O13   O     O_R   0.605790 0.501160 0.386070 -0.591217
O14   O     O_3   0.677862 0.350152 0.104297 -0.755777

loop_
_geom_bond_atom_site_label_1
_geom_bond_atom_site_label_2
_ccdc_geom_bond_type
C38   N3    A    
Cu2   N4    S    
C12   O7    A    
C2    N4    A    
N1    N2    D    
C11   N1    S    
C31   H27   S    
C38   O5    S    
C8    C20   S    
C28   C29   S    
C22   H39   S    
C30   C31   S    
C11   C14   A    
Cu1   O13   S    
C7    C24   S    
C10   O14   S    
C2    O6    S    
C25   H10   S    
Cu1   O9    S    
C5    C16   A    
C27   H21   S    
H35   O6    S    
C20   H4    S    
C21   H3    S    
C3    O12   A    
C14   C27   S    
C36   H36   S    
C18   C35   A    
C30   H30   S    
C20   H5    S    
C26   H8    S    
C22   H40   S    
C24   H11   S    
C23   H23   S    
C21   C22   S    
Cu2   O12   S    
C17   H12   S    
H32   O4    S    
C28   H20   S    
C1    O1    A    
C31   H28   S    
C18   C23   A    
C24   C25   S    
C22   H38   S    
C4    C6    S    
C19   O4    S    
C19   C33   A    
Cu1   Cu2   S    
C5    C7    A    
C6    C8    A    
C24   H13   S    
C37   H37   S    
C13   N2    S    
C19   C34   A    
Cu1   O10   S    
C27   H22   S    
C9    O2    S    
C4    O11   A    
C31   C32   S    
C23   C34   A    
Cu2   O8    S    
C9    C11   A    
C32   H24   S    
C26   H7    S    
H31   O3    S    
C29   H17   S    
C1    O8    A    
C13   C15   A    
C14   C16   A    
C12   O9    A    
Cu1   O1    S    
Cu2   O11   S    
C12   C34   S    
C30   H29   S    
C29   H18   S    
C1    C35   S    
C15   C30   S    
C32   H26   S    
C28   H19   S    
C15   C17   A    
C6    C17   A    
C37   N3    A    
C3    C5    S    
C10   C13   A    
C29   H16   S    
C18   O3    S    
H15   O2    S    
C36   C38   A    
C25   C26   S    
H33   O5    S    
C2    C37   A    
C36   N4    A    
C33   C35   A    
C3    O10   A    
Cu2   O7    S    
C25   H9    S    
C26   H6    S    
Cu1   N3    S    
C21   H2    S    
C7    C9    A    
C33   H34   S    
C20   C21   S    
C8    C10   A    
C27   C28   S    
H14   O14   S    
C4    O13   A    
C16   H1    S    
C32   H25   S    
