data_mof_unit_42418.cif
_audit_creation_date              2012-12-10T16:46:00-0500
_audit_creation_method            fapswitch 2.2
_symmetry_space_group_name_H-M    P1
_symmetry_Int_Tables_number       1
_space_group_crystal_system       triclinic
_cell_length_a                    10.730013
_cell_length_b                    8.761452
_cell_length_c                    7.466771
_cell_angle_alpha                 102.474727
_cell_angle_beta                  94.637029
_cell_angle_gamma                 92.232596
_cell_volume                      681.990339691

loop_
_atom_site_label
_atom_site_type_symbol
_atom_type_description
_atom_site_fract_x
_atom_site_fract_y
_atom_site_fract_z
_atom_type_partial_charge
C1    C     C_R   0.495058 0.200050 0.454512 0.890117
C2    C     C_3   0.876949 0.497796 0.495839 -0.102566
C3    C     C_3   0.934044 0.658595 0.608165 -0.372845
C4    C     C_3   0.913760 0.471348 0.294962 -0.502085
C5    C     C_2   0.491833 0.032773 0.431884 -0.482180
C6    C     C_2   0.489183 0.965897 0.576701 0.302366
C7    C     C_R   0.260325 0.506979 0.501490 0.778458
C8    C     C_R   0.498320 0.799203 0.546807 0.739497
C9    C     C_R   0.739515 0.496367 0.497817 0.830921
C10   C     C_3   0.075795 0.377218 0.590643 -0.448199
C11   C     C_3   0.931439 0.366250 0.583982 0.482158
C12   C     C_3   0.078005 0.664861 0.614680 0.420267
C13   C     C_3   0.056568 0.471624 0.294295 0.255482
C14   C     C_3   0.121910 0.509692 0.498789 -0.120834
Cu1   Cu    Cu3+1 0.514070 0.517380 0.684380 1.007742
Cu2   Cu    Cu3+1 0.485930 0.482620 0.315620 0.951877
H1    H     H_    0.116722 0.397475 0.736191 0.290530
H2    H     H_    0.874093 0.559108 0.223604 0.227525
H3    H     H_    0.108237 0.770908 0.570444 0.080144
H4    H     H_    0.896563 0.754519 0.547487 0.100434
H5    H     H_    0.491745 0.963029 0.292401 0.141407
H6    H     H_    0.398551 0.383923 0.949717 0.237081
H7    H     H_    0.600380 0.617954 0.050857 0.225584
H8    H     H_    0.109186 0.264720 0.518928 0.099423
H9    H     H_    0.894836 0.249735 0.500521 0.060313
H10   H     H_    0.905292 0.679630 0.750679 0.236022
H11   H     H_    0.075186 0.346616 0.240805 0.141865
H12   H     H_    0.871568 0.356220 0.214273 0.190941
N1    N     N_2   0.464720 0.456420 0.038520 -0.197586
N2    N     N_2   0.535280 0.543580 0.961480 -0.204815
O1    O     O_R   0.509140 0.286130 0.619770 -0.519380
O2    O     O_R   0.485380 0.256770 0.308360 -0.603705
O3    O     O_R   0.329570 0.514650 0.655700 -0.563218
O4    O     O_R   0.305810 0.485300 0.344290 -0.583307
O5    O     O_R   0.514620 0.743230 0.691640 -0.577183
O6    O     O_R   0.490860 0.713870 0.380230 -0.623039
O7    O     O_R   0.694190 0.514700 0.655710 -0.527177
O8    O     O_R   0.670430 0.485350 0.344300 -0.598755
O9    O     O_3   0.491408 0.054883 0.756183 -0.565387
C15   C     C_3   0.379180 0.028348 0.836162 0.079728
H13   H     H_    0.390728 0.095573 0.981061 0.185210
H14   H     H_    0.362106 0.903967 0.842813 0.172964
C16   C     C_3   0.264730 0.084401 0.737431 -0.449134
H15   H     H_    0.286525 0.202028 0.711915 0.236384
H16   H     H_    0.241999 0.002016 0.602874 0.197087
C17   C     C_3   0.151576 0.091082 0.849422 -0.879720
H17   H     H_    0.132703 0.977204 0.886240 0.302695
H18   H     H_    0.067255 0.116903 0.767610 0.275312
H19   H     H_    0.168874 0.184246 0.977026 0.267870
F1    F     F_    0.896494 0.378452 0.761245 -0.630295
F2    F     F_    0.128640 0.685565 0.794626 -0.697473
O10   O     O_3   0.100804 0.545244 0.155690 -0.545410
C18   C     C_3   0.140982 0.705750 0.208582 0.243788
H20   H     H_    0.208126 0.726967 0.110149 0.212248
H21   H     H_    0.200659 0.738227 0.339011 0.048203
C19   C     C_3   0.032745 0.812825 0.192226 -0.344325
H22   H     H_    0.993209 0.792043 0.046867 0.266064
H23   H     H_    0.956980 0.789415 0.275204 0.193154
C20   C     C_3   0.074537 0.984621 0.260213 -1.019616
H24   H     H_    0.074765 0.013341 0.411646 0.256548
H25   H     H_    0.006545 0.058212 0.203336 0.268820
H26   H     H_    0.169359 0.010867 0.220855 0.262002

loop_
_geom_bond_atom_site_label_1
_geom_bond_atom_site_label_2
_ccdc_geom_bond_type
C2    C4    S    
C16   H15   S    
C20   H24   S    
Cu1   O1    S    
N1    N2    D    
H6    N1    S    
Cu2   O2    S    
C13   O10   S    
C7    O3    A    
C13   H11   S    
C19   C20   S    
O10   C18   S    
C4    H2    S    
C15   H14   S    
C2    C3    S    
C3    H4    S    
C11   F1    S    
C13   C14   S    
Cu2   O6    S    
C16   H16   S    
C17   H19   S    
C16   C17   S    
C4    C13   S    
C1    C5    S    
C2    C11   S    
C6    C8    S    
C12   H3    S    
Cu1   O5    S    
C15   H13   S    
C4    H12   S    
C19   H23   S    
C18   H21   S    
C8    O6    A    
C5    C6    D    
C7    O4    A    
C17   H18   S    
C20   H25   S    
C10   C11   S    
C1    O2    A    
C10   H1    S    
Cu1   Cu2   S    
H7    N2    S    
C1    O1    A    
C12   F2    S    
C5    H5    S    
C19   H22   S    
Cu1   N2    S    
C10   H8    S    
C9    O7    A    
C10   C14   S    
C18   C19   S    
Cu2   O8    S    
O9    C15   S    
C3    H10   S    
C11   H9    S    
C17   H17   S    
Cu1   O7    S    
C20   H26   S    
C9    O8    A    
C3    C12   S    
Cu2   O4    S    
Cu2   N1    S    
C6    O9    S    
C2    C9    S    
Cu1   O3    S    
C15   C16   S    
C7    C14   S    
C18   H20   S    
C12   C14   S    
C8    O5    A    
