data_mof_unit_17922.cif
_audit_creation_date              2012-12-10T17:48:55-0500
_audit_creation_method            fapswitch 2.2
_symmetry_space_group_name_H-M    P1
_symmetry_Int_Tables_number       1
_space_group_crystal_system       triclinic
_cell_length_a                    10.719384
_cell_length_b                    14.694347
_cell_length_c                    14.704676
_cell_angle_alpha                 64.602443
_cell_angle_beta                  103.523632
_cell_angle_gamma                 103.205956
_cell_volume                      2012.55945411

loop_
_atom_site_label
_atom_site_type_symbol
_atom_type_description
_atom_site_fract_x
_atom_site_fract_y
_atom_site_fract_z
_atom_type_partial_charge
Br1   Br    Br    0.713838 0.437421 0.266939 -0.510718
Br2   Br    Br    0.168795 0.541509 0.247450 -0.513580
C1    C     C_R   0.480786 0.120074 0.311991 0.801851
C2    C     C_R   0.543636 0.360622 0.081805 0.109874
C3    C     C_R   0.529187 0.321290 0.006595 0.160954
C4    C     C_R   0.259984 0.000360 0.499916 0.756050
C5    C     C_R   0.579771 0.466984 0.056523 -0.004608
C6    C     C_R   0.568140 0.533620 0.951646 0.033765
C7    C     C_R   0.554354 0.492201 0.878220 -0.193650
C8    C     C_R   0.539691 0.387739 0.906152 -0.221327
C9    C     C_R   0.629718 0.509904 0.130620 0.235234
C10   C     C_R   0.641795 0.614616 0.101776 -0.216693
C11   C     C_R   0.610155 0.679278 0.000274 0.107110
C12   C     C_3   0.878294 0.000516 0.499936 0.142990
C13   C     C_R   0.573912 0.639625 0.923939 0.088142
C14   C     C_R   0.618293 0.784021 0.973920 -0.163779
C15   C     C_R   0.589109 0.849892 0.872485 -0.194198
C16   C     C_R   0.524010 0.879842 0.688085 0.791301
C17   C     C_R   0.540556 0.707043 0.822605 -0.235660
C18   C     C_R   0.719526 0.286469 0.665900 -0.312819
C19   C     C_R   0.684719 0.204156 0.637378 0.082545
C20   C     C_R   0.517466 0.284665 0.509602 0.050156
C21   C     C_R   0.548081 0.371298 0.534745 0.011528
C22   C     C_R   0.651487 0.370020 0.615186 0.167495
C23   C     C_3   0.922270 0.898833 0.580646 -0.385782
C24   C     C_R   0.480132 0.457940 0.484073 0.031718
C25   C     C_R   0.517336 0.541678 0.515139 0.078852
C26   C     C_R   0.620684 0.535626 0.596405 -0.220459
C27   C     C_R   0.686044 0.451665 0.645004 -0.197719
C28   C     C_R   0.740113 0.000044 0.499920 0.759442
C29   C     C_R   0.376234 0.463353 0.403682 -0.248623
C30   C     C_R   0.309222 0.546584 0.354999 0.264503
C31   C     C_R   0.344624 0.629445 0.384330 0.090163
C32   C     C_R   0.449578 0.628376 0.464243 -0.062602
C33   C     C_R   0.277245 0.713885 0.334981 -0.259661
C34   C     C_3   0.964912 0.089475 0.525727 -0.353409
C35   C     C_R   0.313814 0.795955 0.363712 0.056857
C36   C     C_R   0.482188 0.715213 0.489235 0.028986
C37   C     C_3   0.042397 0.014355 0.393572 -0.382797
C38   C     C_3   0.898314 0.014064 0.393561 -0.369054
C39   C     C_3   0.066342 0.899092 0.580736 -0.366675
C40   C     C_3   0.107760 0.089708 0.525740 -0.370587
C41   C     C_3   0.122199 0.000924 0.500000 0.148253
C42   C     C_R   0.487412 0.187868 0.204728 -0.073872
C43   C     C_R   0.549708 0.811640 0.796234 -0.059877
C44   C     C_R   0.500923 0.215891 0.032408 -0.199095
C45   C     C_R   0.482977 0.149320 0.131639 -0.198448
C46   C     C_R   0.510931 0.293140 0.177498 -0.183706
Cu1   Cu    Cu3+1 0.465900 0.918260 0.475680 0.928261
Cu2   Cu    Cu3+1 0.534100 0.081740 0.524320 0.946385
H1    H     H_    0.050683 0.951661 0.372905 0.170951
H2    H     H_    0.465386 0.068071 0.150970 0.158107
H3    H     H_    0.499432 0.321962 0.230822 0.186048
H4    H     H_    0.081015 0.087264 0.334620 0.158095
H5    H     H_    0.559292 0.539023 0.798815 0.137946
H6    H     H_    0.647866 0.815063 0.031837 0.133701
H7    H     H_    0.764598 0.450602 0.707032 0.145840
H8    H     H_    0.561289 0.721823 0.547444 0.117084
H9    H     H_    0.262031 0.860881 0.325229 0.124991
H10   H     H_    0.798833 0.284638 0.727564 0.139662
H11   H     H_    0.736560 0.139305 0.676792 0.118703
H12   H     H_    0.952833 0.081792 0.602014 0.164757
H13   H     H_    0.439777 0.278060 0.450500 0.120239
H14   H     H_    0.867109 0.086817 0.334585 0.167544
H15   H     H_    0.653792 0.594557 0.625148 0.123312
H16   H     H_    0.343597 0.403435 0.376306 0.161529
H17   H     H_    0.196657 0.717764 0.274080 0.190138
H18   H     H_    0.837906 0.951188 0.373003 0.174774
H19   H     H_    0.075137 0.833857 0.564192 0.179012
H20   H     H_    0.862325 0.833557 0.563976 0.171462
H21   H     H_    0.163931 0.082059 0.602022 0.172031
H22   H     H_    0.146888 0.164058 0.468795 0.177692
H23   H     H_    0.122369 0.888261 0.657738 0.155614
H24   H     H_    0.935701 0.163775 0.468783 0.200073
H25   H     H_    0.908494 0.887864 0.657603 0.154624
H26   H     H_    0.530637 0.358873 0.847940 0.147877
H27   H     H_    0.504585 0.679337 0.762950 0.148616
H28   H     H_    0.597549 0.930586 0.853826 0.149152
H29   H     H_    0.678660 0.645973 0.159196 0.176306
H30   H     H_    0.492847 0.185063 0.975894 0.134718
N1    N     N_R   0.585360 0.204570 0.560800 -0.175934
N2    N     N_R   0.414550 0.795430 0.439160 -0.176402
O1    O     O_R   0.455060 0.022100 0.338110 -0.589036
O2    O     O_R   0.512640 0.160150 0.379180 -0.564467
O3    O     O_R   0.288900 0.930980 0.479450 -0.586788
O4    O     O_R   0.346480 0.069030 0.520520 -0.594704
O5    O     O_R   0.487360 0.839850 0.620820 -0.586291
O6    O     O_R   0.544940 0.977900 0.661890 -0.589176
O7    O     O_R   0.653520 0.930970 0.479480 -0.590497
O8    O     O_R   0.711100 0.069020 0.520550 -0.580318

loop_
_geom_bond_atom_site_label_1
_geom_bond_atom_site_label_2
_ccdc_geom_bond_type
C29   H16   S    
C37   H1    S    
Cu1   O5    S    
C34   C40   S    
Br1   C9    S    
C28   O8    A    
Cu2   O2    S    
C5    C6    A    
C13   C17   A    
C24   C25   A    
C4    O3    A    
C26   C27   A    
C33   C35   A    
C15   C43   A    
C28   O7    A    
C12   C34   S    
C37   H4    S    
C10   H29   S    
Br2   C30   S    
C21   C24   A    
C17   H27   S    
C22   C27   A    
C15   H28   S    
C20   H13   S    
C36   H8    S    
C8    H26   S    
Cu2   O8    S    
C18   C22   A    
C14   C15   A    
C21   C22   A    
C7    H5    S    
C18   H10   S    
C7    C8    A    
C19   H11   S    
C42   C45   A    
Cu2   O6    S    
C24   C29   A    
C36   N2    A    
C39   C41   S    
C12   C28   S    
C2    C5    A    
C34   H12   S    
C25   C32   A    
C46   H3    S    
C1    C42   S    
C20   N1    A    
Cu1   O3    S    
C23   C39   S    
C37   C38   S    
C6    C7    A    
C37   C41   S    
C39   H23   S    
C16   O6    A    
C23   H25   S    
Cu1   N2    S    
C5    C9    A    
C14   H6    S    
C29   C30   A    
C33   H17   S    
C40   H22   S    
C31   C32   A    
C10   C11   A    
C35   H9    S    
C34   H24   S    
C19   N1    A    
C6    C13   A    
C4    C41   S    
C11   C13   A    
C1    O1    A    
C35   N2    A    
C40   C41   S    
C16   C43   S    
C25   C26   A    
C39   H19   S    
C2    C46   A    
C44   C45   A    
Cu1   O7    S    
C32   C36   A    
C27   H7    S    
C2    C3    A    
C4    O4    A    
C9    C10   A    
C17   C43   A    
C45   H2    S    
C3    C44   A    
C16   O5    A    
C38   H14   S    
C30   C31   A    
Cu1   O1    S    
C26   H15   S    
C3    C8    A    
C44   H30   S    
C40   H21   S    
C31   C33   A    
C12   C23   S    
Cu2   O4    S    
C12   C38   S    
C18   C19   A    
Cu1   Cu2   S    
C38   H18   S    
C11   C14   A    
C1    O2    A    
C20   C21   A    
C23   H20   S    
C42   C46   A    
Cu2   N1    S    
