data_mof_unit_28897.cif
_audit_creation_date              2012-12-10T19:08:08-0500
_audit_creation_method            fapswitch 2.2
_symmetry_space_group_name_H-M    P1
_symmetry_Int_Tables_number       1
_space_group_crystal_system       triclinic
_cell_length_a                    9.08888
_cell_length_b                    10.927895
_cell_length_c                    9.554341
_cell_angle_alpha                 91.758591
_cell_angle_beta                  89.774594
_cell_angle_gamma                 89.865221
_cell_volume                      948.502171806

loop_
_atom_site_label
_atom_site_type_symbol
_atom_type_description
_atom_site_fract_x
_atom_site_fract_y
_atom_site_fract_z
_atom_type_partial_charge
C1    C     C_R   0.495670 0.262788 0.497304 0.791659
C2    C     C_R   0.446742 0.928972 0.379805 -0.241331
C3    C     C_R   0.497006 0.870496 0.500746 -0.156306
C4    C     C_R   0.544820 0.945290 0.611570 0.075500
C5    C     C_3   0.614937 0.952775 0.754177 -0.208715
C6    C     C_3   0.607537 0.092662 0.744330 -0.475890
C7    C     C_R   0.615927 0.547732 0.075204 0.231699
C8    C     C_R   0.393566 0.441147 0.072648 -0.122242
C9    C     C_R   0.392754 0.442154 0.923904 -0.081328
C10   C     C_R   0.616977 0.545204 0.927366 0.218362
C11   C     C_3   0.670912 0.671979 0.921595 -0.530541
C12   C     C_R   0.220673 0.499632 0.500135 0.834580
C13   C     C_3   0.664441 0.678477 0.080369 -0.254403
C14   C     C_R   0.501175 0.737529 0.501505 0.791423
C15   C     C_R   0.779317 0.500077 0.499851 0.853835
C16   C     C_1   0.065510 0.499216 0.500212 -0.198715
C17   C     C_1   0.934448 0.499502 0.499753 -0.180116
C18   C     C_R   0.538487 0.068332 0.606303 0.091744
C19   C     C_R   0.490850 0.129983 0.490916 -0.139201
C20   C     C_R   0.441790 0.058357 0.372216 0.067418
Cu1   Cu    Cu3+1 0.499990 0.499980 0.640670 0.935741
Cu2   Cu    Cu3+1 0.500010 0.500020 0.359330 0.924189
H1    H     H_    0.587752 0.730035 0.872484 0.207594
H2    H     H_    0.575747 0.741175 0.119712 0.155730
H3    H     H_    0.413083 0.872646 0.291067 0.152039
H4    H     H_    0.540313 0.920221 0.837315 0.141049
H5    H     H_    0.530523 0.137149 0.820471 0.197439
H6    H     H_    0.715669 0.139172 0.733939 0.198060
H7    H     H_    0.306134 0.394984 0.126886 0.143836
H8    H     H_    0.304342 0.397297 0.867135 0.144942
H9    H     H_    0.782798 0.674056 0.874785 0.220227
N1    N     N_R   0.500920 0.500930 0.147930 -0.193225
N2    N     N_R   0.500930 0.500890 0.852020 -0.178752
O1    O     O_R   0.500000 0.319640 0.618810 -0.575827
O2    O     O_R   0.500020 0.319680 0.381230 -0.600004
O3    O     O_R   0.288380 0.499980 0.618770 -0.583678
O4    O     O_R   0.288400 0.500020 0.381190 -0.593197
O5    O     O_R   0.499980 0.680320 0.618770 -0.581866
O6    O     O_R   0.500000 0.680360 0.381190 -0.594669
O7    O     O_R   0.711600 0.499980 0.618810 -0.577741
O8    O     O_R   0.711620 0.500020 0.381230 -0.571177
C21   C     C_3   0.385269 0.119454 0.241116 -0.356463
C22   C     C_3   0.322815 0.034585 0.124848 -0.400388
C23   C     C_3   0.259274 0.108865 0.006339 -0.874929
H10   H     H_    0.155462 0.154509 0.040958 0.251855
H11   H     H_    0.338349 0.179665 0.973830 0.247626
H12   H     H_    0.236308 0.047746 0.914228 0.254587
H13   H     H_    0.411925 0.974675 0.081175 0.211003
H14   H     H_    0.233917 0.976984 0.167779 0.224818
H15   H     H_    0.297224 0.185401 0.273560 0.203758
H16   H     H_    0.477893 0.170228 0.193892 0.218965
C24   C     C_R   0.811798 0.700828 0.149303 0.217433
C25   C     C_R   0.828819 0.802723 0.241097 -0.158621
C26   C     C_R   0.965222 0.828194 0.302115 -0.202747
C27   C     C_R   0.085413 0.751848 0.272887 -0.141755
C28   C     C_R   0.070287 0.651344 0.180487 -0.124416
C29   C     C_R   0.934244 0.625112 0.119468 -0.133888
H17   H     H_    0.737093 0.863456 0.264166 0.127696
H18   H     H_    0.977834 0.907290 0.371962 0.146104
H19   H     H_    0.190137 0.770431 0.321911 0.135413
H20   H     H_    0.164019 0.593779 0.155955 0.154357
H21   H     H_    0.924968 0.546704 0.048037 0.111033
C30   C     C_R   0.772629 0.908550 0.765513 0.155813
C31   C     C_R   0.846913 0.930923 0.892453 -0.148936
C32   C     C_R   0.990301 0.888141 0.910414 -0.141689
C33   C     C_R   0.062495 0.824647 0.801268 -0.128547
C34   C     C_R   0.990670 0.803021 0.674085 -0.153420
C35   C     C_R   0.846105 0.843798 0.656126 -0.132306
H22   H     H_    0.792346 0.979443 0.978632 0.132080
H23   H     H_    0.044939 0.903534 0.009520 0.160380
H24   H     H_    0.173851 0.791973 0.815374 0.139319
H25   H     H_    0.046975 0.754032 0.589639 0.142770
H26   H     H_    0.792670 0.823983 0.557392 0.124953

loop_
_geom_bond_atom_site_label_1
_geom_bond_atom_site_label_2
_ccdc_geom_bond_type
C32   H23   S    
C7    C10   A    
C20   C21   S    
C25   H17   S    
C33   H24   S    
Cu1   O1    S    
C24   C29   A    
C5    H4    S    
C12   O3    A    
C13   C24   S    
C22   H13   S    
C30   C35   A    
C19   C20   A    
C23   H12   S    
C21   H16   S    
C27   C28   A    
C4    C18   A    
C31   C32   A    
C33   C34   A    
C14   O6    A    
C11   H9    S    
C29   H21   S    
C28   H20   S    
Cu1   O3    S    
C25   C26   A    
C23   H10   S    
C27   H19   S    
C9    N2    A    
Cu2   O2    S    
C11   C13   S    
C5    C30   S    
C2    H3    S    
C4    C5    S    
C3    C14   S    
Cu2   N1    S    
C9    H8    S    
C21   H15   S    
C8    H7    S    
Cu1   Cu2   S    
C23   H11   S    
C1    O1    A    
C2    C3    A    
C10   N2    A    
C26   H18   S    
C22   C23   S    
C5    C6    S    
C6    C18   S    
C15   O7    A    
C1    C19   S    
Cu2   O8    S    
Cu1   N2    S    
C21   C22   S    
Cu2   O6    S    
C30   C31   A    
C14   O5    A    
C34   C35   A    
C8    N1    A    
C16   C17   T    
C12   C16   S    
C7    C13   S    
C34   H25   S    
C18   C19   A    
C24   C25   A    
C15   O8    A    
C15   C17   S    
C32   C33   A    
C10   C11   S    
C11   H1    S    
C12   O4    A    
C28   C29   A    
C1    O2    A    
C26   C27   A    
C22   H14   S    
C7    N1    A    
C35   H26   S    
C31   H22   S    
Cu2   O4    S    
C2    C20   A    
C6    H6    S    
Cu1   O5    S    
C6    H5    S    
C13   H2    S    
C8    C9    A    
C3    C4    A    
Cu1   O7    S    
