data_mof_unit_59475.cif
_audit_creation_date              2012-10-26T21:08:12-0400
_audit_creation_method            fapswitch 2.2
_symmetry_space_group_name_H-M    P1
_symmetry_Int_Tables_number       1
_space_group_crystal_system       triclinic
_cell_length_a                    15.894129
_cell_length_b                    10.923553
_cell_length_c                    9.651944
_cell_angle_alpha                 87.336801
_cell_angle_beta                  90.32932
_cell_angle_gamma                 94.318651
_cell_volume                      1669.20685185

loop_
_atom_site_label
_atom_site_type_symbol
_atom_type_description
_atom_site_fract_x
_atom_site_fract_y
_atom_site_fract_z
_atom_type_partial_charge
C1    C     C_R   0.495936 0.261437 0.503930 0.539097
C2    C     C_R   0.412236 0.020423 0.869006 -0.179018
C3    C     C_R   0.381349 0.901755 0.843611 -0.093561
C4    C     C_R   0.340109 0.493360 0.499832 0.570495
C5    C     C_R   0.395601 0.852989 0.715686 0.313716
C6    C     C_R   0.447305 0.921232 0.615212 -0.010449
C7    C     C_R   0.465652 0.048861 0.631667 -0.040170
C8    C     C_R   0.485669 0.125233 0.510321 -0.057833
C9    C     C_R   0.481979 0.070694 0.382160 -0.141208
C10   C     C_R   0.482541 0.944595 0.370268 0.217637
C11   C     C_R   0.472788 0.868052 0.492200 0.008192
C12   C     C_3   0.083221 0.467071 0.505003 -0.037762
C13   C     C_R   0.620024 0.650807 0.138382 -0.136251
C14   C     C_R   0.684406 0.721620 0.067449 0.232711
C15   C     C_R   0.686306 0.720578 0.923576 0.255379
C16   C     C_R   0.491056 0.736249 0.496781 0.569190
C17   C     C_R   0.623034 0.652453 0.852502 -0.125535
C18   C     C_R   0.560651 0.573630 0.922841 0.055342
C19   C     C_R   0.560095 0.573167 0.071498 0.081701
C20   C     C_R   0.443128 0.428560 0.077470 0.005262
C21   C     C_R   0.441447 0.429872 0.928672 0.371194
C22   C     C_R   0.660003 0.499932 0.500384 0.520060
C23   C     C_3   0.980738 0.579414 0.552707 0.238374
C24   C     C_3   0.964547 0.380317 0.584606 0.275665
C25   C     C_3   0.019123 0.365109 0.456068 0.257537
C26   C     C_1   0.250396 0.478840 0.499379 -0.038479
C27   C     C_1   0.749554 0.494890 0.501467 -0.048840
C28   C     C_3   0.028790 0.482025 0.633662 0.314631
C29   C     C_3   0.998452 0.202891 0.309724 0.032160
C30   C     C_3   0.009796 0.066045 0.308403 -0.277590
C31   C     C_3   0.960959 0.006814 0.189971 -0.503009
C32   C     C_3   0.273612 0.785807 0.614400 -0.142381
C33   C     C_3   0.546487 0.913475 0.160675 0.022071
C34   C     C_3   0.915915 0.478509 0.504426 -0.002715
C35   C     C_3   0.574429 0.046269 0.109697 -0.293049
C36   C     C_3   0.636122 0.050341 0.988742 -0.445207
C37   C     C_3   0.767943 0.772853 0.261236 -0.019683
C38   C     C_3   0.729885 0.843568 0.375802 -0.288307
C39   C     C_3   0.785062 0.845370 0.503560 -0.478972
C40   C     C_3   0.820675 0.751542 0.836196 0.023799
C41   C     C_3   0.879523 0.777209 0.959386 -0.252314
C42   C     C_3   0.971910 0.771679 0.921200 -0.488480
C43   C     C_3   0.300204 0.363919 0.898474 0.006410
C44   C     C_3   0.262176 0.243072 0.966435 -0.283498
C45   C     C_3   0.035851 0.566992 0.421952 -0.204172
C46   C     C_3   0.171712 0.254352 0.013407 -0.470809
C47   C     C_3   0.862773 0.215540 0.619672 0.018646
C48   C     C_3   0.784694 0.225395 0.709677 -0.256729
C49   C     C_3   0.704101 0.174898 0.638637 -0.468529
C50   C     C_3   0.991441 0.495991 0.139281 -0.128583
C51   C     C_3   0.998073 0.791242 0.544278 -0.168609
C52   C     C_3   0.119066 0.573304 0.794936 -0.149088
C53   C     C_3   0.970988 0.463603 0.374816 0.202376
C54   C     C_1   0.174782 0.469444 0.500966 -0.040504
C55   C     C_1   0.824732 0.488600 0.502485 -0.019382
C56   C     C_R   0.454471 0.093561 0.765291 -0.113797
Cu1   Cu    Cu3+1 0.499990 0.499990 0.640660 1.000629
Cu2   Cu    Cu3+1 0.500010 0.500010 0.359340 0.935874
H1    H     H_    0.342571 0.849445 0.920697 0.134642
H2    H     H_    0.930000 0.214867 0.321917 0.150376
H3    H     H_    0.077836 0.050958 0.298128 0.173479
H4    H     H_    0.986451 0.022485 0.408184 0.152899
H5    H     H_    0.984648 0.047097 0.088510 0.161947
H6    H     H_    0.892593 0.019841 0.199031 0.165104
H7    H     H_    0.969787 0.907054 0.195087 0.130888
H8    H     H_    0.233139 0.703852 0.587514 0.120924
H9    H     H_    0.288649 0.839578 0.515679 0.126796
H10   H     H_    0.236030 0.839486 0.683629 0.100801
H11   H     H_    0.598185 0.876535 0.220674 0.159768
H12   H     H_    0.398070 0.368760 0.136763 0.112304
H13   H     H_    0.535641 0.857161 0.068530 0.172562
H14   H     H_    0.519571 0.096348 0.075849 0.161252
H15   H     H_    0.606869 0.095875 0.195179 0.146364
H16   H     H_    0.696218 0.012952 0.022294 0.221662
H17   H     H_    0.650262 0.147377 0.951776 0.133141
H18   H     H_    0.608697 0.997586 0.901518 0.175803
H19   H     H_    0.837075 0.795951 0.259127 0.153942
H20   H     H_    0.759963 0.671911 0.284240 0.143042
H21   H     H_    0.722741 0.940268 0.339031 0.173419
H22   H     H_    0.667185 0.799366 0.405983 0.136781
H23   H     H_    0.613977 0.666925 0.244645 0.186406
H24   H     H_    0.800281 0.750425 0.533784 0.189058
H25   H     H_    0.750611 0.883108 0.589282 0.174410
H26   H     H_    0.843812 0.904661 0.482974 0.136442
H27   H     H_    0.851578 0.799445 0.745050 0.192340
H28   H     H_    0.814236 0.651547 0.815529 0.145534
H29   H     H_    0.870734 0.870404 0.995203 0.215153
H30   H     H_    0.864408 0.706959 0.043982 0.174943
H31   H     H_    0.981368 0.679815 0.883068 0.216430
H32   H     H_    0.012583 0.787011 0.013385 0.114967
H33   H     H_    0.991070 0.844123 0.840906 0.167486
H34   H     H_    0.623710 0.668160 0.742727 0.191944
H35   H     H_    0.264004 0.382297 0.802185 0.174879
H36   H     H_    0.291676 0.442137 0.966317 0.108508
H37   H     H_    0.262453 0.169501 0.890719 0.178025
H38   H     H_    0.300618 0.215961 0.057583 0.151384
H39   H     H_    0.170371 0.324251 0.093133 0.150814
H40   H     H_    0.145375 0.164604 0.059306 0.145372
H41   H     H_    0.131666 0.281005 0.923958 0.200594
H42   H     H_    0.877433 0.117654 0.620089 0.145263
H43   H     H_    0.848431 0.243083 0.510118 0.114299
H44   H     H_    0.792504 0.173912 0.810422 0.170539
H45   H     H_    0.067593 0.642091 0.355374 0.091743
H46   H     H_    0.778293 0.323156 0.731721 0.184149
H47   H     H_    0.696501 0.221970 0.535331 0.152603
H48   H     H_    0.648587 0.190697 0.702742 0.160279
H49   H     H_    0.705541 0.074859 0.625860 0.149563
H50   H     H_    0.053841 0.457027 0.152246 0.116441
H51   H     H_    0.999405 0.597592 0.139472 0.113890
H52   H     H_    0.965654 0.470298 0.036745 0.189359
H53   H     H_    0.067863 0.789609 0.550510 0.107606
H54   H     H_    0.980855 0.874089 0.596278 0.125394
H55   H     H_    0.976999 0.799459 0.434469 0.124209
H56   H     H_    0.476376 0.127166 0.288648 0.147827
H57   H     H_    0.106594 0.663475 0.744436 0.132748
H58   H     H_    0.179715 0.543237 0.758846 0.130687
H59   H     H_    0.125824 0.586557 0.907803 0.117076
H60   H     H_    0.476630 0.183692 0.794253 0.199344
H61   H     H_    0.398693 0.058266 0.967172 0.133204
H62   H     H_    0.021087 0.247029 0.209557 0.165145
N1    N     N_R   0.500800 0.501210 0.147910 -0.258612
N2    N     N_R   0.500830 0.501290 0.852040 -0.215619
O1    O     O_R   0.499990 0.319640 0.618810 -0.488442
O2    O     O_3   0.347391 0.748245 0.681229 -0.545970
O3    O     O_3   0.471012 0.898550 0.239393 -0.564636
O4    O     O_3   0.735592 0.811635 0.130993 -0.595900
O5    O     O_3   0.742023 0.802613 0.850671 -0.588000
O6    O     O_3   0.384817 0.351412 0.859359 -0.567407
O7    O     O_3   0.932391 0.284227 0.677412 -0.537572
O8    O     O_3   0.933779 0.450310 0.242620 -0.587189
O9    O     O_3   0.957028 0.686965 0.612303 -0.599306
O10   O     O_3   0.053036 0.482536 0.774741 -0.562721
O11   O     O_R   0.500000 0.319660 0.381240 -0.515867
O12   O     O_R   0.379070 0.499980 0.618770 -0.425609
O13   O     O_R   0.379080 0.500000 0.381190 -0.503675
O14   O     O_R   0.500000 0.680340 0.618760 -0.495114
O15   O     O_R   0.500010 0.680360 0.381190 -0.496859
O16   O     O_R   0.620920 0.500000 0.618810 -0.527774
O17   O     O_R   0.620930 0.500020 0.381230 -0.517345
O18   O     O_3   0.047258 0.251811 0.418877 -0.563975

loop_
_geom_bond_atom_site_label_1
_geom_bond_atom_site_label_2
_ccdc_geom_bond_type
Cu2   O17   S    
C46   H41   S    
C51   H54   S    
C23   C45   S    
C1    C8    S    
C41   C42   S    
C32   O2    S    
C16   O15   A    
C7    C8    A    
C49   H49   S    
C5    O2    S    
C29   C30   S    
C47   O7    S    
C47   H43   S    
C9    H56   S    
C4    O12   A    
C25   C53   S    
C39   H26   S    
C18   C19   A    
C5    C6    A    
C27   C55   T    
C38   H21   S    
C48   H46   S    
C13   H23   S    
C50   H52   S    
C43   H36   S    
C15   C17   A    
C42   H33   S    
C40   H28   S    
C21   N2    A    
C29   O18   S    
C36   H18   S    
C43   H35   S    
Cu1   N2    S    
C24   O7    S    
C35   H15   S    
C35   C36   S    
C8    C9    A    
Cu1   O14   S    
C10   O3    S    
C50   O8    S    
C9    C10   A    
C33   H11   S    
C32   H10   S    
C52   H59   S    
C46   H40   S    
C45   C53   S    
C34   C55   S    
C15   O5    S    
C13   C14   A    
C50   H50   S    
C20   H12   S    
C17   H34   S    
C7    C56   A    
C1    O11   A    
C26   C54   T    
C44   C46   S    
C52   H58   S    
Cu2   O11   S    
C38   C39   S    
C41   H29   S    
C29   H62   S    
C13   C19   A    
C52   O10   S    
C31   H5    S    
C25   O18   S    
C24   C25   S    
C6    C11   A    
C51   O9    S    
C49   H47   S    
C40   O5    S    
C37   H19   S    
C22   O17   A    
C50   H51   S    
C24   C34   S    
C47   H42   S    
C28   O10   S    
C40   H27   S    
C43   C44   S    
C1    O1    A    
C37   C38   S    
C44   H38   S    
C36   H17   S    
Cu1   O1    S    
C11   C16   S    
C47   C48   S    
C29   H2    S    
C23   C34   S    
C48   H44   S    
C33   O3    S    
C17   C18   A    
C23   O9    S    
C51   H55   S    
C23   C28   S    
C21   O6    S    
C20   N1    A    
C49   H48   S    
C36   H16   S    
C18   N2    A    
C4    O13   A    
Cu2   O15   S    
C40   C41   S    
C46   H39   S    
C12   C28   S    
C35   H14   S    
C22   C27   S    
C32   H9    S    
Cu1   O12   S    
C16   O14   A    
C32   H8    S    
C37   O4    S    
C52   H57   S    
C31   H7    S    
C41   H30   S    
C19   N1    A    
Cu2   N1    S    
C51   H53   S    
C56   H60   S    
C31   H6    S    
C24   C28   S    
C39   H24   S    
C12   C45   S    
C3    C5    A    
C43   O6    S    
C4    C26   S    
C2    H61   S    
C6    C7    A    
Cu2   O13   S    
C37   H20   S    
C22   O16   A    
C14   O4    S    
C12   C25   S    
C42   H31   S    
C30   H4    S    
C2    C3    A    
C39   H25   S    
C44   H37   S    
C2    C56   A    
Cu1   Cu2   S    
C30   C31   S    
C38   H22   S    
C48   C49   S    
C33   C35   S    
Cu1   O16   S    
C10   C11   A    
C33   H13   S    
C20   C21   A    
C34   C53   S    
C30   H3    S    
C14   C15   A    
C53   O8    S    
C42   H32   S    
C12   C54   S    
C3    H1    S    
C45   H45   S    
