data_mof_unit_53251.cif
_audit_creation_date              2013-03-05T15:46:57-0500
_audit_creation_method            fapswitch 2.2
_symmetry_space_group_name_H-M    P1
_symmetry_Int_Tables_number       1
_space_group_crystal_system       triclinic
_cell_length_a                    10.178762
_cell_length_b                    10.810363
_cell_length_c                    14.97885
_cell_angle_alpha                 90.021237
_cell_angle_beta                  81.40311
_cell_angle_gamma                 94.951052
_cell_volume                      1623.48380675

loop_
_atom_site_label
_atom_site_type_symbol
_atom_site_description
_atom_site_fract_x
_atom_site_fract_y
_atom_site_fract_z
_atom_type_partial_charge
O1    O     O_R   0.431060 0.692470 0.507460 -0.626244
O2    O     O_R   0.568940 0.307530 0.492540 -0.615895
O3    O     O_R   0.651120 0.659650 0.483670 -0.609889
O4    O     O_R   0.348880 0.340350 0.516330 -0.603904
C1    C     C_R   0.555668 0.732419 0.491467 0.970858
C2    C     C_R   0.444274 0.267552 0.503450 0.954608
O5    O     O_R   0.389960 0.516440 0.644050 -0.639976
O6    O     O_R   0.610040 0.483560 0.355950 -0.636753
O7    O     O_R   0.610030 0.483620 0.620260 -0.574044
O8    O     O_R   0.389970 0.516380 0.379740 -0.590731
C3    C     C_R   0.501229 0.502457 0.672820 0.948776
C4    C     C_R   0.498740 0.497176 0.327165 0.936975
Zn1   Zn    Zn3+2 0.353060 0.521920 0.515880 0.980726
Zn2   Zn    Zn3+2 0.646940 0.478080 0.484120 0.998318
C5    C     C_R   0.389950 0.429878 0.196288 0.274642
C6    C     C_R   0.611266 0.566667 0.803580 0.273643
C7    C     C_R   0.497166 0.492773 0.231670 -0.183250
C8    C     C_R   0.503051 0.505633 0.768259 -0.181057
C9    C     C_R   0.604449 0.554842 0.176106 -0.306276
C10   C     C_R   0.395933 0.443215 0.823727 -0.306744
C11   C     C_R   0.606136 0.557993 0.083861 0.132257
C12   C     C_R   0.395112 0.438599 0.915869 0.134446
C13   C     C_R   0.499542 0.496477 0.046622 0.038739
C14   C     C_R   0.501912 0.499703 0.953128 0.040482
C15   C     C_R   0.391028 0.431416 0.102687 -0.004031
C16   C     C_R   0.610635 0.564370 0.897048 -0.005797
C17   C     C_R   0.712550 0.622845 0.028641 -0.210400
C18   C     C_R   0.289436 0.372635 0.970945 -0.212767
C19   C     C_R   0.714606 0.626700 0.935943 -0.150015
C20   C     C_R   0.287875 0.367933 0.063560 -0.148717
H1    H     H_    0.685594 0.603167 0.205266 0.172493
H2    H     H_    0.314391 0.395619 0.794552 0.169690
H3    H     H_    0.794041 0.671133 0.057237 0.153539
H4    H     H_    0.208156 0.324070 0.942289 0.154085
H5    H     H_    0.797672 0.679335 0.895487 0.195968
H6    H     H_    0.205574 0.313919 0.103642 0.200272
H7    H     H_    0.614652 0.105504 0.450430 0.191320
H8    H     H_    0.385060 0.894318 0.473293 0.189224
C21   C     C_2   0.586989 0.864164 0.478440 -0.334251
C22   C     C_2   0.412792 0.135772 0.496780 -0.305776
C23   C     C_2   0.487532 0.933896 0.471012 -0.163992
C24   C     C_2   0.512121 0.066016 0.468791 -0.137918
H9    H     H_    0.310605 0.095693 0.515390 0.152502
H10   H     H_    0.689178 0.904270 0.476249 0.161883
H11   H     H_    0.117211 0.453907 0.426958 0.200337
H12   H     H_    0.892963 0.595538 0.540370 0.202263
N1    N     N_2   0.842700 0.448880 0.462930 -0.043372
N2    N     N_2   0.157300 0.551120 0.537070 -0.055532
C25   C     C_2   0.928634 0.517629 0.501120 -0.006966
C26   C     C_2   0.075406 0.503609 0.485649 -0.052921
N3    N     N_R   0.282775 0.363023 0.255004 0.193385
O9    O     O_R   0.307009 0.274234 0.307218 -0.424011
O10   O     O_R   0.161495 0.394173 0.258853 -0.458618
N4    N     N_R   0.719569 0.631846 0.744863 0.194833
O11   O     O_R   0.697725 0.723588 0.694407 -0.423094
O12   O     O_R   0.838463 0.593846 0.737318 -0.425323
N5    N     N_2   0.103133 0.603872 0.616326 -0.205318
H13   H     H_    0.141472 0.572012 0.671027 0.261604
C27   C     C_3   0.114523 0.737970 0.611930 -0.644693
H14   H     H_    0.060043 0.774638 0.674777 0.249779
H15   H     H_    0.070320 0.770586 0.553645 0.220530
H16   H     H_    0.220816 0.774751 0.605228 0.227482
N6    N     N_2   0.875185 0.332623 0.432660 -0.235028
H17   H     H_    0.960710 0.299139 0.448633 0.223541
C28   C     C_3   0.845472 0.304316 0.343285 -0.577905
H18   H     H_    0.885455 0.215178 0.320879 0.206916
H19   H     H_    0.891575 0.379054 0.294811 0.250340
H20   H     H_    0.736271 0.293650 0.343622 0.244750

loop_
_geom_bond_atom_site_label_1
_geom_bond_atom_site_label_2
_geom_bond_distance
_ccdc_geom_bond_type
C4    C7    1.433616 S    
Zn1   N2    2.022433 S    
N3    O10   1.300434 A    
C13   C14   1.397431 A    
N6    C28   1.442944 S    
C3    C8    1.432829 S    
Zn2   N1    2.022433 S    
C5    N3    1.436485 S    
C17   C19   1.386122 A    
C23   C24   1.428119 S    
C19   H5    1.081616 S    
C28   H19   1.110545 S    
O6    C4    1.290690 A    
O7    Zn2   2.019384 S    
C28   H20   1.106809 S    
C9    H1    1.085868 S    
C18   C20   1.385871 A    
C11   C17   1.396567 A    
C18   H4    1.084143 S    
C27   H14   1.110138 S    
N1    C25   1.296825 D    
C6    C8    1.406072 A    
C12   C18   1.396014 A    
C17   H3    1.084125 S    
O5    C3    1.291052 A    
O7    C3    1.290691 A    
H12   C25   1.084170 S    
N5    H13   1.030161 S    
O2    C2    1.291160 A    
O3    Zn2   1.959615 S    
O8    C4    1.291488 A    
H11   C26   1.081622 S    
H8    C23   1.088342 S    
O1    C1    1.291240 A    
C6    C16   1.399316 A    
C12   C14   1.409513 A    
N2    C26   1.292146 D    
C9    C11   1.379663 A    
C10   C12   1.379856 A    
C25   C26   1.498046 S    
C8    C10   1.391759 A    
N4    O12   1.300371 A    
C11   C13   1.409506 A    
N1    N6    1.385961 S    
O2    Zn2   1.939867 S    
C6    N4    1.435897 S    
C5    C15   1.400526 A    
N5    C27   1.445010 S    
C21   H10   1.087638 S    
N6    H17   1.030940 S    
N2    N5    1.377189 S    
C13   C15   1.417376 A    
O1    Zn1   1.939865 S    
C21   C23   1.330770 D    
C16   C19   1.405132 A    
O4    C2    1.294277 A    
C28   H18   1.110602 S    
C10   H2    1.085907 S    
C27   H15   1.110862 S    
H7    C24   1.088314 S    
C5    C7    1.406674 A    
C1    C21   1.439213 S    
N4    O11   1.301199 A    
C15   C20   1.405778 A    
C27   H16   1.109976 S    
O6    Zn2   2.012426 S    
O5    Zn1   2.012429 S    
C7    C9    1.391982 A    
C22   H9    1.087629 S    
C2    C22   1.439721 S    
N3    O9    1.301118 A    
O4    Zn1   1.959617 S    
C14   C16   1.417052 A    
C22   C24   1.330893 D    
O3    C1    1.293980 A    
O8    Zn1   2.019381 S    
C20   H6    1.081043 S    
