data_mof_unit_38831.cif
_audit_creation_date              2012-12-10T17:19:22-0500
_audit_creation_method            fapswitch 2.2
_symmetry_space_group_name_H-M    P1
_symmetry_Int_Tables_number       1
_space_group_crystal_system       triclinic
_cell_length_a                    15.054583
_cell_length_b                    10.847355
_cell_length_c                    9.618135
_cell_angle_alpha                 92.423493
_cell_angle_beta                  90.241545
_cell_angle_gamma                 93.972451
_cell_volume                      1565.44933618

loop_
_atom_site_label
_atom_site_type_symbol
_atom_type_description
_atom_site_fract_x
_atom_site_fract_y
_atom_site_fract_z
_atom_type_partial_charge
C1    C     C_R   0.504825 0.263359 0.497032 0.798333
C2    C     C_R   0.909154 0.548645 0.607296 0.129351
C3    C     C_R   0.949518 0.346086 0.290429 0.238859
C4    C     C_R   0.042627 0.357761 0.288770 -0.271136
C5    C     C_R   0.090728 0.426523 0.392946 0.065088
C6    C     C_R   0.045968 0.486989 0.501063 0.067056
C7    C     C_R   0.095181 0.553391 0.609022 0.123001
C8    C     C_R   0.050943 0.615799 0.715234 -0.215528
C9    C     C_R   0.958504 0.614386 0.713663 -0.209248
C10   C     C_R   0.183489 0.434490 0.391221 -0.223591
C11   C     C_R   0.232093 0.497670 0.499519 -0.072119
C12   C     C_R   0.328907 0.499814 0.499821 0.820562
C13   C     C_R   0.188018 0.556433 0.608728 -0.248205
C14   C     C_R   0.612711 0.146506 0.697017 -0.188025
C15   C     C_R   0.631153 0.104104 0.828765 0.260529
C16   C     C_R   0.589869 0.989719 0.864533 -0.045810
C17   C     C_R   0.545720 0.911105 0.762450 -0.281361
C18   C     C_R   0.534138 0.950402 0.625599 0.077118
C19   C     C_R   0.555158 0.076253 0.603532 0.043831
C20   C     C_R   0.515003 0.130820 0.491524 -0.094128
C21   C     C_R   0.472939 0.057027 0.385175 -0.161254
C22   C     C_R   0.467679 0.929647 0.392661 -0.169315
C23   C     C_R   0.498890 0.738316 0.503726 0.777047
C24   C     C_R   0.497947 0.873973 0.511422 -0.101603
C25   C     C_R   0.628689 0.652870 0.150916 -0.093733
C26   C     C_R   0.697079 0.716920 0.081718 -0.176870
C27   C     C_R   0.696098 0.717725 0.938255 -0.224352
C28   C     C_R   0.627428 0.653017 0.863627 -0.173189
C29   C     C_R   0.562542 0.575634 0.929113 0.186441
C30   C     C_R   0.562707 0.575711 0.078453 0.193755
C31   C     C_R   0.442677 0.423704 0.068917 0.059105
C32   C     C_R   0.442229 0.425081 0.921322 -0.080948
C33   C     C_R   0.670770 0.496327 0.500190 0.776216
C34   C     C_R   0.817270 0.551092 0.604904 -0.266101
C35   C     C_R   0.766995 0.485669 0.500685 -0.125442
C36   C     C_R   0.807947 0.409934 0.400236 -0.084051
C37   C     C_R   0.902376 0.410873 0.395813 0.016182
C38   C     C_R   0.952338 0.482005 0.501043 -0.002156
Cu1   Cu    Cu3+1 0.499990 0.499990 0.640660 0.924355
Cu2   Cu    Cu3+1 0.500010 0.500010 0.359340 0.961506
H1    H     H_    0.784587 0.606072 0.683503 0.149785
H2    H     H_    0.640950 0.235681 0.667157 0.157046
H3    H     H_    0.513659 0.825825 0.795986 0.188375
H4    H     H_    0.437348 0.874408 0.306295 0.173361
H5    H     H_    0.629703 0.669370 0.260665 0.193209
H6    H     H_    0.748071 0.772548 0.140159 0.148626
H7    H     H_    0.746191 0.774053 0.884770 0.143321
H8    H     H_    0.626186 0.669514 0.755404 0.200882
H9    H     H_    0.395399 0.363362 0.861693 0.145741
H10   H     H_    0.077563 0.310265 0.206366 0.155258
H11   H     H_    0.217811 0.388838 0.307351 0.172797
H12   H     H_    0.226061 0.606174 0.691961 0.150337
H13   H     H_    0.087879 0.666951 0.798511 0.145073
H14   H     H_    0.925471 0.664961 0.795699 0.141466
H15   H     H_    0.443214 0.097687 0.296948 0.182319
N1    N     N_R   0.500860 0.501210 0.147910 -0.221438
N2    N     N_R   0.500890 0.501290 0.852040 -0.207868
O1    O     O_R   0.499990 0.319640 0.618810 -0.580557
O2    O     O_R   0.500000 0.319660 0.381240 -0.561432
O3    O     O_R   0.370250 0.499960 0.618800 -0.581178
O4    O     O_R   0.370260 0.499980 0.381230 -0.577007
O5    O     O_R   0.500000 0.680340 0.618760 -0.610446
O6    O     O_R   0.500010 0.680360 0.381190 -0.594122
O7    O     O_R   0.629740 0.500020 0.618770 -0.609406
O8    O     O_R   0.629750 0.500040 0.381200 -0.593916
N3    N     N_2   0.684924 0.177349 0.929143 -0.413372
H16   H     H_    0.721186 0.127213 0.995024 0.263334
C39   C     C_3   0.730215 0.293112 0.890627 -0.644014
H17   H     H_    0.768397 0.336165 0.981193 0.241423
H18   H     H_    0.681085 0.358991 0.860111 0.249549
H19   H     H_    0.777483 0.276739 0.804471 0.212021
C40   C     C_1   0.585962 0.957640 0.008263 0.249833
N4    N     N_1   0.582577 0.933958 0.124256 -0.290588
C41   C     C_1   0.383333 0.334365 0.133866 0.283599
N5    N     N_1   0.335723 0.261193 0.184578 -0.346104
C42   C     C_1   0.750993 0.327152 0.310843 0.310794
N6    N     N_1   0.704240 0.261104 0.241536 -0.255889
N7    N     N_2   0.905078 0.271128 0.183095 -0.433876
H20   H     H_    0.928862 0.289501 0.085121 0.249778
C43   C     C_3   0.900713 0.140137 0.207769 -0.677032
H21   H     H_    0.860549 0.088740 0.124329 0.221653
H22   H     H_    0.868553 0.121621 0.309288 0.238274
H23   H     H_    0.968616 0.105901 0.207474 0.220224

loop_
_geom_bond_atom_site_label_1
_geom_bond_atom_site_label_2
_ccdc_geom_bond_type
C8    C9    A    
N3    C39   S    
C35   C36   A    
C16   C40   S    
C33   O8    A    
C7    C8    A    
Cu1   O7    S    
C26   C27   A    
C37   C38   A    
Cu2   O6    S    
C18   C24   A    
C36   C37   A    
C18   C19   A    
C1    O2    A    
C5    C6    A    
N7    C43   S    
C15   C16   A    
Cu1   N2    S    
C34   C35   A    
C36   C42   S    
C39   H17   S    
C23   O5    A    
C22   H4    S    
C19   C20   A    
C16   C17   A    
Cu2   N1    S    
C23   C24   S    
C6    C38   A    
C31   N1    A    
C14   H2    S    
C2    C34   A    
C23   O6    A    
N3    H16   S    
C33   O7    A    
Cu2   O2    S    
C21   C22   A    
C15   N3    S    
C28   H8    S    
C34   H1    S    
C32   N2    A    
C43   H23   S    
C10   H11   S    
C41   N5    T    
C3    N7    S    
C42   N6    T    
C40   N4    T    
C43   H22   S    
Cu1   Cu2   S    
C21   H15   S    
N7    H20   S    
C4    C5    A    
C31   C41   S    
C25   C26   A    
Cu1   O1    S    
C30   N1    A    
Cu2   O4    S    
C4    H10   S    
C17   H3    S    
C29   C30   A    
C13   H12   S    
C2    C38   A    
C31   C32   A    
C17   C18   A    
C29   N2    A    
Cu2   O8    S    
C22   C24   A    
C3    C4    A    
C25   H5    S    
C27   H7    S    
C25   C30   A    
Cu1   O5    S    
C28   C29   A    
C1    C20   S    
C14   C19   A    
C43   H21   S    
C8    H13   S    
C11   C12   S    
C6    C7    A    
C5    C10   A    
C1    O1    A    
C12   O4    A    
C11   C13   A    
C39   H19   S    
Cu1   O3    S    
C33   C35   S    
C32   H9    S    
C10   C11   A    
C26   H6    S    
C12   O3    A    
C7    C13   A    
C20   C21   A    
C3    C37   A    
C39   H18   S    
C27   C28   A    
C14   C15   A    
C9    H14   S    
C2    C9    A    
