data_mof_unit_66979.cif
_audit_creation_date              2013-03-05T15:58:12-0500
_audit_creation_method            fapswitch 2.2
_symmetry_space_group_name_H-M    P1
_symmetry_Int_Tables_number       1
_space_group_crystal_system       triclinic
_cell_length_a                    8.302176
_cell_length_b                    12.846135
_cell_length_c                    14.389722
_cell_angle_alpha                 93.529094
_cell_angle_beta                  91.116799
_cell_angle_gamma                 98.241729
_cell_volume                      1515.32331472

loop_
_atom_site_label
_atom_site_type_symbol
_atom_site_description
_atom_site_fract_x
_atom_site_fract_y
_atom_site_fract_z
_atom_type_partial_charge
P1    P     P_3+3 0.054400 0.427280 0.286870 0.483097
O1    O     O_2   0.887370 0.460630 0.272300 -0.363366
O2    O     O_3   0.129410 0.451380 0.388510 -0.414907
O3    O     O_3   0.670210 0.653170 0.329170 -0.366477
O4    O     O_2   0.814882 0.601484 0.170468 -0.334475
O5    O     O_3   0.009780 0.290026 0.269199 -0.559610
O6    O     O_3   0.682695 0.773029 0.168371 -0.526078
H1    H     H_    0.761641 0.856289 0.292931 0.164782
C1    C     C_3   0.626856 0.947775 0.207449 -1.145962
H2    H     H_    0.610488 0.004496 0.266958 0.257069
H3    H     H_    0.731013 0.980856 0.166541 0.309388
P2    P     P_3+3 0.668300 0.742890 0.573060 0.433099
P3    P     P_3+3 0.135277 0.843702 0.390485 0.428331
O7    O     O_2   0.845380 0.761330 0.544970 -0.357273
O8    O     O_3   0.088930 0.704860 0.376040 -0.408998
O9    O     O_2   0.026002 0.883041 0.465852 -0.363822
O10   O     O_3   0.686673 0.763761 0.694540 -0.582888
O11   O     O_3   0.073646 0.906630 0.294365 -0.563454
C2    C     C_3   0.156097 0.878661 0.214616 0.851378
H4    H     H_    0.276838 0.855458 0.232967 0.010843
C3    C     C_3   0.189431 0.976716 0.157442 0.140438
H5    H     H_    0.264785 0.962604 0.096245 -0.033708
C4    C     C_3   0.225955 0.764162 0.666274 0.360325
H6    H     H_    0.358163 0.761691 0.661088 0.087237
H7    H     H_    0.160705 0.733471 0.599906 0.138492
C5    C     C_3   0.197308 0.877714 0.684181 -0.872489
H8    H     H_    0.234614 0.906383 0.756650 0.244162
H9    H     H_    0.265831 0.928919 0.634633 0.236854
H10   H     H_    0.065744 0.881967 0.676243 0.267626
Ba1   Ba    Ba6+2 0.855630 0.555280 0.454520 1.549155
C6    C     C_3   0.969252 0.243739 0.352768 0.349311
H11   H     H_    0.058273 0.271750 0.410488 0.157054
C7    C     C_3   0.969307 0.126022 0.336738 -0.820693
H12   H     H_    0.888955 0.095427 0.276060 0.281431
H13   H     H_    0.925983 0.083888 0.398213 0.223736
H14   H     H_    0.095227 0.110973 0.322854 0.264502
C8    C     C_3   0.716743 0.671665 0.734482 0.454636
H15   H     H_    0.828501 0.646039 0.706038 0.102558
C9    C     C_3   0.740422 0.695278 0.839298 -1.034531
H16   H     H_    0.757814 0.623014 0.874120 0.230714
P4    P     P_3+3 0.135310 0.572810 0.713130 0.446006
O12   O     O_2   0.302330 0.539400 0.727760 -0.380946
O13   O     O_3   0.060300 0.548700 0.611500 -0.414349
O14   O     O_3   0.519500 0.346920 0.670840 -0.370927
O15   O     O_3   0.168928 0.708497 0.742251 -0.572566
P5    P     P_3+3 0.062337 0.157532 0.622677 0.451089
O16   O     O_3   0.614310 0.373510 0.452640 -0.370322
O17   O     O_3   0.100780 0.295230 0.623970 -0.396750
O18   O     O_2   0.191436 0.113135 0.562024 -0.367562
O19   O     O_3   0.102897 0.120739 0.734393 -0.525756
Ba2   Ba    Ba6+2 0.334200 0.444810 0.545490 1.539929
P6    P     P_3+3 0.660735 0.644300 0.205681 0.522943
C10   C     C_3   0.655085 0.843318 0.243516 0.561342
H17   H     H_    0.544052 0.814897 0.280877 -0.018985
O20   O     O_3   0.575400 0.626570 0.547370 -0.431783
C11   C     C_3   0.497921 0.285456 0.256312 0.258371
H18   H     H_    0.577789 0.359799 0.279393 0.154746
C12   C     C_3   0.538966 0.256262 0.156210 0.067715
H19   H     H_    0.495454 0.170618 0.139309 0.102531
H20   H     H_    0.673541 0.266125 0.150822 0.129318
P7    P     P_3+3 0.527584 0.240270 0.428503 0.432819
O21   O     O_2   0.344320 0.238700 0.455090 -0.360918
O22   O     O_3   0.525703 0.202328 0.309771 -0.648985
H21   H     H_    0.266258 0.039216 0.201829 0.058426
C13   C     C_3   0.065034 0.199510 0.799042 0.486394
H22   H     H_    0.166797 0.265607 0.805778 0.157113
C14   C     C_3   0.039725 0.152739 0.892187 -1.039483
H23   H     H_    0.152397 0.123478 0.915031 0.255142
H24   H     H_    0.007162 0.212576 0.944856 0.243064
H25   H     H_    0.939999 0.085375 0.884182 0.289133
P8    P     P_3+3 0.540338 0.346186 0.791225 0.458597
C15   C     C_3   0.567955 0.151014 0.758703 0.393341
H26   H     H_    0.691012 0.190119 0.741765 -0.029222
O23   O     O_2   0.408918 0.406522 0.834041 -0.412445
O24   O     O_3   0.484715 0.215230 0.818274 -0.514161
H27   H     H_    0.496327 0.130606 0.692262 0.051143
H28   H     H_    0.692247 0.015331 0.771019 0.065922
C16   C     C_3   0.590362 0.049857 0.804607 0.157756
H29   H     H_    0.478978 0.991190 0.789964 0.054854
C17   C     C_R   0.992320 0.437132 0.056792 -0.120630
C18   C     C_R   0.195199 0.478727 0.189994 0.083432
C19   C     C_R   0.360531 0.514982 0.215679 0.200840
C20   C     C_R   0.469707 0.565519 0.154701 0.195013
C21   C     C_R   0.421387 0.571530 0.061898 -0.332954
C22   C     C_R   0.262221 0.529161 0.030019 0.058776
C23   C     C_R   0.148151 0.480435 0.093161 -0.052198
C24   C     C_R   0.059945 0.495336 0.899530 -0.025863
C25   C     C_R   0.948462 0.443141 0.961672 0.030921
C26   C     C_R   0.011842 0.498407 0.802781 0.273238
C27   C     C_R   0.857534 0.447979 0.772587 -0.531996
C28   C     C_R   0.746420 0.401970 0.834806 0.258798
C29   C     C_R   0.791934 0.398404 0.928412 -0.277208
C30   C     C_R   0.214604 0.540561 0.936546 -0.138541
H30   H     H_    0.505786 0.613060 0.015600 0.165223
H31   H     H_    0.705176 0.360123 0.975071 0.204636
H32   H     H_    0.820153 0.448851 0.700204 0.171539
H33   H     H_    0.904251 0.397234 0.101771 0.163963
H34   H     H_    0.300871 0.584503 0.893200 0.174176
C31   C     C_R   0.762596 0.177177 0.542488 -0.530461
C32   C     C_R   0.423489 0.820222 0.479074 -0.498328
C33   C     C_R   0.408312 0.995749 0.435412 -0.220420
C34   C     C_R   0.342165 0.890182 0.434585 0.185840
C35   C     C_R   0.576550 0.849986 0.520151 0.278287
C36   C     C_R   0.643271 0.959407 0.527119 -0.069964
C37   C     C_R   0.555861 0.033134 0.484581 -0.040114
C38   C     C_R   0.616953 0.142299 0.493564 0.282290
C39   C     C_R   0.854586 0.105982 0.578534 0.212738
C40   C     C_R   0.792639 0.998180 0.574486 -0.225028
H35   H     H_    0.338780 0.047829 0.401244 0.179099
H36   H     H_    0.862135 0.946003 0.607796 0.188447
H37   H     H_    0.810662 0.260288 0.546572 0.169010
H38   H     H_    0.360936 0.742830 0.487519 0.112500
H39   H     H_    0.847108 0.259813 0.372337 0.089295
H40   H     H_    0.612093 0.607870 0.721426 0.125202
H41   H     H_    0.849083 0.755657 0.854523 0.270888
H42   H     H_    0.631482 0.725241 0.868227 0.255671
H43   H     H_    0.515589 0.935783 0.161991 0.221179
H44   H     H_    0.367505 0.295860 0.259765 0.119409
O25   O     O_3   0.477298 0.324233 0.095293 -0.628980
C41   C     C_3   0.348035 0.268205 0.039793 -0.171823
H45   H     H_    0.244994 0.237198 0.083486 0.152584
H46   H     H_    0.390393 0.203374 0.996546 0.184515
H47   H     H_    0.303237 0.321950 0.991388 0.202886
H48   H     H_    0.951964 0.230768 0.779830 0.036690
O26   O     O_3   0.053230 0.797013 0.163741 -0.562756
C42   C     C_3   0.143710 0.740028 0.103039 -0.266586
H49   H     H_    0.228188 0.700091 0.143892 0.102624
H50   H     H_    0.211581 0.790297 0.052539 0.095810
H51   H     H_    0.057360 0.680196 0.061896 0.218140
O27   O     O_3   0.630800 0.073318 0.900467 -0.574952
C43   C     C_3   0.529781 0.005126 0.955382 -0.212460
H52   H     H_    0.398656 0.012281 0.943408 0.133930
H53   H     H_    0.560945 0.028558 0.029529 0.157278
H54   H     H_    0.551036 0.921993 0.941745 0.143126
O28   O     O_3   0.414018 0.511576 0.306054 -0.640580
C44   C     C_3   0.365966 0.598654 0.355481 0.227511
H55   H     H_    0.243366 0.600070 0.339547 0.116179
H56   H     H_    0.414875 0.676499 0.333092 -0.034471
H57   H     H_    0.380889 0.590367 0.429621 0.163641
O29   O     O_3   0.044311 0.016045 0.133815 -0.577805
C45   C     C_3   0.976341 0.969174 0.047800 -0.127839
H58   H     H_    0.911204 0.888833 0.055559 0.210043
H59   H     H_    0.067525 0.967272 0.992375 0.111544
H60   H     H_    0.883015 0.016181 0.024671 0.175026

loop_
_geom_bond_atom_site_label_1
_geom_bond_atom_site_label_2
_geom_bond_distance
_ccdc_geom_bond_type
P4    C26   1.884394 S    
Ba1   Ba2   4.599567 S    
C42   H49   1.106746 S    
C4    O15   1.396473 S    
C17   H33   1.080766 S    
P6    C20   1.865654 S    
C1    H43   1.108235 S    
P4    O12   1.523690 D    
C2    H4    1.117335 S    
C15   H27   1.112975 S    
C43   H54   1.113430 S    
C18   C19   1.418920 A    
O28   C44   1.399059 S    
H28   C16   1.114853 S    
P5    O18   1.544747 D    
C5    H8    1.107445 S    
C33   C34   1.387465 A    
P3    O11   1.748434 S    
O3    P6    1.773087 S    
C2    C3    1.541642 S    
O6    P6    1.755790 S    
O11   C2    1.401764 S    
C45   H59   1.111850 S    
C22   C23   1.431022 A    
C4    C5    1.518674 S    
C12   H20   1.111009 S    
C7    H14   1.109729 S    
C11   H18   1.110345 S    
O14   P8    1.738307 S    
P1    O1    1.523327 D    
C13   H48   1.109277 S    
C19   O28   1.371277 S    
P7    O22   1.746744 S    
C12   O25   1.413445 S    
C3    H21   1.110665 S    
C17   C23   1.410147 A    
C22   C30   1.416682 A    
O17   Ba2   2.829822 S    
C25   C29   1.405663 A    
C11   C12   1.523455 S    
C13   C14   1.508494 S    
P2    O10   1.752442 S    
C15   C16   1.526354 S    
C4    H6    1.106448 S    
C6    C7    1.515664 S    
O4    P6    1.545911 D    
C1    H2    1.112999 S    
C18   C23   1.442092 A    
C41   H47   1.105844 S    
O12   Ba2   2.855264 S    
C29   H31   1.081383 S    
O5    C6    1.399756 S    
C3    H5    1.110879 S    
P4    O13   1.573490 S    
Ba2   O21   2.890266 S    
O7    Ba1   2.890046 S    
C15   O24   1.411516 S    
C36   C37   1.431575 A    
C41   H46   1.110513 S    
P1    C18   1.924042 S    
C33   C37   1.409794 A    
P5    O17   1.750718 S    
C14   H23   1.108327 S    
Ba1   O16   2.848851 S    
C21   C22   1.411480 A    
P2    C35   1.859954 S    
C44   H56   1.094093 S    
C45   H60   1.106601 S    
C28   C29   1.397093 A    
O2    Ba2   2.813421 S    
C16   H29   1.113806 S    
C44   H55   1.041937 S    
O16   Ba2   2.934833 S    
C8    H40   1.110096 S    
C42   H51   1.106650 S    
C12   H19   1.117926 S    
C10   H17   1.104115 S    
C2    O26   1.410567 S    
C32   C35   1.383457 A    
P1    O5    1.750586 S    
P1    O2    1.573611 S    
C44   H57   1.085116 S    
O2    Ba1   2.940740 S    
C8    H15   1.105692 S    
C20   C21   1.396747 A    
C39   C40   1.403698 A    
C31   H37   1.082501 S    
P5    C39   1.842540 S    
C32   C34   1.378883 A    
C7    H12   1.105323 S    
C11   O22   1.396474 S    
C21   H30   1.083621 S    
O29   C45   1.412999 S    
P7    C38   1.842995 S    
C1    H3    1.104605 S    
C5    H10   1.105479 S    
O14   Ba2   2.815529 S    
P4    Ba2   3.419765 S    
P2    O7    1.521823 D    
C32   H38   1.068732 S    
C9    H41   1.110944 S    
P3    O8    1.768308 S    
O26   C42   1.402719 S    
Ba1   O13   2.812851 S    
C1    C10   1.515279 S    
C13   H22   1.106857 S    
O6    C10   1.409221 S    
C43   H52   1.116492 S    
C36   C40   1.413730 A    
C41   H45   1.113492 S    
O8    Ba1   2.829229 S    
Ba1   O20   2.935625 S    
C31   C38   1.389631 A    
C42   H50   1.109955 S    
P2    Ba1   3.436385 S    
C11   H44   1.111492 S    
C6    H11   1.108410 S    
C15   H26   1.110474 S    
C43   H53   1.106031 S    
H1    C10   1.111127 S    
O16   P7    1.769865 S    
P8    O23   1.542934 D    
O25   C41   1.407802 S    
P3    C34   1.823807 S    
C27   H32   1.082190 S    
O10   C8    1.398267 S    
C31   C39   1.389956 A    
C37   C38   1.418369 A    
P5    O19   1.743311 S    
C5    H9    1.109456 S    
O1    Ba1   2.854733 S    
C14   H25   1.107352 S    
C24   C26   1.445293 A    
O27   C43   1.412658 S    
C16   O27   1.417055 S    
C8    C9    1.523343 S    
C45   H58   1.107526 S    
P8    O24   1.749206 S    
O13   Ba2   2.941512 S    
C27   C28   1.393895 A    
C9    H42   1.110953 S    
C24   C30   1.411134 A    
P1    Ba1   3.419300 S    
C7    H13   1.104725 S    
C40   H36   1.073109 S    
Ba2   O20   2.848176 S    
C4    H7    1.110502 S    
P7    O21   1.573706 D    
O19   C13   1.405298 S    
P2    O20   1.598375 S    
C9    H16   1.107501 S    
P8    C28   1.839954 S    
C24   C25   1.426173 A    
C17   C25   1.419028 A    
C19   C20   1.394765 A    
P3    O9    1.535228 D    
C35   C36   1.431768 A    
P4    O15   1.748651 S    
C3    O29   1.414957 S    
C14   H24   1.110943 S    
C26   C27   1.398331 A    
C33   H35   1.078295 S    
C30   H34   1.079583 S    
C6    H39   1.101937 S    
O3    Ba1   2.816126 S    
