data_mof_unit_11433.cif
_audit_creation_date              2013-03-05T15:57:56-0500
_audit_creation_method            fapswitch 2.2
_symmetry_space_group_name_H-M    P1
_symmetry_Int_Tables_number       1
_space_group_crystal_system       triclinic
_cell_length_a                    14.989853
_cell_length_b                    14.981146
_cell_length_c                    17.251747
_cell_angle_alpha                 108.933423
_cell_angle_beta                  106.495692
_cell_angle_gamma                 108.797198
_cell_volume                      3125.5893912

loop_
_atom_site_label
_atom_site_type_symbol
_atom_site_description
_atom_site_fract_x
_atom_site_fract_y
_atom_site_fract_z
_atom_type_partial_charge
C1    C     C_R   0.093385 0.279822 0.022683 -0.119715
C2    C     C_R   0.917855 0.714628 0.922036 -0.107109
H1    H     H_    0.175478 0.300953 0.049868 0.110852
H2    H     H_    0.840641 0.689048 0.871728 0.089924
N1    N     N_R   0.055660 0.348550 0.045620 -0.048513
N2    N     N_R   0.944340 0.651450 0.954380 -0.048425
C3    C     C_R   0.935424 0.469457 0.735242 -0.201326
C4    C     C_R   0.065190 0.480543 0.251245 -0.219107
H3    H     H_    0.857060 0.431392 0.681667 0.133641
H4    H     H_    0.144128 0.504960 0.297899 0.146792
N3    N     N_R   0.960830 0.507850 0.823700 -0.059874
N4    N     N_R   0.039170 0.492150 0.176300 -0.063617
C5    C     C_R   0.720577 0.213785 0.821653 -0.092645
C6    C     C_R   0.224475 0.798012 0.187078 -0.125725
H5    H     H_    0.689520 0.159910 0.847184 0.134304
H6    H     H_    0.234732 0.861823 0.168999 0.101343
N5    N     N_R   0.811290 0.303410 0.871650 -0.043898
N6    N     N_R   0.188710 0.696590 0.128350 -0.045621
C7    C     C_R   0.302511 0.601188 0.010249 -0.106723
C8    C     C_R   0.739551 0.467487 0.048618 -0.068275
H7    H     H_    0.332053 0.668877 0.998644 0.169309
H8    H     H_    0.719000 0.431329 0.089885 0.167062
N7    N     N_R   0.205200 0.552990 0.997670 -0.054232
N8    N     N_R   0.794800 0.447010 0.002330 -0.037552
C9    C     C_R   0.728565 0.309436 0.746216 -0.128889
C10   C     C_R   0.218859 0.702608 0.263823 -0.074138
H9    H     H_    0.706756 0.345913 0.704395 0.095223
H10   H     H_    0.224710 0.677419 0.316101 0.116541
N9    N     N_R   0.814800 0.361830 0.823700 -0.043822
N10   N     N_R   0.185200 0.638170 0.176300 -0.051094
C11   C     C_R   0.297270 0.502130 0.081581 -0.083619
C12   C     C_R   0.754106 0.566889 0.975676 -0.100832
H11   H     H_    0.319472 0.470221 0.127440 0.112396
H12   H     H_    0.753753 0.625795 0.953026 0.129026
N11   N     N_R   0.201680 0.494570 0.045620 -0.054919
N12   N     N_R   0.798320 0.505430 0.954380 -0.053700
C13   C     C_R   0.110283 0.558447 0.813374 0.348118
C14   C     C_R   0.891938 0.395314 0.174471 0.308371
N13   N     N_R   0.068420 0.560530 0.871650 -0.089202
N14   N     N_R   0.931580 0.439470 0.128350 -0.090159
C15   C     C_R   0.918861 0.193506 0.947197 -0.074365
C16   C     C_R   0.089741 0.795845 0.000715 -0.130380
H13   H     H_    0.838641 0.133681 0.906474 0.127274
H14   H     H_    0.171624 0.838600 0.021264 0.137799
N15   N     N_R   0.948070 0.295860 0.997670 -0.041732
N16   N     N_R   0.051930 0.704140 0.002330 -0.046325
C17   C     C_R   0.009098 0.180825 0.958985 0.033421
C18   C     C_R   0.008530 0.806894 0.950353 0.067378
C19   C     C_R   0.028615 0.500133 0.727595 -0.094684
C20   C     C_R   0.974435 0.419715 0.251157 -0.078306
C21   C     C_R   0.666415 0.215697 0.742622 0.035234
C22   C     C_R   0.241888 0.803984 0.272680 0.078203
C23   C     C_R   0.362454 0.570527 0.061289 0.050086
C24   C     C_R   0.711952 0.541666 0.031239 0.020837
C25   C     C_R   0.927250 0.890234 0.868156 -0.203077
C26   C     C_R   0.110114 0.080908 0.965527 -0.202875
H15   H     H_    0.856883 0.815515 0.826545 0.118153
H16   H     H_    0.182556 0.153720 0.002422 0.150172
H17   H     H_    0.931567 0.074022 0.751465 0.127148
H18   H     H_    0.233461 0.087168 0.149632 0.132427
C27   C     C_R   0.018070 0.895489 0.926788 0.057953
C28   C     C_R   0.015192 0.080118 0.924267 0.048066
C29   C     C_R   0.113491 0.990306 0.967171 0.028061
C30   C     C_R   0.926067 0.981556 0.863394 0.048459
C31   C     C_R   0.852763 0.024535 0.738552 -0.145180
C32   C     C_R   0.271594 0.057837 0.110123 -0.177006
Ni1   Ni    Ni4+2 0.119340 0.493420 0.109960 0.211751
Ni2   Ni    Ni4+2 0.880660 0.506580 0.890040 0.206935
Ni3   Ni    Ni4+2 0.872590 0.372590 0.000000 0.295108
Ni4   Ni    Ni4+2 0.127410 0.627410 0.000000 0.249353
C33   C     C_R   0.666109 0.948596 0.649822 -0.055326
C34   C     C_R   0.423769 0.037245 0.104498 -0.027807
H19   H     H_    0.476829 0.575412 0.432847 0.186052
H20   H     H_    0.495287 0.512105 0.647008 0.181790
C35   C     C_R   0.492282 0.661569 0.354180 0.434351
C36   C     C_R   0.487708 0.445738 0.740705 0.422288
C37   C     C_R   0.510204 0.662450 0.278779 -0.311139
C38   C     C_R   0.513423 0.470507 0.832427 -0.279621
H21   H     H_    0.513413 0.727249 0.262706 0.189115
H22   H     H_    0.491869 0.407375 0.851558 0.196227
C39   C     C_R   0.522261 0.579491 0.222527 -0.111167
C40   C     C_R   0.562952 0.576375 0.899882 -0.129817
C41   C     C_R   0.516687 0.493773 0.242657 0.354105
C42   C     C_R   0.587675 0.659588 0.875249 0.371105
C43   C     C_R   0.502382 0.495440 0.320017 -0.267152
C44   C     C_R   0.563005 0.634127 0.783524 -0.260916
H23   H     H_    0.497624 0.430720 0.336525 0.183225
H24   H     H_    0.581071 0.696088 0.762891 0.165200
C45   C     C_R   0.489668 0.577806 0.374734 -0.274814
C46   C     C_R   0.514050 0.528696 0.717152 -0.248153
C47   C     C_R   0.624968 0.575869 0.131091 -0.162264
C48   C     C_R   0.496436 0.617112 0.011026 -0.168727
H25   H     H_    0.678085 0.564005 0.179581 0.130758
H26   H     H_    0.445672 0.629103 0.961006 0.162735
C49   C     C_R   0.637479 0.574190 0.053071 0.067962
C50   C     C_R   0.470751 0.598299 0.077804 0.016479
C51   C     C_R   0.572596 0.596462 0.992812 0.151152
C52   C     C_R   0.539056 0.584434 0.142871 0.142594
C53   C     C_R   0.768285 0.013295 0.668565 -0.117474
C54   C     C_R   0.373422 0.073988 0.154771 -0.085533
C55   C     C_R   0.970671 0.409734 0.329118 0.158008
C56   C     C_R   0.034790 0.501190 0.647685 0.172748
C57   C     C_R   0.069674 0.599600 0.565816 -0.223947
C58   C     C_R   0.937589 0.309139 0.410054 -0.212960
C59   C     C_R   0.075200 0.598435 0.646348 -0.087230
C60   C     C_R   0.931944 0.311585 0.329114 -0.064539
C61   C     C_R   0.989573 0.404780 0.570556 -0.249016
C62   C     C_R   0.014824 0.504640 0.407056 -0.261944
C63   C     C_R   0.983438 0.404958 0.489421 0.165449
C64   C     C_R   0.022959 0.503428 0.487491 0.180169
H27   H     H_    0.044356 0.579875 0.404920 0.132760
H28   H     H_    0.957684 0.330644 0.573803 0.136447
H29   H     H_    0.899187 0.238336 0.267561 0.153725
H30   H     H_    0.107533 0.672840 0.706752 0.143700
H31   H     H_    0.099851 0.674953 0.564335 0.135539
H32   H     H_    0.907468 0.233483 0.410958 0.143874
C65   C     C_R   0.558758 0.141277 0.673577 0.114491
C66   C     C_R   0.285365 0.900197 0.358088 0.133606
C67   C     C_R   0.396649 0.089272 0.443401 -0.135511
C68   C     C_R   0.408676 0.968611 0.600812 -0.158980
C69   C     C_R   0.326414 0.000354 0.361001 -0.185023
C70   C     C_R   0.500515 0.048839 0.676518 -0.165843
C71   C     C_R   0.301196 0.892648 0.439495 -0.187316
C72   C     C_R   0.517113 0.158093 0.598943 -0.133573
C73   C     C_R   0.375922 0.980142 0.521703 0.168614
C74   C     C_R   0.427666 0.077622 0.522464 0.194549
H33   H     H_    0.782038 0.054389 0.628569 0.129566
H34   H     H_    0.413469 0.115364 0.228310 0.125964
H35   H     H_    0.558075 0.229682 0.595688 0.113710
H36   H     H_    0.265255 0.817040 0.438911 0.121684
H37   H     H_    0.528868 0.034897 0.734263 0.135403
H38   H     H_    0.311750 0.009671 0.299773 0.115914
H39   H     H_    0.434106 0.164661 0.443787 0.145482
H40   H     H_    0.368648 0.894603 0.601575 0.143472
H41   H     H_    0.601016 0.939722 0.595280 0.179792
H42   H     H_    0.502676 0.050018 0.139159 0.146226
C75   C     C_R   0.648062 0.895943 0.701687 -0.095552
C76   C     C_R   0.372529 0.984613 0.009471 -0.005932
H43   H     H_    0.568719 0.846506 0.687498 0.151164
H44   H     H_    0.411900 0.956813 0.970674 0.162710
C77   C     C_R   0.732401 0.907102 0.771890 -0.159965
C78   C     C_R   0.270544 0.967972 0.964468 -0.106677
H45   H     H_    0.717477 0.866702 0.812008 0.157922
H46   H     H_    0.231648 0.927533 0.890824 0.134871
C79   C     C_R   0.835620 0.971356 0.790887 0.088946
C80   C     C_R   0.219090 0.003403 0.014662 0.067785
N17   N     N_R   0.475820 0.744709 0.409002 0.220673
O1    O     O_R   0.445250 0.736693 0.470989 -0.466689
O2    O     O_R   0.488416 0.827797 0.395787 -0.442850
N18   N     N_R   0.431617 0.336993 0.671549 0.229974
O3    O     O_R   0.406508 0.313996 0.586359 -0.436062
O4    O     O_R   0.400222 0.260215 0.692556 -0.403727
N19   N     N_R   0.519821 0.402648 0.183496 0.228412
O5    O     O_R   0.472537 0.364279 0.095600 -0.406553
O6    O     O_R   0.556754 0.348759 0.216665 -0.371853
N20   N     N_R   0.636836 0.769130 0.941889 0.230720
O7    O     O_R   0.702186 0.800929 0.024785 -0.407494
O8    O     O_R   0.621802 0.839219 0.918427 -0.399146
N21   N     N_R   0.214761 0.629661 0.836631 0.207868
O9    O     O_R   0.263308 0.600306 0.789569 -0.399158
O10   O     O_R   0.254619 0.728846 0.894722 -0.474799
N22   N     N_R   0.788412 0.310668 0.135332 0.222481
O11   O     O_R   0.736190 0.254991 0.047439 -0.418344
O12   O     O_R   0.745117 0.289442 0.186871 -0.369016

loop_
_geom_bond_atom_site_label_1
_geom_bond_atom_site_label_2
_geom_bond_distance
_ccdc_geom_bond_type
N6    Ni4   1.887599 S    
N5    Ni3   1.887600 S    
C30   C79   1.485109 S    
C15   H13   1.076996 S    
C61   H28   1.085638 S    
C6    N6    1.337964 A    
C7    N7    1.317570 A    
N17   O1    1.301594 A    
N1    Ni1   1.831241 S    
C70   H37   1.080971 S    
C17   C28   1.475372 S    
C58   C60   1.387952 A    
C33   C75   1.397849 A    
N12   Ni2   1.879488 S    
C3    N3    1.328121 A    
C75   H43   1.082739 S    
N8    N12   1.384884 A    
C57   C64   1.393247 A    
C1    N1    1.332066 A    
C12   N12   1.316801 A    
N20   O7    1.301278 A    
N17   O2    1.301618 A    
C65   C72   1.402285 A    
C42   C44   1.404060 A    
C77   H45   1.080691 S    
C33   H41   1.081173 S    
C58   C63   1.400737 A    
C44   H24   1.081123 S    
C34   H42   1.082329 S    
C39   C52   1.485859 S    
C48   H26   1.082468 S    
C48   C50   1.395524 A    
N5    N9    1.384882 A    
C56   C59   1.396738 A    
C16   N16   1.319648 A    
C32   C54   1.398233 A    
C27   C29   1.425311 A    
C78   C80   1.404034 A    
C28   C30   1.411978 A    
C5    C21   1.389460 A    
C6    C22   1.391878 A    
C8    N8    1.340882 A    
C26   H16   1.080626 S    
C50   C52   1.409684 A    
N2    Ni2   1.831240 S    
N8    Ni3   1.854626 S    
N21   O10   1.300280 A    
N6    N10   1.384882 A    
N11   Ni1   1.879486 S    
N19   O6    1.301402 A    
C29   C80   1.474584 S    
N10   Ni1   1.831698 S    
C77   C79   1.405510 A    
C26   C28   1.392803 A    
C7    C23   1.368499 A    
C55   C62   1.383847 A    
C34   C76   1.398228 A    
H18   C32   1.083120 S    
C58   H32   1.083698 S    
C23   C50   1.454217 S    
C61   C63   1.377382 A    
N7    Ni4   1.854626 S    
C2    N2    1.350505 A    
C16   H14   1.068351 S    
C12   C24   1.373342 A    
C39   C41   1.418926 A    
C68   C70   1.392662 A    
C48   C51   1.366029 A    
N22   O12   1.300398 A    
C37   H21   1.083397 S    
C9    N9    1.325856 A    
N4    Ni1   1.880111 S    
C32   C80   1.405504 A    
N14   Ni3   1.888432 S    
C43   H23   1.082795 S    
N15   Ni3   1.853944 S    
C59   H30   1.083763 S    
C31   C53   1.397181 A    
C8    C24   1.392142 A    
C76   C78   1.398833 A    
C19   C56   1.412448 S    
C43   C45   1.395644 A    
C68   C73   1.400239 A    
C1    C17   1.396356 A    
C53   H33   1.082706 S    
C60   H29   1.083233 S    
C35   N17   1.439748 S    
C33   C53   1.395902 A    
C1    H1    1.076722 S    
C66   C69   1.403943 A    
C12   H12   1.075681 S    
N4    N14   1.380802 A    
C16   C18   1.373589 A    
C2    H2    1.080554 S    
C65   C70   1.405032 A    
C9    C21   1.382555 A    
C57   H31   1.084359 S    
N18   O4    1.301663 A    
C10   C22   1.389472 A    
C47   H25   1.083876 S    
N9    Ni2   1.831697 S    
C13   C19   1.376529 A    
C38   C40   1.404882 A    
N21   O9    1.300851 A    
C37   C39   1.407386 A    
C4    N4    1.325623 A    
C25   C30   1.402330 A    
C11   H11   1.078703 S    
C15   C17   1.393389 A    
C26   C29   1.383520 A    
C56   C61   1.387732 A    
C57   C59   1.374290 A    
C67   H39   1.084065 S    
C11   C23   1.381688 A    
N3    N13   1.380800 A    
C35   C37   1.404186 A    
C3    C19   1.382131 A    
C24   C49   1.447655 S    
C67   C69   1.386053 A    
C76   H44   1.082386 S    
C41   N19   1.439416 S    
C41   C43   1.404308 A    
C8    H8    1.078168 S    
C10   N10   1.331899 A    
C40   C42   1.416868 A    
C5    H5    1.080353 S    
C71   H36   1.081473 S    
C44   C46   1.395204 A    
C73   C74   1.409335 A    
C40   C51   1.486258 S    
C6    H6    1.077394 S    
C69   H38   1.080340 S    
C31   C79   1.408013 A    
C4    C20   1.371182 A    
C38   H22   1.083509 S    
C78   H46   1.083204 S    
N3    Ni2   1.880108 S    
C72   C74   1.383262 A    
N22   O11   1.300820 A    
C34   C54   1.397989 A    
C55   C60   1.396013 A    
C3    H3    1.081207 S    
C75   C77   1.398541 A    
N2    N16   1.380802 A    
C7    H7    1.075750 S    
C54   H34   1.082355 S    
C36   C38   1.403774 A    
C49   C51   1.413508 A    
C14   C20   1.370718 A    
C9    H9    1.078447 S    
C10   H10   1.077379 S    
C62   H27   1.087376 S    
C5    N5    1.342234 A    
C2    C18   1.403819 A    
C13   N21   1.428475 S    
C25   H15   1.081003 S    
H19   C45   1.082534 S    
C13   N13   1.325147 A    
C63   C64   1.417094 A    
H17   C31   1.083354 S    
C14   N14   1.334372 A    
C42   N20   1.439818 S    
H20   C46   1.082460 S    
C18   C27   1.485992 S    
N1    N15   1.380800 A    
C25   C27   1.407107 A    
C11   N11   1.340094 A    
N20   O8    1.301395 A    
C21   C65   1.467378 S    
N13   Ni4   1.888433 S    
C62   C64   1.364704 A    
C72   H35   1.079192 S    
C68   H40   1.083828 S    
C66   C71   1.404484 A    
C47   C52   1.397994 A    
N7    N11   1.384881 A    
N16   Ni4   1.853945 S    
C71   C73   1.389064 A    
C35   C45   1.402464 A    
C47   C49   1.404239 A    
C67   C74   1.397750 A    
C14   N22   1.432932 S    
C36   N18   1.438987 S    
C20   C55   1.415149 S    
C4    H4    1.082084 S    
C15   N15   1.336242 A    
N18   O3    1.301551 A    
N19   O5    1.301386 A    
C36   C46   1.402921 A    
C22   C66   1.464389 S    
