data_mof_unit_66227.cif
_audit_creation_date              2012-12-10T18:09:16-0500
_audit_creation_method            fapswitch 2.2
_symmetry_space_group_name_H-M    P1
_symmetry_Int_Tables_number       1
_space_group_crystal_system       triclinic
_cell_length_a                    18.374956
_cell_length_b                    18.375256
_cell_length_c                    21.420237
_cell_angle_alpha                 90.000347
_cell_angle_beta                  90.000112
_cell_angle_gamma                 89.969603
_cell_volume                      7232.42463266

loop_
_atom_site_label
_atom_site_type_symbol
_atom_type_description
_atom_site_fract_x
_atom_site_fract_y
_atom_site_fract_z
_atom_type_partial_charge
C1    C     C_R   0.500000 0.139886 0.500000 0.842937
C2    C     C_R   0.500035 0.860114 0.500000 0.834406
C3    C     C_R   0.000001 0.639886 1.000000 0.846508
C4    C     C_R   0.000036 0.360114 0.000000 0.835687
C5    C     C_1   0.499991 0.282716 0.499999 -0.172132
C6    C     C_1   0.500084 0.717285 0.500000 -0.179033
C7    C     C_1   0.999993 0.782716 1.000000 -0.170388
C8    C     C_1   0.000091 0.217285 0.000000 -0.177468
C9    C     C_R   0.639859 0.999983 1.000000 0.827772
C10   C     C_R   0.139859 0.499982 0.500000 0.836350
C11   C     C_R   0.500429 0.999931 0.879477 0.841946
C12   C     C_R   0.500429 0.999932 0.120523 0.841953
C13   C     C_R   0.000832 0.499983 0.379495 0.851324
C14   C     C_R   0.000832 0.499983 0.620505 0.851354
C15   C     C_R   0.360036 0.000021 0.000000 0.874147
C16   C     C_R   0.860035 0.500016 0.500000 0.879659
C17   C     C_R   0.639735 0.500020 0.500000 0.837609
C18   C     C_R   0.139735 0.000049 0.000000 0.837553
C19   C     C_R   0.500009 0.360260 0.500000 0.840846
C20   C     C_R   0.500050 0.639741 0.500000 0.839494
C21   C     C_R   0.000010 0.860260 1.000000 0.840452
C22   C     C_R   0.000055 0.139741 0.000000 0.838755
C23   C     C_R   0.360262 0.499982 0.500000 0.838919
C24   C     C_R   0.860262 0.999987 1.000000 0.838271
C25   C     C_1   0.717407 0.999955 1.000000 -0.165879
C26   C     C_1   0.217407 0.499948 0.500000 -0.161999
C27   C     C_1   0.282707 0.499953 0.500000 -0.170951
C28   C     C_1   0.782707 0.999962 1.000000 -0.171588
C29   C     C_1   0.282527 0.000073 0.000000 -0.143933
C30   C     C_1   0.782526 0.500046 0.500000 -0.142096
C31   C     C_R   0.500021 0.000193 0.620475 0.824825
C32   C     C_R   0.500021 0.000193 0.379525 0.824828
C33   C     C_R   0.000035 0.500089 0.120494 0.827390
C34   C     C_R   0.000035 0.500089 0.879506 0.827398
C35   C     C_1   0.717250 0.500043 0.500000 -0.173077
C36   C     C_1   0.217251 0.000083 0.000000 -0.171595
C37   C     C_3   0.484949 0.067919 0.729270 -0.206035
C38   C     C_3   0.484933 0.067916 0.270730 -0.206026
C39   C     C_3   0.567124 0.980051 0.271290 -0.219451
C40   C     C_3   0.567119 0.980035 0.728710 -0.219449
C41   C     C_3   0.967102 0.561087 0.229360 -0.208922
C42   C     C_3   0.967047 0.561058 0.770641 -0.208936
C43   C     C_3   0.070278 0.499231 0.771305 -0.221285
C44   C     C_3   0.070279 0.499168 0.228695 -0.221271
C45   C     C_3   0.551361 0.047199 0.770504 -0.254700
C46   C     C_3   0.551350 0.047212 0.229497 -0.254703
C47   C     C_3   0.036709 0.559497 0.270437 -0.257396
C48   C     C_3   0.036655 0.559530 0.729564 -0.257407
C49   C     C_3   0.501064 0.999738 0.811074 -0.079361
C50   C     C_3   0.501064 0.999739 0.188926 -0.079362
C51   C     C_3   0.001553 0.500028 0.311115 -0.077699
C52   C     C_3   0.001552 0.500030 0.688885 -0.077687
C53   C     C_3   0.435863 0.019642 0.770230 0.463788
C54   C     C_3   0.435858 0.019628 0.229770 0.463788
C55   C     C_3   0.516025 0.933727 0.230531 0.458139
C56   C     C_3   0.516010 0.933723 0.769468 0.458139
C57   C     C_3   0.933309 0.501148 0.270413 0.465028
C58   C     C_3   0.933308 0.501090 0.729586 0.465033
C59   C     C_3   0.034049 0.440674 0.730417 0.456624
C60   C     C_3   0.033998 0.440642 0.269581 0.456616
C61   C     C_3   0.449198 0.952111 0.729080 -0.350445
C62   C     C_3   0.449209 0.952099 0.270919 -0.350452
C63   C     C_3   0.964592 0.439873 0.229243 -0.346537
C64   C     C_3   0.964644 0.439843 0.770756 -0.346524
C65   C     C_3   0.500087 0.000082 0.688773 -0.100676
C66   C     C_3   0.500087 0.000083 0.311227 -0.100676
C67   C     C_3   0.000224 0.499982 0.188831 -0.100332
C68   C     C_3   0.000223 0.499983 0.811170 -0.100336
C69   C     C_1   0.499984 0.217423 0.500000 -0.179999
C70   C     C_1   0.500084 0.782577 0.500000 -0.189622
C71   C     C_1   0.999986 0.717423 1.000000 -0.177935
C72   C     C_1   0.000089 0.282578 0.000000 -0.188620
Cu1   Cu    Cu3+1 0.427480 0.000000 0.500000 0.932084
Cu2   Cu    Cu3+1 0.927480 0.500000 0.000000 0.932847
Cu3   Cu    Cu3+1 0.572540 0.000000 0.500000 0.950850
Cu4   Cu    Cu3+1 0.072540 0.500000 0.000000 0.945633
Cu5   Cu    Cu3+1 0.499930 0.927480 0.000000 1.024450
Cu6   Cu    Cu3+1 0.499930 0.072520 0.000000 0.980170
Cu7   Cu    Cu3+1 0.999930 0.427480 0.500000 1.026698
Cu8   Cu    Cu3+1 0.999930 0.572520 0.500000 0.971270
Cu9   Cu    Cu3+1 0.500000 0.500000 0.562750 0.955064
Cu10  Cu    Cu3+1 0.500000 0.500000 0.437250 0.955068
Cu11  Cu    Cu3+1 0.000000 0.000000 0.062750 0.958980
Cu12  Cu    Cu3+1 1.000000 0.000000 0.937250 0.958988
H1    H     H_    0.592788 0.085648 0.788769 0.166291
H2    H     H_    0.592768 0.085670 0.211233 0.166296
H3    H     H_    0.066035 0.607897 0.288542 0.171258
H4    H     H_    0.065939 0.607955 0.711459 0.171275
H5    H     H_    0.471831 0.122997 0.711188 0.134650
H6    H     H_    0.471802 0.122991 0.288814 0.134655
H7    H     H_    0.621174 0.963426 0.289546 0.152582
H8    H     H_    0.621166 0.963398 0.710454 0.152579
H9    H     H_    0.939247 0.610405 0.211312 0.138193
H10   H     H_    0.939149 0.610350 0.788690 0.138208
H11   H     H_    0.126813 0.498165 0.789554 0.154259
H12   H     H_    0.126814 0.498053 0.210447 0.154257
H13   H     H_    0.407603 0.913657 0.711113 0.140401
H14   H     H_    0.407623 0.913636 0.288885 0.140394
H15   H     H_    0.935149 0.391468 0.211298 0.135197
H16   H     H_    0.935244 0.391413 0.788701 0.135183
O1    O     O_R   0.438760 0.105810 0.500000 -0.587529
O2    O     O_R   0.438760 0.894190 0.500000 -0.584169
O3    O     O_R   0.938760 0.605810 0.000000 -0.586450
O4    O     O_R   0.938760 0.394190 0.000000 -0.584433
O5    O     O_R   0.394180 0.500000 0.553000 -0.582652
O6    O     O_R   0.394180 0.500000 0.447000 -0.582654
O7    O     O_R   0.894180 0.000000 0.053000 -0.582930
O8    O     O_R   0.894180 0.000000 0.947000 -0.582931
O9    O     O_R   0.561260 0.105780 0.500000 -0.578525
O10   O     O_R   0.561260 0.894220 0.500000 -0.586450
O11   O     O_R   0.061260 0.605780 0.000000 -0.579037
O12   O     O_R   0.061260 0.394220 0.000000 -0.587350
O13   O     O_R   0.438760 0.000000 0.591570 -0.598203
O14   O     O_R   0.438760 0.000000 0.408430 -0.598203
O15   O     O_R   0.938760 0.500000 0.091570 -0.597756
O16   O     O_R   0.938760 0.500000 0.908430 -0.597755
O17   O     O_R   0.561260 0.000000 0.591560 -0.587182
O18   O     O_R   0.561260 0.000000 0.408440 -0.587186
O19   O     O_R   0.061260 0.500000 0.091560 -0.591195
O20   O     O_R   0.061260 0.500000 0.908440 -0.591207
O21   O     O_R   0.605760 0.938760 0.000000 -0.578081
O22   O     O_R   0.605760 0.061240 0.000000 -0.595344
O23   O     O_R   0.105760 0.438760 0.500000 -0.574256
O24   O     O_R   0.105760 0.561240 0.500000 -0.595576
O25   O     O_R   0.499930 0.938760 0.908410 -0.552333
O26   O     O_R   0.499930 0.938760 0.091590 -0.552332
O27   O     O_R   0.499930 0.061240 0.091590 -0.589168
O28   O     O_R   0.499930 0.061240 0.908410 -0.589161
O29   O     O_R   0.999930 0.438760 0.408410 -0.554037
O30   O     O_R   0.999930 0.438760 0.591590 -0.554037
O31   O     O_R   0.999930 0.561240 0.591590 -0.598631
O32   O     O_R   0.999930 0.561240 0.408410 -0.598600
O33   O     O_R   0.394110 0.938740 0.000000 -0.586910
O34   O     O_R   0.394110 0.061260 0.000000 -0.575588
O35   O     O_R   0.894110 0.438740 0.500000 -0.584237
O36   O     O_R   0.894110 0.561260 0.500000 -0.581785
O37   O     O_R   0.605830 0.500000 0.552990 -0.584693
O38   O     O_R   0.605830 0.500000 0.447010 -0.584693
O39   O     O_R   0.105830 0.000000 0.052990 -0.584823
O40   O     O_R   0.105830 0.000000 0.947010 -0.584819
O41   O     O_R   0.500010 0.394180 0.552980 -0.583463
O42   O     O_R   0.500010 0.394180 0.447020 -0.583461
O43   O     O_R   0.500010 0.605820 0.447020 -0.586226
O44   O     O_R   0.500010 0.605820 0.552980 -0.586229
O45   O     O_R   0.000010 0.894180 0.052980 -0.582985
O46   O     O_R   0.000010 0.894180 0.947020 -0.582983
O47   O     O_R   0.000010 0.105820 0.947020 -0.585149
O48   O     O_R   0.000010 0.105820 0.052980 -0.585153
O49   O     O_3   0.368989 0.040584 0.797153 -0.582431
C73   C     C_3   0.318134 0.055334 0.749522 0.084664
H17   H     H_    0.307270 0.005700 0.721230 0.147247
H18   H     H_    0.337674 0.099807 0.718464 0.141565
C74   C     C_3   0.246857 0.079669 0.779021 -0.776833
H19   H     H_    0.255654 0.129819 0.806968 0.248725
H20   H     H_    0.206194 0.091283 0.741976 0.196160
H21   H     H_    0.225359 0.036172 0.809947 0.256843
O50   O     O_3   0.368980 0.040556 0.202847 -0.582435
C75   C     C_3   0.318119 0.055287 0.250478 0.084664
H22   H     H_    0.337650 0.099754 0.281547 0.141566
H23   H     H_    0.307261 0.005643 0.278758 0.147248
C76   C     C_3   0.246841 0.079619 0.220980 -0.776833
H24   H     H_    0.225352 0.036128 0.190042 0.256846
H25   H     H_    0.206172 0.091214 0.258026 0.196158
H26   H     H_    0.255631 0.129779 0.193046 0.248730
O51   O     O_3   0.533026 0.864775 0.205449 -0.559080
C77   C     C_3   0.542850 0.814464 0.254471 0.078722
H27   H     H_    0.491779 0.807804 0.281821 0.141021
H28   H     H_    0.587603 0.831855 0.286166 0.135836
C78   C     C_3   0.563106 0.740815 0.227128 -0.766017
H29   H     H_    0.614477 0.745330 0.200078 0.248152
H30   H     H_    0.570925 0.700694 0.265325 0.198291
H31   H     H_    0.519073 0.721287 0.195812 0.249765
O52   O     O_3   0.532995 0.864766 0.794549 -0.559078
C79   C     C_3   0.542807 0.814454 0.745527 0.078714
H32   H     H_    0.587565 0.831834 0.713833 0.135837
H33   H     H_    0.491735 0.807806 0.718175 0.141021
C80   C     C_3   0.563044 0.740800 0.772869 -0.766004
H34   H     H_    0.519005 0.721283 0.804183 0.249763
H35   H     H_    0.570854 0.700677 0.734670 0.198293
H36   H     H_    0.614416 0.745301 0.799920 0.248151
O53   O     O_3   0.863472 0.502870 0.297709 -0.586095
C81   C     C_3   0.810167 0.503258 0.250403 0.077187
H37   H     H_    0.813310 0.452789 0.221780 0.147889
H38   H     H_    0.816328 0.551684 0.219619 0.142983
C82   C     C_3   0.735216 0.506548 0.280432 -0.762239
H39   H     H_    0.730003 0.556861 0.308837 0.250664
H40   H     H_    0.692595 0.506801 0.243678 0.193460
H41   H     H_    0.726927 0.458462 0.311043 0.254271
O54   O     O_3   0.863471 0.502750 0.702290 -0.586102
C83   C     C_3   0.810169 0.503092 0.749597 0.077163
H42   H     H_    0.816287 0.551525 0.780381 0.142985
H43   H     H_    0.813357 0.452627 0.778221 0.147890
C84   C     C_3   0.735217 0.506313 0.719566 -0.762214
H44   H     H_    0.726971 0.458220 0.688957 0.254263
H45   H     H_    0.692596 0.506530 0.756321 0.193460
H46   H     H_    0.729960 0.556620 0.691161 0.250674
O55   O     O_3   0.069417 0.379254 0.705023 -0.564350
C85   C     C_3   0.092588 0.333219 0.753837 0.083506
H47   H     H_    0.045260 0.312614 0.781020 0.141636
H48   H     H_    0.130772 0.362031 0.785728 0.137785
C86   C     C_3   0.132340 0.268107 0.726249 -0.774265
H49   H     H_    0.180577 0.286690 0.699384 0.250160
H50   H     H_    0.150753 0.231430 0.764316 0.196723
H51   H     H_    0.095451 0.237425 0.694728 0.250651
O56   O     O_3   0.069314 0.379189 0.294973 -0.564328
C87   C     C_3   0.092441 0.333131 0.246159 0.083517
H52   H     H_    0.130644 0.361909 0.214262 0.137775
H53   H     H_    0.045093 0.312564 0.218981 0.141634
C88   C     C_3   0.132145 0.267986 0.273743 -0.774276
H54   H     H_    0.095235 0.237336 0.305269 0.250653
H55   H     H_    0.150519 0.231290 0.235676 0.196731
H56   H     H_    0.180402 0.286528 0.300601 0.250151

loop_
_geom_bond_atom_site_label_1
_geom_bond_atom_site_label_2
_ccdc_geom_bond_type
C75   H23   S    
O51   C77   S    
Cu8   O32   S    
C86   H50   S    
C78   H29   S    
C20   O44   A    
C45   H1    S    
Cu3   O17   S    
Cu10  O42   S    
Cu6   O28   S    
C42   C58   S    
C57   O53   S    
Cu9   Cu10  S    
C46   H2    S    
C9    C25   S    
C41   C67   S    
C12   O27   A    
Cu5   Cu6   S    
C25   C28   T    
Cu9   O37   S    
C84   H44   S    
C29   C36   T    
C59   C64   S    
C50   C54   S    
Cu2   Cu4   S    
C30   C35   T    
C60   C63   S    
C11   C49   S    
C64   C68   S    
Cu2   O4    S    
C11   O25   A    
C59   O55   S    
C10   O24   A    
C7    C71   T    
C87   H53   S    
C60   O56   S    
C82   H40   S    
C12   O26   A    
C2    O2    A    
C34   O16   A    
C23   O5    A    
C55   C62   S    
C88   H56   S    
Cu1   O13   S    
C6    C70   T    
C86   H49   S    
C79   H32   S    
C31   O17   A    
C63   H15   S    
C75   C76   S    
C1    O9    A    
C62   H14   S    
C53   C61   S    
Cu9   O44   S    
C39   C55   S    
C38   C66   S    
C3    O11   A    
C43   C68   S    
C80   H35   S    
C73   C74   S    
C37   C65   S    
C43   H11   S    
C48   H4    S    
C15   C29   S    
C17   O38   A    
C51   C57   S    
C23   C27   S    
C74   H20   S    
C43   C48   S    
C83   C84   S    
C44   C47   S    
C43   C59   S    
C37   C53   S    
C10   C26   S    
Cu1   O1    S    
C4    O12   A    
C19   O41   A    
Cu8   O31   S    
Cu11  O45   S    
C53   O49   S    
C86   H51   S    
Cu1   Cu3   S    
C20   O43   A    
C9    O22   A    
O54   C83   S    
Cu3   O18   S    
Cu5   O33   S    
C58   O54   S    
Cu6   O27   S    
C39   H7    S    
C76   H25   S    
C46   C50   S    
C57   C63   S    
Cu9   O5    S    
C14   O31   A    
C34   O20   A    
C40   C45   S    
C63   C67   S    
Cu3   O9    S    
Cu4   O19   S    
C8    C72   T    
C62   C66   S    
C16   C30   S    
C77   H28   S    
Cu5   O21   S    
C13   C51   S    
C10   O23   A    
C34   C68   S    
C15   O34   A    
C87   H52   S    
C82   H41   S    
C47   C51   S    
C54   C62   S    
C58   C64   S    
C84   H45   S    
O53   C81   S    
Cu7   O30   S    
Cu7   O23   S    
C8    C22   S    
C1    C69   S    
Cu1   O14   S    
Cu7   Cu8   S    
O50   C75   S    
C81   C82   S    
C47   H3    S    
C75   H22   S    
C42   C48   S    
C3    C71   S    
C83   H42   S    
C44   H12   S    
C52   C59   S    
C9    O21   A    
Cu11  Cu12  S    
C38   C54   S    
C45   C49   S    
Cu4   O12   S    
C80   H36   S    
Cu2   O16   S    
Cu9   O41   S    
C85   C86   S    
C88   H54   S    
C41   C47   S    
C40   C56   S    
Cu4   O20   S    
C40   H8    S    
C74   H21   S    
C18   O40   A    
Cu6   O34   S    
C79   C80   S    
C85   H47   S    
C52   C58   S    
C39   C46   S    
C24   O8    A    
Cu1   O2    S    
C22   O48   A    
C33   O19   A    
C19   O42   A    
C40   C65   S    
C26   C27   T    
Cu11  O39   S    
C39   C66   S    
C73   H18   S    
C51   C60   S    
C55   O51   S    
C79   H33   S    
C37   C45   S    
C16   O36   A    
C1    O1    A    
C4    C72   S    
C76   H26   S    
Cu5   O25   S    
C33   C67   S    
C32   C66   S    
C14   O30   A    
Cu12  O47   S    
C3    O3    A    
C31   C65   S    
O56   C87   S    
C2    O10   A    
Cu3   O10   S    
C83   H43   S    
C42   H10   S    
C5    C69   T    
C61   H13   S    
C24   C28   S    
C32   O18   A    
Cu10  O43   S    
C12   C50   S    
C5    C19   S    
Cu12  O46   S    
C49   C56   S    
Cu7   O35   S    
C15   O33   A    
C38   H6    S    
C50   C55   S    
Cu8   O36   S    
C37   H5    S    
C56   O52   S    
C41   H9    S    
C21   O46   A    
C85   H48   S    
C24   O7    A    
C64   H16   S    
C41   C57   S    
Cu10  O38   S    
C7    C21   S    
O49   C73   S    
C84   H46   S    
C23   O6    A    
C87   C88   S    
C82   H39   S    
C77   H27   S    
C33   O15   A    
C76   H24   S    
C6    C20   S    
C44   C60   S    
Cu4   O11   S    
C49   C53   S    
Cu2   O15   S    
C4    O4    A    
C14   C52   S    
Cu12  O8    S    
C13   O32   A    
Cu11  O7    S    
C11   O28   A    
O55   C85   S    
Cu10  O6    S    
C42   C68   S    
C18   O39   A    
Cu6   O22   S    
C81   H38   S    
C38   C46   S    
Cu8   O24   S    
O52   C79   S    
Cu11  O48   S    
C61   C65   S    
C48   C52   S    
C22   O47   A    
Cu12  O40   S    
C77   C78   S    
C80   H34   S    
C88   H55   S    
C56   C61   S    
Cu2   O3    S    
C44   C67   S    
C17   O37   A    
C78   H31   S    
C17   C35   S    
C32   O14   A    
C74   H19   S    
C2    C70   S    
C16   O35   A    
C18   C36   S    
C31   O13   A    
C13   O29   A    
Cu5   O26   S    
C81   H37   S    
C21   O45   A    
C73   H17   S    
C54   O50   S    
C78   H30   S    
Cu7   O29   S    
