data_mof_unit_58306.cif
_audit_creation_date              2012-12-10T21:11:28-0500
_audit_creation_method            fapswitch 2.2
_symmetry_space_group_name_H-M    P1
_symmetry_Int_Tables_number       1
_space_group_crystal_system       triclinic
_cell_length_a                    17.523963
_cell_length_b                    16.662983
_cell_length_c                    10.660472
_cell_angle_alpha                 88.738768
_cell_angle_beta                  89.471975
_cell_angle_gamma                 91.516994
_cell_volume                      3110.87936969

loop_
_atom_site_label
_atom_site_type_symbol
_atom_type_description
_atom_site_fract_x
_atom_site_fract_y
_atom_site_fract_z
_atom_type_partial_charge
C1    C     C_R   0.352658 0.498941 0.498592 0.964510
C2    C     C_R   0.647407 0.501043 0.507551 0.933027
C3    C     C_R   0.886559 0.511837 0.580482 -0.039122
C4    C     C_R   0.110091 0.495299 0.493875 -0.049784
C5    C     C_1   0.966095 0.506940 0.555083 0.206320
C6    C     C_1   0.031681 0.501784 0.526917 0.194693
C7    C     C_R   0.469211 0.832734 0.398306 -0.274246
C8    C     C_R   0.545444 0.167556 0.583537 -0.283250
C9    C     C_R   0.529832 0.832311 0.600178 -0.286030
C10   C     C_R   0.455419 0.167798 0.413983 -0.269415
C11   C     C_R   0.469578 0.748273 0.401052 0.035209
C12   C     C_R   0.544426 0.251937 0.582708 -0.014401
C13   C     C_R   0.529185 0.747952 0.599103 0.011985
C14   C     C_R   0.455984 0.252171 0.416310 0.036124
C15   C     C_R   0.499817 0.875700 0.498682 0.170339
C16   C     C_R   0.500458 0.124535 0.498477 0.161932
C17   C     C_1   0.500043 0.963512 0.498128 -0.047434
C18   C     C_1   0.500286 0.036739 0.498145 -0.047894
C19   C     C_R   0.516129 0.501589 0.262516 0.874519
C20   C     C_R   0.494037 0.498570 0.742293 0.864986
C21   C     C_R   0.535254 0.653532 0.109623 -0.155686
C22   C     C_R   0.507926 0.345682 0.897362 -0.147591
C23   C     C_R   0.453533 0.638865 0.889676 -0.139014
C24   C     C_R   0.577216 0.365831 0.126926 -0.127085
C25   C     C_R   0.506493 0.721704 0.051022 -0.171788
C26   C     C_R   0.537586 0.279821 0.961129 -0.167576
C27   C     C_R   0.462823 0.713852 0.943749 -0.166754
C28   C     C_R   0.574077 0.290237 0.074471 -0.149273
C29   C     C_R   0.488985 0.570210 0.941603 0.094200
C30   C     C_R   0.543027 0.432175 0.067119 0.090224
C31   C     C_R   0.520993 0.576349 0.060478 0.084420
C32   C     C_R   0.514586 0.424683 0.945455 0.095986
C33   C     C_R   0.492662 0.495916 0.879217 -0.266718
C34   C     C_R   0.534707 0.505054 0.128819 -0.257663
C35   C     C_R   0.849127 0.582666 0.547949 -0.145757
C36   C     C_R   0.147854 0.424514 0.527345 -0.136034
C37   C     C_R   0.150933 0.563170 0.444840 -0.141093
C38   C     C_R   0.844928 0.440772 0.611003 -0.150463
C39   C     C_R   0.769396 0.579900 0.538420 0.343173
C40   C     C_R   0.227434 0.428908 0.541153 0.313842
C41   C     C_R   0.230777 0.560259 0.433998 0.341649
C42   C     C_R   0.768521 0.433900 0.571539 0.336618
C43   C     C_R   0.730055 0.504385 0.535032 -0.251030
C44   C     C_R   0.269087 0.496300 0.492191 -0.246395
H1    H     H_    0.597858 0.239293 0.123459 0.142208
H2    H     H_    0.437077 0.766000 0.901192 0.140569
H3    H     H_    0.532022 0.220467 0.922305 0.136787
H4    H     H_    0.516335 0.780227 0.090850 0.138225
H5    H     H_    0.569311 0.661663 0.192777 0.165071
H6    H     H_    0.476614 0.331145 0.814475 0.163184
H7    H     H_    0.416902 0.635049 0.808821 0.156791
H8    H     H_    0.605971 0.372512 0.215219 0.138969
H9    H     H_    0.445060 0.864124 0.318616 0.137710
H10   H     H_    0.581054 0.136247 0.650026 0.142188
H11   H     H_    0.553503 0.863306 0.679781 0.137285
H12   H     H_    0.420044 0.136658 0.346856 0.143391
H13   H     H_    0.445122 0.715542 0.324048 0.144338
H14   H     H_    0.579442 0.284862 0.648061 0.170916
H15   H     H_    0.551873 0.715193 0.678094 0.141647
H16   H     H_    0.421163 0.285279 0.350992 0.140964
N1    N     N_R   0.500000 0.707230 0.500000 -0.086189
N2    N     N_R   0.500000 0.292770 0.500000 -0.100893
O1    O     O_R   0.389110 0.566570 0.499990 -0.578098
O2    O     O_R   0.610890 0.433430 0.500010 -0.595556
O3    O     O_R   0.610890 0.566570 0.500010 -0.577314
O4    O     O_R   0.389110 0.433430 0.499990 -0.579670
O5    O     O_R   0.499990 0.566540 0.316770 -0.638985
O6    O     O_R   0.500010 0.433460 0.683230 -0.630777
O7    O     O_R   0.500010 0.566540 0.683230 -0.643560
O8    O     O_R   0.499990 0.433460 0.316770 -0.629230
Zn1   Zn    Zn3+2 0.500000 0.588860 0.500000 0.958394
Zn2   Zn    Zn3+2 0.500000 0.411140 0.500000 0.948466
C45   C     C_2   0.891456 0.659953 0.522275 0.472368
H17   H     H_    0.866564 0.705544 0.462248 0.093868
O9    O     O_2   0.952467 0.674972 0.572148 -0.561841
C46   C     C_2   0.106668 0.345469 0.546009 0.456428
H18   H     H_    0.137465 0.292735 0.574854 0.089712
O10   O     O_2   0.039007 0.336676 0.522232 -0.571910
C47   C     C_2   0.112383 0.637806 0.404384 0.454735
H19   H     H_    0.143093 0.695175 0.406614 0.097972
O11   O     O_2   0.047840 0.635625 0.362315 -0.566515
C48   C     C_2   0.879262 0.374612 0.686444 0.477150
H20   H     H_    0.847738 0.318570 0.704053 0.077774
O12   O     O_2   0.941580 0.383163 0.735404 -0.556829
O13   O     O_3   0.729235 0.650562 0.530508 -0.629959
C49   C     C_3   0.730172 0.690564 0.647155 0.094593
H21   H     H_    0.695598 0.745050 0.635416 0.165412
H22   H     H_    0.788465 0.712592 0.670952 0.135428
C50   C     C_3   0.696410 0.639405 0.757674 -0.389744
H23   H     H_    0.639869 0.613661 0.732404 0.249712
H24   H     H_    0.734599 0.589017 0.780319 0.217790
C51   C     C_3   0.687804 0.689282 0.874932 -0.922550
H25   H     H_    0.743604 0.717198 0.900565 0.268679
H26   H     H_    0.667543 0.649798 0.954167 0.276930
H27   H     H_    0.645729 0.737058 0.859038 0.259639
O14   O     O_3   0.265281 0.368037 0.603437 -0.631189
C52   C     C_3   0.246815 0.368338 0.733394 0.070482
H28   H     H_    0.200895 0.322661 0.754027 0.153833
H29   H     H_    0.227293 0.427702 0.766534 0.127496
C53   C     C_3   0.317107 0.346562 0.808621 -0.313864
H30   H     H_    0.343645 0.292956 0.768101 0.236488
H31   H     H_    0.358578 0.397956 0.802319 0.207683
C54   C     C_3   0.297241 0.328563 0.946315 -0.965912
H32   H     H_    0.267083 0.379493 0.987727 0.272876
H33   H     H_    0.350322 0.318537 0.999833 0.273481
H34   H     H_    0.260133 0.273618 0.955031 0.271529
O15   O     O_3   0.272380 0.621810 0.372832 -0.636613
C55   C     C_3   0.260851 0.618577 0.241375 0.058692
H35   H     H_    0.272338 0.679802 0.201042 0.162376
H36   H     H_    0.201076 0.602132 0.215688 0.146991
C56   C     C_3   0.315836 0.560989 0.179843 -0.323782
H37   H     H_    0.375026 0.584954 0.189418 0.245299
H38   H     H_    0.311341 0.500860 0.226776 0.211616
C57   C     C_3   0.297977 0.551775 0.041016 -0.968195
H39   H     H_    0.239343 0.526214 0.029531 0.266246
H40   H     H_    0.338929 0.510482 0.998282 0.271948
H41   H     H_    0.302565 0.610915 0.991111 0.269994
O16   O     O_3   0.728626 0.360820 0.582264 -0.638951
C58   C     C_3   0.758252 0.304769 0.497212 0.074473
H42   H     H_    0.746145 0.243572 0.537220 0.157710
H43   H     H_    0.821275 0.310128 0.483566 0.136248
C59   C     C_3   0.719626 0.311486 0.369656 -0.336076
H44   H     H_    0.657655 0.297364 0.381395 0.235785
H45   H     H_    0.727434 0.373733 0.331268 0.210641
C60   C     C_3   0.753691 0.253464 0.276918 -0.954110
H46   H     H_    0.816276 0.264513 0.267104 0.279506
H47   H     H_    0.727795 0.262494 0.183351 0.263734
H48   H     H_    0.742335 0.190416 0.309257 0.265632

loop_
_geom_bond_atom_site_label_1
_geom_bond_atom_site_label_2
_ccdc_geom_bond_type
C24   H8    S    
C4    C36   A    
C45   H17   S    
C56   H37   S    
C2    O3    A    
C21   H5    S    
C52   H28   S    
O13   C49   S    
C7    C11   A    
C37   C47   S    
C22   C32   A    
C23   C29   A    
C46   O10   D    
C38   C42   A    
C5    C6    T    
C49   H22   S    
C14   N2    A    
C29   C33   A    
C12   N2    A    
C55   H35   S    
O7    Zn1   S    
C9    C13   A    
O16   C58   S    
C51   H25   S    
C36   C46   S    
C54   H33   S    
O4    Zn2   S    
C3    C38   A    
C60   H48   S    
O15   C55   S    
C19   O5    A    
C9    H11   S    
C23   C27   A    
C50   H24   S    
C10   H12   S    
O6    Zn2   S    
C22   H6    S    
C12   H14   S    
N1    Zn1   S    
C7    C15   A    
C8    C16   A    
C38   C48   S    
C45   O9    D    
C56   C57   S    
C40   O14   S    
C1    O1    A    
C53   H31   S    
C52   H29   S    
C2    O2    A    
C1    O4    A    
C59   H44   S    
C58   H43   S    
C28   H1    S    
C30   C34   A    
C36   C40   A    
C46   H18   S    
C4    C6    S    
C10   C14   A    
C8    H10   S    
C47   O11   D    
C49   H21   S    
C42   O16   S    
C39   C43   A    
C3    C5    S    
O3    Zn1   S    
C19   C34   S    
C53   C54   S    
C35   C39   A    
C21   C31   A    
C1    C44   S    
C23   H7    S    
C3    C35   A    
C2    C43   S    
C8    C12   A    
O14   C52   S    
C51   H26   S    
C17   C18   T    
C31   C34   A    
N2    Zn2   S    
C56   H38   S    
C50   C51   S    
C25   H4    S    
C26   H3    S    
C20   C33   S    
C27   H2    S    
O1    Zn1   S    
C48   O12   D    
C60   H46   S    
C41   C44   A    
C20   O7    A    
C42   C43   A    
C7    H9    S    
C59   H45   S    
C52   C53   S    
C58   C59   S    
C15   C17   S    
C21   C25   A    
C35   C45   S    
C41   O15   S    
C20   O6    A    
C24   C28   A    
C11   N1    A    
C49   C50   S    
C57   H40   S    
C58   H42   S    
C57   H39   S    
C13   H15   S    
C25   C27   A    
C14   H16   S    
C26   C28   A    
C55   C56   S    
C32   C33   A    
C59   C60   S    
C9    C15   A    
C29   C31   A    
C10   C16   A    
C30   C32   A    
C53   H30   S    
C55   H36   S    
C54   H34   S    
O5    Zn1   S    
C51   H27   S    
C37   C41   A    
C24   C30   A    
C57   H41   S    
C47   H19   S    
C40   C44   A    
C13   N1    A    
C4    C37   A    
C16   C18   S    
C48   H20   S    
C22   C26   A    
C54   H32   S    
C60   H47   S    
C39   O13   S    
C19   O8    A    
O8    Zn2   S    
C50   H23   S    
C11   H13   S    
O2    Zn2   S    
