data_mof_unit_14709.cif
_audit_creation_date              2012-12-10T16:48:04-0500
_audit_creation_method            fapswitch 2.2
_symmetry_space_group_name_H-M    P1
_symmetry_Int_Tables_number       1
_space_group_crystal_system       triclinic
_cell_length_a                    15.836493
_cell_length_b                    8.677257
_cell_length_c                    7.486788
_cell_angle_alpha                 103.380811
_cell_angle_beta                  94.632881
_cell_angle_gamma                 92.783827
_cell_volume                      995.212562206

loop_
_atom_site_label
_atom_site_type_symbol
_atom_type_description
_atom_site_fract_x
_atom_site_fract_y
_atom_site_fract_z
_atom_type_partial_charge
C1    C     C_R   0.497406 0.199636 0.452923 0.858664
C2    C     C_3   0.978771 0.645018 0.590919 -0.247588
C3    C     C_1   0.250521 0.499553 0.504999 -0.151452
C4    C     C_1   0.749479 0.500447 0.495001 -0.151453
C5    C     C_3   0.034331 0.532891 0.677974 -0.207293
C6    C     C_3   0.965669 0.467109 0.322026 -0.207290
C7    C     C_3   0.083325 0.498875 0.504217 0.085370
C8    C     C_3   0.916675 0.501125 0.495783 0.085370
C9    C     C_1   0.174993 0.499332 0.505720 -0.043666
C10   C     C_1   0.825007 0.500668 0.494280 -0.043669
C11   C     C_3   0.999578 0.188302 0.750658 -0.713490
C12   C     C_R   0.502593 0.800364 0.547077 0.858664
C13   C     C_3   0.000421 0.811690 0.249327 -0.713462
C14   C     C_R   0.340028 0.499572 0.501565 0.805907
C15   C     C_R   0.659972 0.500428 0.498435 0.805907
C16   C     C_2   0.496252 0.031324 0.426866 -0.353324
C17   C     C_2   0.503748 0.968676 0.573133 -0.353324
C18   C     C_3   0.971565 0.391651 0.580739 0.331411
C19   C     C_3   0.028435 0.608349 0.419261 0.331410
C20   C     C_3   0.021229 0.354982 0.409081 -0.247582
Cu1   Cu    Cu3+1 0.509330 0.517380 0.684380 1.039635
Cu2   Cu    Cu3+1 0.490670 0.482620 0.315620 1.039635
H1    H     H_    0.039335 0.235770 0.338234 0.145187
H2    H     H_    0.036260 0.118340 0.643428 0.224167
H3    H     H_    0.110549 0.801374 0.415571 0.248934
H4    H     H_    0.032902 0.894284 0.179488 0.224363
H5    H     H_    0.963731 0.881646 0.356549 0.224163
H6    H     H_    0.956480 0.727301 0.144451 0.242280
H7    H     H_    0.389805 0.297834 0.005285 0.328953
H8    H     H_    0.610195 0.702166 0.994715 0.328953
H9    H     H_    0.960665 0.764231 0.661765 0.145187
H10   H     H_    0.937048 0.442504 0.177068 0.161539
H11   H     H_    0.062951 0.557495 0.822932 0.161539
H12   H     H_    0.489262 0.958721 0.286394 0.193712
H13   H     H_    0.510738 0.041279 0.713606 0.193712
H14   H     H_    0.889448 0.198632 0.584438 0.248940
H15   H     H_    0.967100 0.105714 0.820506 0.224367
H16   H     H_    0.043526 0.272686 0.855520 0.242289
N1    N     N_2   0.476600 0.456420 0.038510 0.141989
N2    N     N_2   0.523400 0.543580 0.961490 0.141989
N3    N     N_2   0.937083 0.272919 0.667561 -0.426176
N4    N     N_2   0.062917 0.727081 0.332440 -0.426171
O1    O     O_R   0.506070 0.286130 0.619780 -0.536815
O2    O     O_3   0.580533 0.646593 0.075650 -0.610474
O3    O     O_R   0.493930 0.713870 0.380220 -0.536815
O4    O     O_R   0.490300 0.256770 0.308360 -0.608913
O5    O     O_R   0.509700 0.743230 0.691640 -0.608914
O6    O     O_R   0.386960 0.514660 0.655680 -0.534559
O7    O     O_R   0.613040 0.485340 0.344320 -0.534559
O8    O     O_R   0.371190 0.485310 0.344260 -0.598385
O9    O     O_R   0.628810 0.514690 0.655740 -0.598385
O10   O     O_3   0.419467 0.353407 0.924349 -0.610474

loop_
_geom_bond_atom_site_label_1
_geom_bond_atom_site_label_2
_ccdc_geom_bond_type
C12   C17   S    
H3    N4    S    
C11   H16   S    
C6    H10   S    
C20   H1    S    
C13   H6    S    
C3    C9    T    
C15   O9    A    
C6    C20   S    
C2    H9    S    
C18   C20   S    
C19   N4    S    
Cu1   O9    S    
Cu2   O8    S    
Cu1   O6    S    
C4    C15   S    
N1    O10   S    
C5    C7    S    
C1    C16   S    
Cu1   Cu2   S    
C6    C19   S    
C3    C14   S    
H8    O2    S    
H14   N3    S    
C14   O8    A    
Cu1   N2    S    
C12   O5    A    
Cu2   N1    S    
C8    C10   S    
C13   N4    S    
Cu2   O4    S    
C11   N3    S    
C7    C19   S    
C15   O7    A    
C1    O4    A    
C2    C8    S    
C13   H4    S    
C2    C5    S    
C4    C10   T    
C12   O3    A    
C11   H2    S    
N2    O2    S    
Cu2   O3    S    
C7    C9    S    
C7    C20   S    
C18   N3    S    
Cu2   O7    S    
N1    N2    D    
C11   H15   S    
C14   O6    A    
C13   H5    S    
C6    C8    S    
C5    C18   S    
C17   H13   S    
C16   H12   S    
C2    C19   S    
Cu1   O1    S    
C1    O1    A    
C8    C18   S    
C16   C17   D    
Cu1   O5    S    
H7    O10   S    
C5    H11   S    
