data_mof_unit_41413.cif
_audit_creation_date              2012-10-26T18:52:14-0400
_audit_creation_method            fapswitch 2.2
_symmetry_space_group_name_H-M    P1
_symmetry_Int_Tables_number       1
_space_group_crystal_system       triclinic
_cell_length_a                    13.874343
_cell_length_b                    14.82402
_cell_length_c                    14.85585
_cell_angle_alpha                 116.102318
_cell_angle_beta                  108.20121
_cell_angle_gamma                 72.537751
_cell_volume                      2558.72784499

loop_
_atom_site_label
_atom_site_type_symbol
_atom_type_description
_atom_site_fract_x
_atom_site_fract_y
_atom_site_fract_z
_atom_type_partial_charge
C1    C     C_R   0.517721 0.118880 0.688228 0.557330
C2    C     C_R   0.440649 0.512878 0.873471 0.007862
C3    C     C_R   0.606226 0.388890 0.102183 0.031057
C4    C     C_R   0.433556 0.617859 0.895394 0.045696
C5    C     C_R   0.296787 0.316027 0.360583 0.013732
C6    C     C_R   0.662581 0.717762 0.689675 0.030180
C7    C     C_R   0.340736 0.221815 0.371919 0.162534
C8    C     C_R   0.642577 0.792284 0.647900 0.169004
C9    C     C_R   0.489755 0.287217 0.488794 0.178755
C10   C     C_R   0.510653 0.712163 0.512648 0.112845
C11   C     C_R   0.446207 0.386509 0.484198 -0.000681
C12   C     C_R   0.486628 0.881255 0.311915 0.567408
C13   C     C_R   0.522942 0.639047 0.556383 -0.012342
C14   C     C_R   0.349651 0.398321 0.416579 -0.001736
C15   C     C_R   0.602264 0.641311 0.644028 0.021963
C16   C     C_R   0.686747 0.986782 0.504370 0.557259
C17   C     C_R   0.313210 0.012916 0.495189 0.553219
C18   C     C_R   0.495674 0.474246 0.541938 0.073418
C19   C     C_R   0.461830 0.560656 0.513531 0.063851
C20   C     C_R   0.362853 0.570970 0.451786 -0.077221
C21   C     C_R   0.569048 0.484425 0.633956 -0.064483
C22   C     C_R   0.308082 0.492240 0.404600 -0.060594
C23   C     C_R   0.527294 0.362010 0.923643 0.017931
C24   C     C_R   0.619550 0.566863 0.684865 -0.042114
C25   C     C_1   0.207200 0.017264 0.487078 0.065804
C26   C     C_1   0.792086 0.977994 0.505925 0.070839
C27   C     C_2   0.011482 0.017682 0.467628 0.016208
C28   C     C_2   0.986848 0.961035 0.505823 0.023038
C29   C     C_1   0.880748 0.970167 0.506291 0.038951
C30   C     C_1   0.118047 0.018463 0.478590 0.040090
C31   C     C_R   0.529604 0.187723 0.796983 -0.009724
C32   C     C_R   0.487543 0.814421 0.203475 0.003945
C33   C     C_R   0.555251 0.220593 0.977618 0.029002
C34   C     C_R   0.513005 0.641629 0.073298 0.013767
C35   C     C_R   0.469235 0.789331 0.026089 0.032383
C36   C     C_R   0.540550 0.153439 0.874059 -0.053630
C37   C     C_R   0.472224 0.854296 0.129350 -0.108001
C38   C     C_R   0.524586 0.291183 0.822854 -0.083008
C39   C     C_R   0.511926 0.708903 0.175201 -0.072815
C40   C     C_2   0.065144 0.890462 0.552384 0.592660
C41   C     C_2   0.932859 0.083546 0.415713 0.601321
C42   C     C_2   0.194581 0.327749 0.290347 0.586253
C43   C     C_2   0.749340 0.718458 0.779308 0.588469
C44   C     C_2   0.670471 0.345883 0.179934 0.595572
C45   C     C_R   0.560424 0.324372 0.003384 -0.029507
C46   C     C_2   0.362268 0.663698 0.821731 0.637889
C47   C     C_2   0.553682 0.183041 0.054742 0.280081
C48   C     C_2   0.469740 0.835675 0.955853 0.297701
C49   C     C_2   0.687787 0.545365 0.202294 0.584005
C50   C     C_2   0.365734 0.455608 0.784743 0.575495
C51   C     C_2   0.461921 0.685347 0.402342 0.602947
C52   C     C_2   0.601244 0.261926 0.530891 0.601159
C53   C     C_2   0.714635 0.864107 0.691361 0.648298
C54   C     C_2   0.283293 0.137126 0.310457 0.656491
C55   C     C_R   0.474922 0.682420 0.995995 0.032331
C56   C     C_R   0.504081 0.469026 0.946534 -0.015495
C57   C     C_R   0.541359 0.534405 0.047373 -0.011866
C58   C     C_R   0.606339 0.490931 0.119782 0.051533
Cu1   Cu    Cu3+1 0.526370 0.916390 0.524860 1.044664
Cu2   Cu    Cu3+1 0.473630 0.083610 0.475140 1.073195
H1    H     H_    0.323319 0.642254 0.443836 0.128450
H2    H     H_    0.788307 0.113079 0.335216 0.380586
H3    H     H_    0.044791 0.397853 0.275051 0.371433
H4    H     H_    0.885058 0.643598 0.836108 0.365756
H5    H     H_    0.690848 0.344466 0.319868 0.370610
H6    H     H_    0.233831 0.764812 0.794482 0.365789
H7    H     H_    0.531867 0.236471 0.126706 0.135897
H8    H     H_    0.436732 0.916091 0.971780 0.148158
H9    H     H_    0.766216 0.586823 0.349448 0.361991
H10   H     H_    0.256226 0.370750 0.735440 0.359395
H11   H     H_    0.326640 0.783585 0.423208 0.326968
H12   H     H_    0.582803 0.433470 0.672419 0.149442
H13   H     H_    0.713716 0.232507 0.644528 0.337285
H14   H     H_    0.848354 0.889947 0.689101 0.360090
H15   H     H_    0.156476 0.081823 0.283857 0.356988
H16   H     H_    0.526402 0.679009 0.232999 0.198786
H17   H     H_    0.520805 0.316671 0.763816 0.178975
H18   H     H_    0.464895 0.935796 0.151998 0.174831
H19   H     H_    0.536595 0.074634 0.853358 0.203677
H20   H     H_    0.233216 0.505831 0.356427 0.172726
H21   H     H_    0.673391 0.570616 0.756496 0.167052
H22   H     H_    0.207671 0.802419 0.564410 0.346116
N1    N     N_R   0.433980 0.209250 0.437830 -0.295457
N2    N     N_R   0.566020 0.790750 0.562170 -0.296340
O1    O     O_R   0.534760 0.019630 0.662610 -0.491364
O2    O     O_R   0.162820 0.849454 0.527937 -0.714584
O3    O     O_2   0.957050 0.154241 0.411454 -0.439006
O4    O     O_R   0.832999 0.063420 0.368636 -0.661233
O5    O     O_2   0.184545 0.275964 0.198464 -0.460573
O6    O     O_R   0.110047 0.397014 0.330073 -0.641927
O7    O     O_2   0.749364 0.792590 0.860452 -0.412884
O8    O     O_R   0.830810 0.634244 0.770171 -0.665360
O9    O     O_2   0.747498 0.279815 0.161394 -0.449456
O10   O     O_R   0.641626 0.379999 0.273497 -0.623070
O11   O     O_2   0.379638 0.636859 0.736949 -0.463699
O12   O     O_R   0.465240 0.980370 0.337390 -0.483047
O13   O     O_R   0.276029 0.738749 0.850524 -0.664964
O14   O     O_2   0.574308 0.091654 0.037747 -0.456942
O15   O     O_2   0.512496 0.786461 0.883399 -0.467465
O16   O     O_2   0.734314 0.590828 0.183125 -0.489005
O17   O     O_R   0.710521 0.546166 0.301135 -0.608182
O18   O     O_2   0.361249 0.446904 0.697855 -0.486552
O19   O     O_R   0.302417 0.409082 0.801263 -0.661953
O20   O     O_2   0.503017 0.608552 0.340232 -0.442394
O21   O     O_R   0.366647 0.738917 0.367331 -0.658233
O22   O     O_2   0.663754 0.256549 0.485321 -0.504511
O23   O     O_R   0.490220 0.160840 0.620610 -0.469430
O24   O     O_R   0.635553 0.247915 0.623685 -0.704636
O25   O     O_2   0.703414 0.941254 0.768318 -0.471583
O26   O     O_R   0.802442 0.836907 0.651051 -0.648018
O27   O     O_2   0.310053 0.069330 0.233278 -0.500829
O28   O     O_R   0.191010 0.142101 0.333447 -0.637865
O29   O     O_R   0.509780 0.839160 0.379390 -0.480426
O30   O     O_R   0.663260 0.919400 0.523940 -0.480464
O31   O     O_R   0.336740 0.080600 0.476060 -0.479191
O32   O     O_R   0.618720 0.060610 0.481950 -0.465269
O33   O     O_R   0.381280 0.939390 0.518050 -0.512213
O34   O     O_2   0.042493 0.865740 0.610575 -0.477791

loop_
_geom_bond_atom_site_label_1
_geom_bond_atom_site_label_2
_ccdc_geom_bond_type
C53   O26   S    
C7    N1    A    
C5    C42   S    
C11   C18   A    
C23   C45   A    
C36   H19   S    
C18   C21   A    
C33   C45   A    
C40   O34   D    
C19   C20   A    
C23   C56   A    
C4    C46   S    
H15   O28   S    
C47   O14   D    
H6    O13   S    
C28   C29   S    
C35   C37   A    
C49   O17   S    
Cu2   N1    S    
C35   C48   S    
C1    C31   S    
C33   C36   A    
C56   C57   A    
C18   C19   A    
C32   C39   A    
C40   O2    S    
C20   H1    S    
C41   O4    S    
C44   O9    D    
C2    C50   S    
C6    C15   A    
C46   O11   D    
C34   C57   A    
C17   O33   A    
C52   O22   D    
C34   C55   A    
Cu1   O33   S    
C12   C32   S    
C27   C30   S    
C16   C26   S    
C9    C52   S    
C10   C51   S    
C16   O32   A    
C47   H7    S    
C1    O1    A    
C41   O3    D    
C3    C44   S    
C13   C19   A    
C21   H12   S    
C35   C55   A    
C34   C39   A    
Cu1   N2    S    
C5    C7    A    
H10   O19   S    
H13   O24   S    
C6    C8    A    
C51   O20   D    
C32   C37   A    
H2    O4    S    
C3    C45   A    
C43   O7    D    
C49   C58   S    
C42   O6    S    
C2    C4    A    
C24   H21   S    
Cu1   O1    S    
Cu1   Cu2   S    
C27   C41   S    
Cu1   O29   S    
C54   O28   S    
C39   H16   S    
C48   H8    S    
C9    C11   A    
C5    C14   A    
Cu2   O23   S    
C1    O23   A    
Cu2   O12   S    
H5    O10   S    
C46   O13   S    
C9    N1    A    
C50   O18   D    
C6    C43   S    
H11   O21   S    
C4    C55   A    
C33   C47   S    
Cu2   O32   S    
H4    O8    S    
C17   O31   A    
C12   O29   A    
C53   O25   D    
C25   C30   T    
C48   O15   D    
C15   C24   A    
C8    N2    A    
C20   C22   A    
C10   C13   A    
C16   O30   A    
C8    C53   S    
H14   O26   S    
C38   H17   S    
H9    O17   S    
C23   C38   A    
C37   H18   S    
C43   O8    S    
C31   C38   A    
C42   O5    D    
C17   C25   S    
C14   C22   A    
C13   C15   A    
C22   H20   S    
H22   O2    S    
C49   O16   D    
C57   C58   A    
Cu1   O30   S    
H3    O6    S    
C10   N2    A    
C11   C14   A    
C54   O27   D    
C51   O21   S    
C44   O10   S    
C3    C58   A    
C50   O19   S    
C52   O24   S    
C26   C29   T    
C21   C24   A    
C27   C28   D    
C28   C40   S    
C31   C36   A    
C12   O12   A    
Cu2   O31   S    
C2    C56   A    
C7    C54   S    
