data_mof_unit_46462.cif
_audit_creation_date              2013-03-05T15:55:42-0500
_audit_creation_method            fapswitch 2.2
_symmetry_space_group_name_H-M    P1
_symmetry_Int_Tables_number       1
_space_group_crystal_system       triclinic
_cell_length_a                    6.920303
_cell_length_b                    17.610769
_cell_length_c                    19.4665
_cell_angle_alpha                 108.558776
_cell_angle_beta                  89.895376
_cell_angle_gamma                 90.556869
_cell_volume                      2248.93895217

loop_
_atom_site_label
_atom_site_type_symbol
_atom_site_description
_atom_site_fract_x
_atom_site_fract_y
_atom_site_fract_z
_atom_type_partial_charge
O1    O     O_R   0.494330 0.415710 0.413720 -0.610168
O2    O     O_R   0.819360 0.430070 0.560210 -0.595005
O3    O     O_R   0.994320 0.584290 0.586280 -0.617548
C1    C     C_R   0.651710 0.419803 0.585741 0.970749
O4    O     O_R   0.823740 0.406290 0.412670 -0.544946
O5    O     O_R   0.998730 0.560340 0.437690 -0.558827
C2    C     C_R   0.654382 0.383602 0.384262 1.081238
O6    O     O_R   0.489920 0.439660 0.562310 -0.602352
O7    O     O_3   0.662330 0.550570 0.508380 -0.268618
V1    V     V_3+5 0.935370 0.490620 0.498440 1.242869
O8    O     O_R   0.328720 0.569930 0.439790 -0.578301
C3    C     C_R   0.160167 0.582358 0.415864 0.995555
O9    O     O_R   0.324340 0.593710 0.587330 -0.611565
C4    C     C_R   0.155697 0.616294 0.615587 0.909125
V2    V     V_3+5 0.435940 0.509380 0.501560 1.203947
O10   O     O_3   0.159110 0.449430 0.491620 -0.262265
C5    C     C_R   0.299850 0.735977 0.710450 -0.147859
H1    H     H_    0.432038 0.729557 0.679320 0.132072
C6    C     C_R   0.284889 0.799378 0.775289 -0.166061
H2    H     H_    0.405816 0.840648 0.791464 0.130533
C7    C     C_R   0.116057 0.810906 0.817909 -0.167037
C8    C     C_R   0.959336 0.755203 0.793734 0.234375
C9    C     C_R   0.975834 0.693272 0.727196 -0.212677
H3    H     H_    0.856394 0.651584 0.708428 0.131014
C10   C     C_R   0.144496 0.682923 0.685197 -0.125556
C11   C     C_R   0.995573 0.613667 0.311372 0.354832
C12   C     C_R   0.149614 0.626737 0.362166 -0.323545
C13   C     C_R   0.294575 0.682510 0.361933 -0.155302
C14   C     C_R   0.287123 0.727097 0.314060 0.218731
C15   C     C_R   0.131126 0.716629 0.264780 -0.018869
C16   C     C_R   0.985521 0.658392 0.261650 -0.209280
C17   C     C_R   0.435650 0.782041 0.314835 -0.167262
C18   C     C_R   0.430027 0.827721 0.268223 -0.228349
C19   C     C_R   0.274785 0.819981 0.220373 0.167683
C20   C     C_R   0.123963 0.764110 0.218155 0.024361
C21   C     C_R   0.967668 0.756175 0.169483 0.072468
C22   C     C_R   0.822224 0.697124 0.164893 0.016390
C23   C     C_R   0.836319 0.646423 0.208620 0.314102
C24   C     C_R   0.269048 0.867618 0.174862 -0.234948
C25   C     C_R   0.112740 0.862146 0.127932 -0.155494
C26   C     C_R   0.963997 0.806587 0.125433 -0.223439
H4    H     H_    0.412737 0.692471 0.400387 0.164315
H5    H     H_    0.557107 0.789585 0.351564 0.138566
H6    H     H_    0.547137 0.869588 0.269885 0.148089
H7    H     H_    0.384977 0.910195 0.176983 0.140578
H8    H     H_    0.848822 0.802357 0.087097 0.150076
C27   C     C_R   0.772764 0.188927 0.874260 -0.145162
C28   C     C_R   0.622118 0.133774 0.868765 -0.177347
C29   C     C_R   0.476709 0.125924 0.816549 -0.153923
C30   C     C_R   0.476493 0.174311 0.770870 -0.031333
C31   C     C_R   0.629493 0.230477 0.777495 0.024745
C32   C     C_R   0.777656 0.236960 0.829018 0.224873
C33   C     C_R   0.331648 0.166917 0.717415 0.336456
C34   C     C_R   0.341655 0.215663 0.672713 -0.288376
C35   C     C_R   0.491040 0.271888 0.679817 0.088485
C36   C     C_R   0.636300 0.279604 0.732124 0.003998
C37   C     C_R   0.788247 0.336261 0.739281 0.134614
C38   C     C_R   0.937339 0.338887 0.789597 -0.227449
C39   C     C_R   0.931045 0.290539 0.833929 -0.184673
C40   C     C_R   0.498388 0.318994 0.633843 -0.207733
C41   C     C_R   0.646227 0.375897 0.639853 -0.223489
C42   C     C_R   0.787461 0.388504 0.696145 0.159648
H9    H     H_    0.885976 0.194736 0.914119 0.127713
H10   H     H_    0.367452 0.080269 0.811311 0.179261
H11   H     H_    0.230195 0.209945 0.632252 0.188146
H12   H     H_    0.389247 0.310424 0.592055 0.163426
H13   H     H_    0.061688 0.377960 0.795551 0.154346
H14   H     H_    0.047778 0.294875 0.872092 0.135846
C43   C     C_R   0.772987 0.250746 0.300659 0.366976
C44   C     C_R   0.765008 0.188333 0.234447 -0.222093
H15   H     H_    0.865251 0.139121 0.224644 0.164086
C45   C     C_R   0.622206 0.185824 0.183030 -0.220288
C46   C     C_R   0.491426 0.248994 0.196611 -0.101064
H16   H     H_    0.382834 0.246151 0.156011 0.130181
C47   C     C_R   0.504036 0.316047 0.260103 0.228025
C48   C     C_R   0.642283 0.315731 0.314563 -0.358510
O11   O     O_R   0.774940 0.060470 0.937800 -0.581812
O12   O     O_R   0.440880 0.093730 0.087350 -0.595352
O13   O     O_R   0.266130 0.939630 0.062280 -0.595690
C49   C     C_R   0.610211 0.117046 0.115071 0.962984
O14   O     O_R   0.445480 0.069960 0.939820 -0.599597
O15   O     O_R   0.270770 0.915690 0.913690 -0.600244
C50   C     C_R   0.614294 0.084543 0.917850 0.947895
O16   O     O_R   0.770300 0.084410 0.086380 -0.594311
O17   O     O_3   0.602600 0.949510 0.991670 -0.279845
V3    V     V_3+5 0.329470 0.009370 0.001550 1.167221
O18   O     O_R   0.940760 0.906160 0.912560 -0.595096
C51   C     C_R   0.108780 0.881585 0.885479 0.938843
O19   O     O_R   0.936150 0.929930 0.060100 -0.602890
C52   C     C_R   0.104617 0.914030 0.081010 0.946012
V4    V     V_3+5 0.828930 0.990450 0.998310 1.161563
O20   O     O_3   0.105670 0.050490 0.008320 -0.265468
C53   C     C_3   0.655693 0.684563 0.111023 -0.300375
C54   C     C_3   0.717707 0.633152 0.035345 -0.868375
H17   H     H_    0.846557 0.659456 0.017165 0.254077
H18   H     H_    0.753363 0.571823 0.035343 0.290154
H19   H     H_    0.597934 0.628915 0.996386 0.246389
H20   H     H_    0.529208 0.655324 0.127271 0.234132
H21   H     H_    0.597358 0.742551 0.109881 0.171853
N1    N     N_R   0.709730 0.578043 0.193373 0.253615
O21   O     O_R   0.767447 0.508935 0.150905 -0.383402
O22   O     O_R   0.533123 0.585642 0.217417 -0.406332
N2    N     N_R   0.175698 0.109583 0.706118 0.235672
O23   O     O_R   0.074035 0.103829 0.760496 -0.434971
O24   O     O_R   0.114691 0.072586 0.640685 -0.370845
C55   C     C_3   0.927724 0.459905 0.714105 -0.368627
C56   C     C_3   0.880973 0.522169 0.787023 -0.961331
H22   H     H_    0.738105 0.549259 0.784148 0.263486
H23   H     H_    0.878015 0.496358 0.832008 0.275558
H24   H     H_    0.993339 0.570035 0.799570 0.263763
H25   H     H_    0.079067 0.439275 0.713124 0.186426
H26   H     H_    0.924053 0.493253 0.675027 0.206107
N3    N     N_R   0.910123 0.245246 0.354172 0.235356
O25   O     O_R   0.083460 0.219065 0.334604 -0.402696
O26   O     O_R   0.853439 0.253656 0.419949 -0.397031
C57   C     C_3   0.373933 0.388289 0.269464 -0.333063
C58   C     C_3   0.289668 0.396489 0.199494 -0.720034
H27   H     H_    0.405010 0.390492 0.158368 0.264832
H28   H     H_    0.174058 0.351022 0.177726 0.238804
H29   H     H_    0.224438 0.456631 0.211029 0.285833
H30   H     H_    0.253212 0.386456 0.306659 0.219002
H31   H     H_    0.459564 0.443927 0.294398 0.242676
C59   C     C_3   0.772443 0.758428 0.835806 -0.359527
C60   C     C_3   0.802569 0.738360 0.905877 -0.864224
H32   H     H_    0.848675 0.675387 0.893327 0.250639
H33   H     H_    0.913429 0.777378 0.941306 0.244948
H34   H     H_    0.664364 0.745967 0.936289 0.252886
H35   H     H_    0.702551 0.817386 0.846848 0.212018
H36   H     H_    0.664711 0.714607 0.802960 0.176479
N4    N     N_R   0.848644 0.556009 0.311847 0.250080
O27   O     O_R   0.886473 0.479913 0.286991 -0.424979
O28   O     O_R   0.690741 0.579528 0.348430 -0.398965

loop_
_geom_bond_atom_site_label_1
_geom_bond_atom_site_label_2
_geom_bond_distance
_ccdc_geom_bond_type
C35   C36   1.406698 A    
C53   C54   1.526565 S    
O18   V4    2.007267 S    
C56   H23   1.107694 S    
C46   H16   1.080797 S    
N4    O28   1.300371 A    
C20   C21   1.415501 A    
C1    O6    1.301893 A    
O17   V4    1.705638 S    
C59   C60   1.529155 S    
C34   H11   1.084291 S    
C55   H26   1.099533 S    
O17   V3    2.151573 S    
C57   C58   1.531625 S    
C43   N3    1.436950 S    
C11   C12   1.421705 A    
C22   C23   1.420238 A    
C57   H31   1.110787 S    
C15   C20   1.417575 A    
C60   H33   1.107433 S    
C13   C14   1.398014 A    
C6    C7    1.410135 A    
C31   C36   1.419952 A    
C14   C17   1.401570 A    
C58   H28   1.110669 S    
C27   H9    1.084641 S    
C15   C16   1.418181 A    
O12   C49   1.298029 A    
C55   C56   1.528513 S    
O11   C50   1.296927 A    
V2    O10   2.157353 S    
C36   C37   1.418561 A    
C43   C48   1.422376 A    
C19   C20   1.418635 A    
O13   C52   1.295702 A    
N2    O23   1.299971 A    
C7    C8    1.430865 A    
O15   C51   1.303154 A    
O8    V2    1.992066 S    
O11   V4    1.995695 S    
C6    H2    1.082197 S    
C26   H8    1.078606 S    
V3    O20   1.703158 S    
C44   H15   1.083830 S    
O1    V2    2.005802 S    
O16   V4    2.011616 S    
O19   V4    1.991982 S    
O7    V1    2.151689 S    
C53   H21   1.108538 S    
O14   V3    2.005772 S    
C11   N4    1.432080 S    
C49   O16   1.294378 A    
C24   H7    1.084560 S    
O12   V3    1.998532 S    
C7    C51   1.496927 S    
C40   H12   1.084822 S    
C11   C16   1.431321 A    
C29   H10   1.079257 S    
O9    C4    1.300078 A    
C59   H36   1.112056 S    
C46   C47   1.413852 A    
C21   C26   1.417462 A    
C54   H17   1.109100 S    
O14   C50   1.294581 A    
C5    H1    1.083149 S    
C55   H25   1.110039 S    
C30   C33   1.421113 A    
C57   H30   1.111478 S    
C3    C12   1.493405 S    
C31   C32   1.413823 A    
C37   C42   1.429517 A    
C23   N1    1.434794 S    
C58   H29   1.110635 S    
V4    O20   2.157433 S    
O4    C2    1.300645 A    
C54   H19   1.110319 S    
C38   C39   1.392294 A    
O15   V3    2.001342 S    
C1    C41   1.492202 S    
C19   C24   1.401481 A    
C40   C41   1.403740 A    
O2    C1    1.294900 A    
C47   C48   1.430678 A    
C14   C15   1.416690 A    
C32   C39   1.396326 A    
C39   H14   1.084074 S    
C27   C28   1.398673 A    
C56   H22   1.111128 S    
N1    O22   1.300736 A    
C30   C31   1.419514 A    
C22   C53   1.525954 S    
N2    O24   1.301362 A    
C54   H18   1.110196 S    
C27   C32   1.402102 A    
O3    C4    1.294503 A    
C60   H34   1.110453 S    
C25   C26   1.403424 A    
O6    V2    1.995100 S    
O9    V2    2.007213 S    
C56   H24   1.109874 S    
O2    V1    2.005866 S    
C24   C25   1.399821 A    
C8    C59   1.521404 S    
N3    O25   1.301492 A    
C34   C35   1.400621 A    
C21   C22   1.422451 A    
O1    C2    1.295691 A    
C18   H6    1.083873 S    
C45   C46   1.399313 A    
O5    V1    2.002559 S    
O8    C3    1.302781 A    
C16   C23   1.427362 A    
C33   C34   1.404663 A    
C2    C48   1.497563 S    
C42   C55   1.530758 S    
C28   C50   1.481143 S    
C5    C10   1.400176 A    
C17   C18   1.391892 A    
C41   C42   1.431838 A    
N4    O27   1.300833 A    
O7    V2    1.707538 S    
O4    V1    1.998512 S    
C45   C49   1.484101 S    
O3    V1    2.001356 S    
V1    O10   1.703225 S    
C58   H27   1.111169 S    
O5    C3    1.293723 A    
C37   C38   1.414200 A    
C33   N2    1.439069 S    
C28   C29   1.405871 A    
C13   H4    1.084268 S    
N1    O21   1.300743 A    
C5    C6    1.398269 A    
C17   H5    1.083923 S    
C18   C19   1.400139 A    
C9    C10   1.403485 A    
C4    C10   1.486036 S    
C43   C44   1.403480 A    
C9    H3    1.083616 S    
C38   H13   1.079593 S    
O18   C51   1.295962 A    
C29   C30   1.413926 A    
C59   H35   1.107026 S    
C12   C13   1.398133 A    
C8    C9    1.408161 A    
C44   C45   1.398197 A    
C47   C57   1.528565 S    
C25   C52   1.484855 S    
O19   C52   1.297654 A    
C35   C40   1.401182 A    
C53   H20   1.106906 S    
O13   V3    2.002507 S    
C60   H32   1.107028 S    
N3    O26   1.301523 A    
