data_mof_unit_43125.cif
_audit_creation_date              2012-12-10T18:37:09-0500
_audit_creation_method            fapswitch 2.2
_symmetry_space_group_name_H-M    P1
_symmetry_Int_Tables_number       1
_space_group_crystal_system       triclinic
_cell_length_a                    14.918458
_cell_length_b                    14.818516
_cell_length_c                    23.43073
_cell_angle_alpha                 89.850582
_cell_angle_beta                  104.249938
_cell_angle_gamma                 82.787644
_cell_volume                      4977.69152592

loop_
_atom_site_label
_atom_site_type_symbol
_atom_type_description
_atom_site_fract_x
_atom_site_fract_y
_atom_site_fract_z
_atom_type_partial_charge
C1    C     C_R   0.441907 0.664922 0.494043 0.862394
C2    C     C_R   0.579398 0.510502 0.308890 -0.311557
C3    C     C_R   0.439063 0.455134 0.752762 0.628550
C4    C     C_R   0.578741 0.508759 0.249567 0.630535
C5    C     C_R   0.505690 0.498034 0.792216 0.038405
C6    C     C_R   0.497512 0.494043 0.207896 0.039399
C7    C     C_R   0.409293 0.760397 0.506425 -0.089449
C8    C     C_R   0.594599 0.238458 0.522624 -0.103802
C9    C     C_R   0.295942 0.880339 0.528450 -0.229924
C10   C     C_R   0.719777 0.112136 0.544762 -0.208320
C11   C     C_R   0.314960 0.795517 0.503804 0.172636
C12   C     C_R   0.558099 0.335302 0.508254 0.859057
C13   C     C_R   0.686507 0.200981 0.522105 0.177649
C14   C     C_R   0.479020 0.814329 0.529913 -0.285764
C15   C     C_R   0.537566 0.184400 0.542744 -0.285211
C16   C     C_R   0.500693 0.500110 0.610660 0.945666
C17   C     C_R   0.499456 0.499475 0.389271 0.947554
C18   C     C_R   0.460981 0.895341 0.558003 0.057258
C19   C     C_R   0.571280 0.096548 0.567289 0.063953
C20   C     C_R   0.367859 0.930907 0.556172 0.066070
C21   C     C_R   0.663658 0.058482 0.567229 0.056385
C22   C     C_R   0.533818 0.947070 0.581377 -0.033355
C23   C     C_R   0.570625 0.541878 0.772308 0.647087
C24   C     C_R   0.510137 0.040861 0.583117 -0.025716
C25   C     C_R   0.423130 0.072928 0.595322 0.125035
C26   C     C_R   0.629399 0.911067 0.597086 0.142013
C27   C     C_R   0.350067 0.016673 0.581519 0.137712
C28   C     C_R   0.695722 0.966557 0.587605 0.146221
C29   C     C_R   0.853221 0.608509 0.605949 0.054483
C30   C     C_R   0.149851 0.378203 0.400013 0.057530
C31   C     C_R   0.760180 0.594030 0.584937 -0.018531
C32   C     C_R   0.242879 0.392862 0.420754 0.010434
C33   C     C_R   0.790905 0.524067 0.500080 -0.071373
C34   C     C_R   0.416905 0.480717 0.225411 0.647273
C35   C     C_R   0.207087 0.486594 0.495637 -0.078729
C36   C     C_R   0.883863 0.543927 0.515294 -0.041016
C37   C     C_R   0.110742 0.482066 0.474281 -0.038730
C38   C     C_R   0.913406 0.593626 0.567210 0.062487
C39   C     C_R   0.081088 0.433197 0.422029 0.065515
C40   C     C_R   0.537152 0.418336 0.125284 0.653563
C41   C     C_R   0.465910 0.573421 0.874806 0.651233
C42   C     C_R   0.948562 0.513291 0.481594 0.046321
C43   C     C_R   0.043611 0.525356 0.502752 0.047806
C44   C     C_R   0.067689 0.583912 0.549788 -0.214656
C45   C     C_R   0.568980 0.542679 0.712778 -0.313714
C46   C     C_R   0.920460 0.475341 0.425977 -0.232909
C47   C     C_R   0.001800 0.625356 0.577946 0.155437
C48   C     C_R   0.984568 0.444426 0.393509 0.141557
C49   C     C_R   0.457567 0.570315 0.112752 0.652733
C50   C     C_R   0.545834 0.421575 0.887350 0.653216
C51   C     C_R   0.458306 0.573040 0.053084 -0.168790
C52   C     C_R   0.544929 0.418748 0.947000 -0.167007
C53   C     C_R   0.500336 0.495615 0.029864 -0.083708
C54   C     C_R   0.502900 0.496168 0.970231 -0.083473
C55   C     C_R   0.539928 0.417592 0.066166 -0.097298
C56   C     C_R   0.417430 0.482402 0.284773 -0.302499
C57   C     C_R   0.463298 0.574197 0.933939 -0.096003
C58   C     C_R   0.419009 0.650527 0.016210 0.691518
C59   C     C_R   0.584210 0.341257 0.983876 0.689777
C60   C     C_R   0.421661 0.650762 0.957273 -0.216484
C61   C     C_R   0.581535 0.341014 0.042819 -0.214826
C62   C     C_3   0.416728 0.154965 0.634050 -0.452323
C63   C     C_3   0.436593 0.124664 0.698903 -0.752797
C64   C     C_3   0.659376 0.819801 0.630868 -0.463099
C65   C     C_3   0.698498 0.833060 0.696576 -0.803233
C66   C     C_3   0.025471 0.708738 0.613893 -0.414639
C67   C     C_R   0.502383 0.499673 0.673036 -0.211685
C68   C     C_3   0.065719 0.777754 0.581602 -0.893340
C69   C     C_3   0.947248 0.437351 0.327210 -0.469147
C70   C     C_3   0.891221 0.526584 0.298254 -0.694939
C71   C     C_3   0.887171 0.626498 0.671243 -0.482204
C72   C     C_3   0.860792 0.557372 0.710914 -0.754623
C73   C     C_3   0.129189 0.299464 0.359281 -0.443253
C74   C     C_3   0.188312 0.209754 0.384455 -0.837095
C75   C     C_3   0.254335 0.048735 0.591890 -0.405384
C76   C     C_3   0.192605 0.106751 0.539700 -0.888444
C77   C     C_3   0.795610 0.924284 0.591263 -0.425158
C78   C     C_R   0.498634 0.497568 0.326858 -0.219622
C79   C     C_3   0.803267 0.884784 0.532269 -0.869161
C80   C     C_3   0.749217 0.249580 0.493886 -0.415352
C81   C     C_3   0.824649 0.287846 0.540326 -0.806112
C82   C     C_3   0.232464 0.747141 0.474635 -0.425684
C83   C     C_3   0.220042 0.743290 0.408021 -0.768338
C84   C     C_R   0.437275 0.456064 0.693264 -0.316476
F1    F     F_    0.377869 0.726416 0.036603 -0.587523
F2    F     F_    0.625279 0.265349 0.963461 -0.590195
F3    F     F_    0.634990 0.583706 0.810658 -0.634760
F4    F     F_    0.338257 0.466220 0.184855 -0.624260
F5    F     F_    0.375937 0.412967 0.772178 -0.641771
F6    F     F_    0.656681 0.522029 0.232357 -0.659991
H1    H     H_    0.223825 0.907117 0.524358 0.150660
H2    H     H_    0.612333 0.280487 0.070116 0.220144
H3    H     H_    0.618758 0.577735 0.697692 0.178478
H4    H     H_    0.354437 0.472083 0.297665 0.199722
H5    H     H_    0.385609 0.422175 0.663213 0.195090
H6    H     H_    0.642964 0.521992 0.340562 0.185824
H7    H     H_    0.464938 0.210789 0.537648 0.170191
H8    H     H_    0.549410 0.792480 0.526457 0.176339
H9    H     H_    0.389541 0.075857 0.706081 0.249419
H10   H     H_    0.509775 0.091391 0.714306 0.265342
H11   H     H_    0.427169 0.184979 0.725893 0.281760
H12   H     H_    0.789110 0.084956 0.541984 0.153990
H13   H     H_    0.469117 0.200790 0.632225 0.222026
H14   H     H_    0.347806 0.197301 0.619729 0.218567
H15   H     H_    0.720405 0.765610 0.719982 0.265571
H16   H     H_    0.759470 0.871258 0.704748 0.251313
H17   H     H_    0.643806 0.871074 0.715199 0.277309
H18   H     H_    0.599985 0.780649 0.628281 0.225073
H19   H     H_    0.710506 0.776603 0.612237 0.203504
H20   H     H_    0.140470 0.755262 0.584149 0.253173
H21   H     H_    0.026784 0.786775 0.534600 0.260439
H22   H     H_    0.061003 0.844610 0.602738 0.257062
H23   H     H_    0.235980 0.522806 0.534059 0.132542
H24   H     H_    0.962065 0.745942 0.623700 0.214439
H25   H     H_    0.077198 0.687034 0.656027 0.220747
H26   H     H_    0.825272 0.542019 0.312254 0.272903
H27   H     H_    0.933287 0.583742 0.309655 0.245569
H28   H     H_    0.872897 0.520802 0.249618 0.278793
H29   H     H_    0.004270 0.423299 0.304680 0.220867
H30   H     H_    0.902502 0.381884 0.318246 0.226635
H31   H     H_    0.784790 0.567416 0.707552 0.248389
H32   H     H_    0.882097 0.486850 0.698895 0.263499
H33   H     H_    0.897050 0.566462 0.757567 0.268802
H34   H     H_    0.764149 0.483694 0.463175 0.136790
H35   H     H_    0.964073 0.620264 0.685161 0.230451
H36   H     H_    0.858137 0.696147 0.680270 0.214484
H37   H     H_    0.263105 0.211650 0.386331 0.255028
H38   H     H_    0.180297 0.195581 0.429227 0.261906
H39   H     H_    0.164520 0.153287 0.355919 0.262564
H40   H     H_    0.055866 0.286448 0.352513 0.224176
H41   H     H_    0.142332 0.315508 0.315935 0.226346
H42   H     H_    0.223933 0.169203 0.533918 0.258642
H43   H     H_    0.183951 0.067901 0.498678 0.261002
H44   H     H_    0.122733 0.127204 0.547820 0.258771
H45   H     H_    0.296143 0.359879 0.400972 0.145993
H46   H     H_    0.219268 0.990260 0.600556 0.200807
H47   H     H_    0.259138 0.088560 0.632134 0.226925
H48   H     H_    0.760831 0.827731 0.521923 0.261759
H49   H     H_    0.778865 0.937565 0.496195 0.263487
H50   H     H_    0.876834 0.858598 0.534462 0.263129
H51   H     H_    0.845549 0.974262 0.604992 0.201366
H52   H     H_    0.820522 0.869470 0.625687 0.213921
H53   H     H_    0.792871 0.337325 0.567525 0.280166
H54   H     H_    0.869560 0.232052 0.569553 0.248725
H55   H     H_    0.869099 0.323071 0.518282 0.242349
H56   H     H_    0.711029 0.610073 0.611587 0.146204
H57   H     H_    0.783476 0.200873 0.467301 0.199604
H58   H     H_    0.709223 0.304493 0.462078 0.211539
H59   H     H_    0.206165 0.813362 0.388142 0.254381
H60   H     H_    0.282863 0.707216 0.396802 0.262302
H61   H     H_    0.159737 0.706687 0.388558 0.246455
H62   H     H_    0.238783 0.678326 0.494820 0.220783
H63   H     H_    0.166553 0.783282 0.481975 0.196556
H64   H     H_    0.136160 0.604422 0.562862 0.147108
H65   H     H_    0.847752 0.476421 0.404257 0.147244
H66   H     H_    0.390834 0.711280 0.929974 0.219115
N1    N     N_R   0.496740 0.493934 0.147054 -0.327280
N2    N     N_R   0.506477 0.497906 0.853048 -0.326543
N3    N     N_R   0.731690 0.552740 0.533440 -0.111140
N4    N     N_R   0.268310 0.447260 0.466560 -0.115872
O1    O     O_R   0.383120 0.605620 0.483150 -0.602471
O2    O     O_2   0.427748 0.647103 0.839044 -0.538547
O3    O     O_2   0.418875 0.643168 0.136740 -0.444163
O4    O     O_2   0.585402 0.349115 0.863472 -0.453704
O5    O     O_R   0.616880 0.394380 0.516850 -0.597248
O6    O     O_R   0.531890 0.639510 0.504600 -0.610837
O7    O     O_R   0.468110 0.360490 0.495400 -0.614143
O8    O     O_R   0.425590 0.483070 0.573110 -0.623667
O9    O     O_R   0.574410 0.516930 0.426890 -0.620567
O10   O     O_R   0.574360 0.516970 0.594570 -0.625715
O11   O     O_R   0.425640 0.483030 0.405430 -0.620175
O12   O     O_2   0.574485 0.344356 0.160928 -0.534569
Zn1   Zn    Zn3+2 0.400660 0.477370 0.485670 0.930203
Zn2   Zn    Zn3+2 0.599340 0.522630 0.514330 0.931169

loop_
_geom_bond_atom_site_label_1
_geom_bond_atom_site_label_2
_ccdc_geom_bond_type
C66   C68   S    
C73   H41   S    
C75   C76   S    
C34   C56   A    
C8    C13   A    
C23   C45   A    
C72   H31   S    
N4    Zn1   S    
C14   C18   A    
C36   C42   A    
C48   C69   S    
C63   H11   S    
C45   H3    S    
C9    H1    S    
C12   O7    A    
C53   C54   A    
C50   N2    A    
C15   C19   A    
C46   H65   S    
O11   Zn1   S    
C62   C63   S    
C19   C21   A    
C70   H28   S    
C68   H22   S    
C17   O9    A    
C70   H27   S    
C58   C60   A    
C33   C36   A    
C56   C78   A    
C42   C46   A    
C26   C64   S    
C35   N4    A    
C63   H9    S    
C1    C7    S    
C77   H52   S    
C82   H63   S    
C81   H54   S    
C74   H38   S    
C49   C51   A    
N3    Zn2   S    
C29   C38   A    
C45   C67   A    
C33   H34   S    
C50   C52   A    
O9    Zn2   S    
C71   H36   S    
C64   H18   S    
C7    C14   A    
C47   C66   S    
C62   H14   S    
C44   C47   A    
O7    Zn1   S    
C83   H60   S    
C72   H32   S    
C53   C55   A    
C79   H50   S    
C13   C80   S    
C1    O1    A    
C67   C84   A    
C10   C21   A    
C23   F3    S    
C41   O2    S    
C31   H56   S    
C49   N1    A    
C56   H4    S    
C15   H7    S    
C27   C75   S    
C65   H15   S    
C52   C54   A    
C14   H8    S    
C4    F6    S    
C77   C79   S    
C11   C82   S    
O8    Zn1   S    
C46   C48   A    
O6    Zn2   S    
C59   C61   A    
C66   H25   S    
C50   O4    S    
C40   N1    A    
C10   H12   S    
C24   C25   A    
C4    C6    A    
C79   H49   S    
C75   H47   S    
C12   O5    A    
C51   C58   A    
C30   C73   S    
C76   H44   S    
C75   H46   S    
C57   C60   A    
C68   H20   S    
C70   H26   S    
O5    Zn2   S    
C69   H29   S    
C6    C34   A    
C51   C53   A    
C68   H21   S    
C37   C43   A    
C7    C11   A    
C43   C44   A    
C60   H66   S    
C63   H10   S    
C2    C78   A    
C52   C59   A    
O1    Zn1   S    
C9    C20   A    
C74   H37   S    
C5    C23   A    
C80   H58   S    
C8    C12   S    
C40   C55   A    
C16   C67   S    
C34   F4    S    
C28   C77   S    
C9    C11   A    
C83   H61   S    
C38   C47   A    
C21   C28   A    
C82   C83   S    
C8    C15   A    
C81   H55   S    
C72   H33   S    
C22   C24   A    
C25   C27   A    
C42   C43   A    
C58   F1    S    
C65   H16   S    
C40   O12   S    
C6    N1    S    
C62   H13   S    
O10   Zn2   S    
C73   H40   S    
C73   C74   S    
C66   H24   S    
C35   C37   A    
C18   C22   A    
C31   N3    A    
C29   C71   S    
C80   C81   S    
C3    C5    A    
C10   C13   A    
C32   H45   S    
C76   H43   S    
C17   O11   A    
C20   C27   A    
C80   H57   S    
C69   H30   S    
C26   C28   A    
C3    F5    S    
C44   H64   S    
C64   C65   S    
C2    H6    S    
C19   C24   A    
C59   F2    S    
C41   C57   A    
C71   C72   S    
C37   C39   A    
C30   C32   A    
C76   H42   S    
C64   H19   S    
C1    O6    A    
C16   O8    A    
C2    C4    A    
C55   C61   A    
C36   C38   A    
C17   C78   S    
C61   H2    S    
C65   H17   S    
C30   C39   A    
C35   H23   S    
C18   C20   A    
C25   C62   S    
C69   C70   S    
C77   H51   S    
C49   O3    S    
C41   N2    A    
C16   O10   A    
C81   H53   S    
C79   H48   S    
C29   C31   A    
C5    N2    S    
C22   C26   A    
C74   H39   S    
C3    C84   A    
C71   H35   S    
C83   H59   S    
C84   H5    S    
C82   H62   S    
C33   N3    A    
C39   C48   A    
C32   N4    A    
C54   C57   A    
