data_mof_unit_30922.cif
_audit_creation_date              2013-03-05T16:23:14-0500
_audit_creation_method            fapswitch 2.2
_symmetry_space_group_name_H-M    P1
_symmetry_Int_Tables_number       1
_space_group_crystal_system       triclinic
_cell_length_a                    27.712946
_cell_length_b                    10.530425
_cell_length_c                    9.732262
_cell_angle_alpha                 90.535841
_cell_angle_beta                  89.856063
_cell_angle_gamma                 90.061472
_cell_volume                      2840.02252468

loop_
_atom_site_label
_atom_site_type_symbol
_atom_site_description
_atom_site_fract_x
_atom_site_fract_y
_atom_site_fract_z
_atom_type_partial_charge
O1    O     O_R   0.500000 0.313960 0.616610 -0.604279
O2    O     O_R   0.500000 0.686040 0.383390 -0.611205
O3    O     O_R   0.500020 0.313950 0.383350 -0.598913
O4    O     O_R   0.499980 0.686050 0.616650 -0.586048
C1    C     C_R   0.500863 0.257996 0.499116 0.990089
C2    C     C_R   0.499347 0.742066 0.500895 1.009505
O5    O     O_R   0.428750 0.500030 0.616610 -0.590674
O6    O     O_R   0.571250 0.499970 0.383390 -0.638592
O7    O     O_R   0.428770 0.500020 0.383360 -0.617386
O8    O     O_R   0.571230 0.499980 0.616640 -0.574241
C3    C     C_R   0.405908 0.497669 0.500123 0.973998
C4    C     C_R   0.593809 0.500105 0.499742 0.988996
Zn1   Zn    Zn3+2 0.499990 0.500010 0.655740 1.067161
Zn2   Zn    Zn3+2 0.500010 0.499990 0.344260 1.019628
C5    C     C_R   0.177475 0.364065 0.484510 0.627672
C6    C     C_R   0.821110 0.563280 0.410880 0.615281
O9    O     O_2   0.203231 0.257242 0.505458 -0.508826
O10   O     O_2   0.795640 0.662813 0.363281 -0.523287
N1    N     N_R   0.200607 0.477532 0.469443 -0.323780
N2    N     N_R   0.797684 0.462884 0.468275 -0.323627
C7    C     C_R   0.176155 0.587558 0.445045 0.656083
C8    C     C_R   0.821693 0.358550 0.514463 0.670087
C9    C     C_R   0.279833 0.498405 0.359117 0.318222
C10   C     C_R   0.717222 0.403934 0.384326 0.335813
C11   C     C_R   0.329763 0.505314 0.370592 -0.227485
C12   C     C_R   0.667385 0.416646 0.394212 -0.252875
C13   C     C_R   0.324860 0.470914 0.617569 0.211278
C14   C     C_R   0.675283 0.555439 0.594883 0.204951
C15   C     C_R   0.274256 0.468401 0.608104 0.244097
C16   C     C_R   0.725732 0.543368 0.586549 0.250802
C17   C     C_R   0.252025 0.481394 0.478810 0.023695
C18   C     C_R   0.746420 0.468194 0.480928 0.027713
C19   C     C_R   0.100915 0.470121 0.451975 -0.104576
C20   C     C_R   0.897345 0.457839 0.450173 -0.103125
C21   C     C_R   0.127209 0.358494 0.478517 -0.008610
C22   C     C_R   0.871319 0.563333 0.401879 0.000224
C23   C     C_R   0.102958 0.243726 0.497975 -0.130004
C24   C     C_R   0.895787 0.666667 0.345868 -0.144065
C25   C     C_R   0.125625 0.586158 0.432524 -0.144040
C26   C     C_R   0.872333 0.352681 0.505121 -0.148443
C27   C     C_R   0.352817 0.491293 0.497806 -0.250714
C28   C     C_R   0.646316 0.492142 0.497016 -0.229918
H1    H     H_    0.122522 0.156389 0.515657 0.206148
H2    H     H_    0.876436 0.746667 0.303739 0.189168
C29   C     C_R   0.974482 0.350562 0.487294 -0.020224
C30   C     C_R   0.023730 0.576064 0.412214 -0.017346
C31   C     C_R   0.972935 0.569389 0.400372 0.097775
C32   C     C_R   0.025464 0.350627 0.477056 0.093460
C33   C     C_R   0.948388 0.458834 0.445160 0.084790
C34   C     C_R   0.049908 0.465517 0.446368 0.084051
C35   C     C_R   0.948827 0.247113 0.542757 -0.309165
C36   C     C_R   0.049065 0.691055 0.394914 -0.313653
C37   C     C_R   0.898552 0.246412 0.550372 0.527633
C38   C     C_R   0.099229 0.696689 0.402246 0.519841
O11   O     O_2   0.796350 0.262010 0.569470 -0.457265
O12   O     O_2   0.201002 0.697230 0.433480 -0.466009
C39   C     C_R   0.052986 0.239591 0.497257 -0.204635
C40   C     C_R   0.945715 0.670047 0.345389 -0.209652
H3    H     H_    0.644676 0.367533 0.320321 0.219384
H4    H     H_    0.350774 0.519634 0.278019 0.232778
H5    H     H_    0.966937 0.167060 0.587639 0.163290
H6    H     H_    0.030776 0.780286 0.380743 0.154114
H7    H     H_    0.036860 0.147179 0.509894 0.147755
H8    H     H_    0.962085 0.751879 0.298411 0.142686
C41   C     C_3   0.540395 0.040384 0.560854 0.250924
C42   C     C_3   0.460200 0.959948 0.439261 0.243929
C43   C     C_3   0.539670 0.953260 0.432346 -0.335483
C44   C     C_3   0.460943 0.046913 0.567836 -0.347243
H9    H     H_    0.571445 0.913053 0.377570 0.226739
H10   H     H_    0.429183 0.087139 0.622691 0.235866
C45   C     C_3   0.499118 0.876153 0.502645 -0.280291
C46   C     C_3   0.501436 0.123998 0.497443 -0.283792
C47   C     C_3   0.500775 0.962800 0.629821 0.279113
C48   C     C_3   0.499846 0.037402 0.370336 0.268566
C49   C     C_3   0.462737 0.440513 0.048414 -0.039337
C50   C     C_3   0.537239 0.559525 0.951589 -0.058384
C51   C     C_3   0.500894 0.385365 0.950218 -0.000625
C52   C     C_3   0.499106 0.614622 0.049786 -0.042565
H11   H     H_    0.501651 0.288821 0.903414 0.201409
H12   H     H_    0.498319 0.711175 0.096567 0.204224
H13   H     H_    0.431424 0.390451 0.094412 0.187226
H14   H     H_    0.568362 0.610200 0.905599 0.219617
N3    N     N_3   0.499960 0.500030 0.863290 -0.120479
N4    N     N_3   0.500040 0.499970 0.136710 -0.120608
C53   C     C_3   0.461826 0.555170 0.952271 -0.006167
C54   C     C_3   0.538198 0.444875 0.047738 -0.045874
H15   H     H_    0.429996 0.602595 0.906822 0.215364
H16   H     H_    0.570326 0.398608 0.093187 0.189437
N5    N     N_R   0.347212 0.453804 0.748790 0.239360
O13   O     O_R   0.370677 0.349609 0.773814 -0.350808
O14   O     O_R   0.338152 0.532971 0.848955 -0.304266
N6    N     N_R   0.653872 0.632451 0.701272 0.242955
O15   O     O_R   0.623411 0.721614 0.670382 -0.337808
O16   O     O_R   0.666026 0.616516 0.829008 -0.299451
N7    N     N_R   0.584807 0.083950 0.626420 0.253059
O17   O     O_R   0.616295 0.001467 0.667992 -0.232329
O18   O     O_R   0.594852 0.204350 0.635299 -0.375027
N8    N     N_R   0.415682 0.917684 0.373401 0.257257
O19   O     O_R   0.384481 0.001239 0.332417 -0.288244
O20   O     O_R   0.405322 0.797532 0.363360 -0.369246
N9    N     N_R   0.500171 0.920244 0.772038 0.245890
O21   O     O_R   0.535882 0.946624 0.853867 -0.281808
O22   O     O_R   0.462230 0.862920 0.820188 -0.349157
N10   N     N_R   0.500550 0.079915 0.228099 0.240970
O23   O     O_R   0.465066 0.052685 0.145781 -0.294976
O24   O     O_R   0.538467 0.137606 0.180313 -0.353398
N11   N     N_R   0.245295 0.450454 0.729276 0.257498
O25   O     O_R   0.255192 0.359553 0.814330 -0.241489
O26   O     O_R   0.208406 0.523578 0.754016 -0.341018
N12   N     N_R   0.756216 0.612184 0.680675 0.243320
O27   O     O_R   0.749252 0.732815 0.703002 -0.289099
O28   O     O_R   0.792087 0.555825 0.740724 -0.343141
N13   N     N_R   0.737465 0.327085 0.275157 0.239707
O29   O     O_R   0.712262 0.235324 0.220598 -0.301428
O30   O     O_R   0.779181 0.354392 0.221340 -0.350013
N14   N     N_R   0.257902 0.508077 0.225483 0.240952
O31   O     O_R   0.279292 0.571340 0.128511 -0.269773
O32   O     O_R   0.219001 0.444356 0.195652 -0.353498
O33   O     O_3   0.875691 0.146081 0.614421 -0.549543
C55   C     C_3   0.873920 0.041371 0.522833 0.054477
H17   H     H_    0.910790 0.004081 0.501395 0.116758
H18   H     H_    0.856333 0.067717 0.424185 0.174976
C56   C     C_3   0.844354 0.935985 0.588054 -0.551493
H19   H     H_    0.807202 0.970121 0.610129 0.304100
H20   H     H_    0.842240 0.853221 0.517080 0.205883
H21   H     H_    0.861467 0.905538 0.685398 0.248641
O34   O     O_3   0.121825 0.813160 0.388488 -0.566748
C57   C     C_3   0.124503 0.842961 0.247449 0.085349
H22   H     H_    0.087822 0.857942 0.203990 0.124176
H23   H     H_    0.143184 0.766200 0.188176 0.184296
C58   C     C_3   0.153183 0.965078 0.230372 -0.609495
H24   H     H_    0.190076 0.953359 0.272840 0.298226
H25   H     H_    0.156029 0.988605 0.119646 0.215823
H26   H     H_    0.134826 0.044497 0.285097 0.232509

loop_
_geom_bond_atom_site_label_1
_geom_bond_atom_site_label_2
_geom_bond_distance
_ccdc_geom_bond_type
C42   C44   1.543866 S    
N9    O21   1.300019 A    
C13   C15   1.405819 A    
N7    O17   1.299844 A    
C35   H5    1.078055 S    
Zn2   N4    2.019927 S    
C58   H26   1.110451 S    
N1    C17   1.428589 S    
C57   H22   1.113934 S    
N10   O24   1.300399 A    
C56   H19   1.110720 S    
C31   C33   1.419304 A    
C5    N1    1.364286 A    
C19   C25   1.414115 A    
C16   N12   1.438093 S    
O1    C1    1.281683 A    
C21   C23   1.396429 A    
N4    C54   1.480517 S    
C1    C46   1.411098 S    
C52   H12   1.110343 S    
C49   N4    1.480589 S    
C56   H20   1.108579 S    
C25   C38   1.409260 A    
C51   N3    1.481100 S    
C42   C48   1.525435 S    
C30   C36   1.410315 A    
C41   C47   1.525856 S    
N14   O31   1.301512 A    
C14   C28   1.409509 A    
O4    Zn1   1.999166 S    
N12   O27   1.301256 A    
C4    C28   1.457808 S    
C9    N14   1.441454 S    
C24   C40   1.384063 A    
C49   C53   1.534683 S    
C55   H18   1.115307 S    
C41   C43   1.544323 S    
N11   O25   1.301237 A    
C13   N5    1.433741 S    
C11   H4    1.083153 S    
N5    O14   1.300904 A    
C12   H3    1.084128 S    
C43   C45   1.547567 S    
C41   N7    1.459361 S    
C55   C56   1.521334 S    
O6    C4    1.294847 A    
C47   N9    1.458866 S    
C10   N13   1.442334 S    
N9    O22   1.300368 A    
N11   O26   1.301161 A    
O2    C2    1.281987 A    
C50   N3    1.480316 S    
C5    C21   1.395543 A    
N10   O23   1.300021 A    
C36   C38   1.393362 A    
C39   H7    1.078368 S    
C51   H11   1.110336 S    
C40   H8    1.078377 S    
C2    C45   1.411962 S    
C53   H15   1.109130 S    
C32   C39   1.412278 A    
C46   C48   1.530647 S    
C50   H14   1.109296 S    
C45   C47   1.531545 S    
C49   H13   1.110327 S    
C56   H21   1.110636 S    
C58   H25   1.110571 S    
C44   C47   1.543510 S    
C44   C46   1.546652 S    
C43   H9    1.110448 S    
C9    C17   1.407850 A    
C23   H1    1.083469 S    
O5    C3    1.299848 A    
O7    Zn2   2.009667 S    
C10   C18   1.409718 A    
C24   H2    1.083487 S    
O7    C3    1.300086 A    
C13   C27   1.415862 A    
C42   C45   1.529028 S    
C7    C25   1.405995 A    
C29   C33   1.415283 A    
C6    N2    1.363408 A    
C8    C26   1.407490 A    
N6    O16   1.301229 A    
C14   N6    1.436680 S    
C43   C48   1.543632 S    
C49   C51   1.534475 S    
O3    Zn2   1.999168 S    
O8    C4    1.297032 A    
C52   C53   1.533774 S    
O4    C2    1.276691 A    
N3    C53   1.480293 S    
N2    C8    1.365344 A    
C51   C54   1.534477 S    
C26   C37   1.409527 A    
N8    O20   1.299959 A    
C20   C26   1.414310 A    
O1    Zn1   1.992356 S    
C11   C27   1.403721 A    
O34   C57   1.412652 S    
C57   C58   1.521241 S    
C50   C54   1.534688 S    
C37   O33   1.383872 S    
C55   H17   1.113554 S    
C12   C28   1.398984 A    
C48   N10   1.458933 S    
N13   O29   1.301636 A    
N2    C18   1.426814 S    
C29   C32   1.416110 A    
C5    O9    1.350246 S    
C30   C34   1.414994 A    
C30   C31   1.414285 A    
C20   C33   1.415298 A    
O6    Zn2   2.011606 S    
N1    C7    1.365881 A    
C10   C12   1.390725 A    
C50   C52   1.533818 S    
O3    C1    1.276590 A    
O8    Zn1   2.009670 S    
C57   H23   1.115741 S    
C7    O12   1.349401 S    
O33   C55   1.412244 S    
N7    O18   1.299899 A    
C8    O11   1.349111 S    
C41   C46   1.528849 S    
C38   O34   1.383952 S    
Zn1   N3    2.019926 S    
C42   N8    1.458920 S    
C22   C24   1.395953 A    
C19   C34   1.415516 A    
C14   C16   1.406068 A    
C15   C17   1.410308 A    
C36   H6    1.078258 S    
C6    C22   1.393980 A    
C31   C40   1.411835 A    
C16   C18   1.412364 A    
C54   H16   1.110274 S    
C32   C34   1.419779 A    
N6    O15   1.301087 A    
C19   C21   1.409934 A    
N14   O32   1.301216 A    
C3    C27   1.472992 S    
C20   C22   1.410113 A    
C9    C11   1.390254 A    
O2    Zn2   1.992354 S    
N12   O28   1.301036 A    
C52   N4    1.480972 S    
O5    Zn1   2.011601 S    
C6    O10   1.350433 S    
N8    O19   1.300321 A    
C44   H10   1.110549 S    
C29   C35   1.411011 A    
C15   N11   1.438634 S    
C35   C37   1.395070 A    
N5    O13   1.301310 A    
C23   C39   1.385556 A    
C58   H24   1.111186 S    
N13   O30   1.301003 A    
