data_mof_unit_8129.cif
_audit_creation_date              2012-12-11T14:52:29-0500
_audit_creation_method            fapswitch 2.2
_symmetry_space_group_name_H-M    P1
_symmetry_Int_Tables_number       1
_space_group_crystal_system       triclinic
_cell_length_a                    18.719004
_cell_length_b                    10.984995
_cell_length_c                    18.659946
_cell_angle_alpha                 89.690969
_cell_angle_beta                  91.500503
_cell_angle_gamma                 89.620622
_cell_volume                      3835.55116942

loop_
_atom_site_label
_atom_site_type_symbol
_atom_type_description
_atom_site_fract_x
_atom_site_fract_y
_atom_site_fract_z
_atom_type_partial_charge
C1    C     C_R   0.271098 0.045338 0.852465 0.546517
C2    C     C_R   0.697793 0.536441 0.035986 -0.194960
C3    C     C_3   0.997573 0.329953 0.072717 0.034111
C4    C     C_R   0.160231 0.784286 0.394301 0.084247
C5    C     C_R   0.185985 0.841391 0.332567 -0.072933
C6    C     C_R   0.138552 0.883301 0.278758 -0.042055
C7    C     C_R   0.064961 0.875277 0.287507 -0.079641
C8    C     C_R   0.038580 0.820520 0.348944 -0.126310
C9    C     C_R   0.085721 0.772746 0.401391 -0.031577
C10   C     C_R   0.838032 0.786375 0.606018 0.074727
C11   C     C_R   0.809789 0.840443 0.667453 -0.074665
C12   C     C_R   0.855045 0.883568 0.722151 -0.031844
C13   C     C_R   0.805397 0.042958 0.964262 -0.155734
C14   C     C_R   0.928938 0.881177 0.714469 -0.067206
C15   C     C_R   0.957894 0.830523 0.653218 -0.123803
C16   C     C_R   0.913047 0.780576 0.600148 -0.045228
C17   C     C_R   0.660261 0.284315 0.394286 0.084217
C18   C     C_R   0.686042 0.341384 0.332553 -0.072956
C19   C     C_R   0.638633 0.383291 0.278723 -0.042032
C20   C     C_R   0.565038 0.375305 0.287449 -0.079565
C21   C     C_R   0.538629 0.320596 0.348887 -0.126316
C22   C     C_R   0.585747 0.272826 0.401357 -0.031608
C23   C     C_R   0.338033 0.286377 0.606019 0.074725
C24   C     C_R   0.197776 0.036475 0.035980 -0.194900
C25   C     C_R   0.309790 0.340440 0.667455 -0.074664
C26   C     C_R   0.355046 0.383564 0.722154 -0.031860
C27   C     C_R   0.428939 0.381182 0.714469 -0.067201
C28   C     C_R   0.457894 0.330534 0.653216 -0.123799
C29   C     C_R   0.413048 0.280585 0.600146 -0.045234
C30   C     C_R   0.300807 0.532889 0.038185 -0.175856
C31   C     C_R   0.700277 0.524944 0.961898 -0.186018
C32   C     C_R   0.800813 0.032921 0.038189 -0.175818
C33   C     C_R   0.200260 0.024993 0.961891 -0.185991
C34   C     C_R   0.241113 0.580125 0.072430 -0.030762
C35   C     C_R   0.752116 0.587913 0.923493 -0.028387
C36   C     C_R   0.741105 0.080117 0.072427 -0.030758
C37   C     C_R   0.727485 0.043907 0.146182 0.549456
C38   C     C_R   0.252121 0.087925 0.923494 -0.028409
C39   C     C_R   0.185331 0.636549 0.031054 0.241065
C40   C     C_R   0.799566 0.666710 0.959919 0.250169
C41   C     C_R   0.685313 0.136502 0.031044 0.241018
C42   C     C_R   0.299595 0.166667 0.959933 0.250124
C43   C     C_R   0.184162 0.624087 0.957297 0.234030
C44   C     C_R   0.805196 0.660778 0.033953 0.241601
C45   C     C_R   0.684154 0.124037 0.957287 0.234002
C46   C     C_R   0.305219 0.160708 0.033968 0.241570
C47   C     C_R   0.247432 0.588335 0.923141 -0.011101
C48   C     C_R   0.771102 0.545320 0.852469 0.546559
C49   C     C_R   0.750511 0.602792 0.072963 -0.028219
C50   C     C_R   0.747436 0.088327 0.923139 -0.011055
C51   C     C_R   0.250512 0.102769 0.072968 -0.028203
C52   C     C_R   0.473403 0.717920 0.529040 -0.141929
C53   C     C_R   0.486770 0.718131 0.457537 -0.141554
C54   C     C_R   0.973401 0.217919 0.529039 -0.141929
C55   C     C_R   0.986769 0.218130 0.457537 -0.141554
C56   C     C_R   0.493431 0.828435 0.420329 0.027067
C57   C     C_R   0.458809 0.826804 0.564182 0.024419
C58   C     C_R   0.993431 0.328435 0.420328 0.027068
C59   C     C_R   0.227487 0.543910 0.146183 0.549468
C60   C     C_R   0.958808 0.326804 0.564181 0.024418
C61   C     C_R   0.478155 0.938783 0.454337 -0.119328
C62   C     C_R   0.459100 0.937511 0.526164 -0.118240
C63   C     C_R   0.978153 0.438783 0.454336 -0.119338
C64   C     C_R   0.959098 0.437511 0.526164 -0.118246
C65   C     C_R   0.437764 0.816657 0.861800 0.563931
C66   C     C_R   0.528186 0.822103 0.145214 0.553086
C67   C     C_R   0.937765 0.316658 0.861800 0.563917
C68   C     C_R   0.028185 0.322104 0.145216 0.553067
C69   C     C_R   0.214221 0.731299 0.515879 0.216303
C70   C     C_3   0.467268 0.709883 0.986204 -0.112476
C71   C     C_R   0.786709 0.729579 0.483534 0.214164
C72   C     C_R   0.714221 0.231297 0.515877 0.216311
C73   C     C_R   0.286710 0.229582 0.483534 0.214161
C74   C     C_R   0.211650 0.714024 0.441707 0.006583
C75   C     C_R   0.788491 0.714630 0.558007 0.006271
C76   C     C_R   0.711657 0.214026 0.441705 0.006597
C77   C     C_R   0.288493 0.214632 0.558008 0.006267
C78   C     C_R   0.257096 0.624338 0.412292 -0.028533
C79   C     C_R   0.742043 0.627771 0.587954 -0.025491
C80   C     C_R   0.757099 0.124334 0.412293 -0.028535
C81   C     C_3   0.426633 0.776927 0.045431 -0.141821
C82   C     C_R   0.242044 0.127773 0.587954 -0.025490
C83   C     C_R   0.316589 0.583576 0.451478 -0.133100
C84   C     C_R   0.679496 0.597042 0.550588 -0.122160
C85   C     C_R   0.816589 0.083567 0.451481 -0.133105
C86   C     C_R   0.179496 0.097047 0.550588 -0.122156
C87   C     C_R   0.320746 0.602811 0.524698 -0.166491
C88   C     C_R   0.673121 0.621941 0.477569 -0.157281
C89   C     C_R   0.820745 0.102806 0.524700 -0.166494
C90   C     C_R   0.173121 0.121946 0.477569 -0.157282
C91   C     C_R   0.268654 0.672802 0.558168 0.016155
C92   C     C_3   0.967298 0.209885 0.986198 -0.112467
C93   C     C_R   0.729266 0.678914 0.442203 0.019519
C94   C     C_R   0.768652 0.172798 0.558168 0.016159
C95   C     C_R   0.229267 0.178917 0.442203 0.019513
C96   C     C_R   0.259598 0.633489 0.850892 0.561030
C97   C     C_R   0.739782 0.637674 0.147526 0.559492
C98   C     C_R   0.759599 0.133487 0.850891 0.561051
C99   C     C_R   0.239783 0.137667 0.147529 0.559522
C100  C     C_R   0.268363 0.054784 0.649823 0.536379
C101  C     C_R   0.731549 0.054651 0.349900 0.539231
C102  C     C_R   0.768363 0.554784 0.649823 0.536389
C103  C     C_3   0.926644 0.276882 0.045430 -0.141813
C104  C     C_R   0.231548 0.554653 0.349899 0.539231
C105  C     C_R   0.440051 0.820057 0.639141 0.540050
C106  C     C_R   0.528275 0.823325 0.351801 0.535303
C107  C     C_R   0.940051 0.320057 0.639141 0.540051
C108  C     C_R   0.028275 0.323325 0.351801 0.535297
C109  C     C_R   0.273922 0.690617 0.635898 0.571956
C110  C     C_R   0.725422 0.692016 0.363643 0.590010
C111  C     C_R   0.773922 0.190616 0.635898 0.571952
C112  C     C_R   0.225422 0.192017 0.363643 0.590007
C113  C     C_3   0.488640 0.942773 0.024509 -0.050274
C114  C     C_R   0.305386 0.542923 0.964258 -0.155823
C115  C     C_3   0.529082 0.875096 0.965302 -0.084430
C116  C     C_3   0.988604 0.442785 0.024521 -0.050337
C117  C     C_3   0.029063 0.375156 0.965308 -0.084405
C118  C     C_3   0.416881 0.889795 0.995728 -0.115191
C119  C     C_3   0.538416 0.762902 0.014268 -0.118324
C120  C     C_3   0.916859 0.389753 0.995735 -0.115279
C121  C     C_3   0.038431 0.262957 0.014265 -0.118316
C122  C     C_3   0.458081 0.822486 0.937830 0.036462
C123  C     C_3   0.497577 0.829947 0.072714 0.034100
C124  C     C_3   0.958078 0.322491 0.937831 0.036457
Cl1   Cl    Cl    0.144905 0.817036 0.554099 -0.689415
Cl2   Cl    Cl    0.884910 0.720431 0.074092 -0.518100
Cl3   Cl    Cl    0.602573 0.157443 0.909615 -0.512558
Cl4   Cl    Cl    0.384949 0.220268 0.074122 -0.518081
Cl5   Cl    Cl    0.860308 0.801294 0.444252 -0.714188
Cl6   Cl    Cl    0.644899 0.317026 0.554095 -0.689422
Cl7   Cl    Cl    0.360309 0.301307 0.444252 -0.714128
Cl8   Cl    Cl    0.117097 0.728574 0.068271 -0.541698
Cl9   Cl    Cl    0.855886 0.769524 0.914382 -0.553608
Cl10  Cl    Cl    0.617059 0.228497 0.068250 -0.541690
Cl11  Cl    Cl    0.355950 0.269450 0.914417 -0.553531
Cl12  Cl    Cl    0.102580 0.657538 0.909637 -0.512567
Cr1   Cr    Cr6+3 0.229630 0.835900 0.747350 1.080826
Cr2   Cr    Cr6+3 0.614200 0.677120 0.250660 0.997293
Cr3   Cr    Cr6+3 0.885800 0.177120 0.749340 0.990048
Cr4   Cr    Cr6+3 0.114200 0.177120 0.250660 0.997286
Cr5   Cr    Cr6+3 0.770370 0.835900 0.252650 1.084942
Cr6   Cr    Cr6+3 0.729630 0.335900 0.747350 1.080823
Cr7   Cr    Cr6+3 0.270370 0.335900 0.252650 1.084953
Cr8   Cr    Cr6+3 0.387410 0.989850 0.750850 1.084681
Cr9   Cr    Cr6+3 0.612590 0.989850 0.249150 1.070494
Cr10  Cr    Cr6+3 0.887410 0.489850 0.750850 1.084657
Cr11  Cr    Cr6+3 0.112590 0.489850 0.249150 1.070475
Cr12  Cr    Cr6+3 0.385800 0.677120 0.749340 0.990049
H1    H     H_    0.365948 0.939457 0.985958 0.131303
H2    H     H_    0.626376 0.589973 0.448184 0.162579
H3    H     H_    0.863091 0.058295 0.555539 0.160784
H4    H     H_    0.126377 0.089979 0.448185 0.162581
H5    H     H_    0.497861 0.038021 0.041604 0.241821
H6    H     H_    0.571460 0.911145 0.930851 0.180047
H7    H     H_    0.997792 0.538038 0.041625 0.241741
H8    H     H_    0.071429 0.411250 0.930858 0.180058
H9    H     H_    0.460667 0.613802 0.969657 0.153479
H10   H     H_    0.385121 0.738524 0.080197 0.123973
H11   H     H_    0.960721 0.113802 0.969645 0.153486
H12   H     H_    0.589052 0.711371 0.022940 0.138545
H13   H     H_    0.885145 0.238442 0.080198 0.123954
H14   H     H_    0.354631 0.517407 0.939260 0.198503
H15   H     H_    0.655072 0.493068 0.064397 0.200709
H16   H     H_    0.854653 0.017481 0.939271 0.198496
H17   H     H_    0.155036 0.993144 0.064383 0.200736
H18   H     H_    0.344320 0.490364 0.068642 0.202000
H19   H     H_    0.662918 0.464481 0.935003 0.205633
H20   H     H_    0.844335 0.990435 0.068651 0.201995
H21   H     H_    0.162882 0.964579 0.934987 0.205622
H22   H     H_    0.474975 0.630943 0.556574 0.144791
H23   H     H_    0.865913 0.439380 0.985972 0.131255
H24   H     H_    0.497003 0.630682 0.433125 0.147066
H25   H     H_    0.974974 0.130942 0.556574 0.144791
H26   H     H_    0.997002 0.130681 0.433125 0.147068
H27   H     H_    0.482812 0.024870 0.426336 0.144972
H28   H     H_    0.446637 0.022155 0.552385 0.140254
H29   H     H_    0.982810 0.524871 0.426336 0.144948
H30   H     H_    0.946635 0.522154 0.552384 0.140248
H31   H     H_    0.242937 0.846895 0.324242 0.102368
H32   H     H_    0.159021 0.920377 0.229797 0.151555
H33   H     H_    0.028427 0.908920 0.245937 0.136985
H34   H     H_    0.089082 0.211469 0.022932 0.138508
H35   H     H_    0.981592 0.810717 0.354426 0.176476
H36   H     H_    0.064002 0.721418 0.445339 0.161668
H37   H     H_    0.752599 0.842478 0.674936 0.113110
H38   H     H_    0.832563 0.918080 0.770715 0.169113
H39   H     H_    0.963751 0.916374 0.756589 0.142514
H40   H     H_    0.015280 0.825612 0.648189 0.173999
H41   H     H_    0.937575 0.732570 0.556797 0.163270
H42   H     H_    0.742997 0.346851 0.324245 0.102343
H43   H     H_    0.659123 0.420328 0.229762 0.151490
H44   H     H_    0.528523 0.408940 0.245859 0.136998
H45   H     H_    0.357468 0.531442 0.425894 0.199075
H46   H     H_    0.481639 0.310821 0.354352 0.176393
H47   H     H_    0.564006 0.221528 0.445302 0.161713
H48   H     H_    0.252600 0.342471 0.674941 0.113096
H49   H     H_    0.332564 0.418071 0.770719 0.169064
H50   H     H_    0.463752 0.416381 0.756588 0.142511
H51   H     H_    0.515280 0.325629 0.648185 0.174003
H52   H     H_    0.437575 0.232583 0.556794 0.163284
H53   H     H_    0.637517 0.549126 0.577170 0.196657
H54   H     H_    0.857468 0.031430 0.425897 0.199076
H55   H     H_    0.137516 0.049135 0.577170 0.196657
H56   H     H_    0.363092 0.558300 0.555537 0.160784
O1    O     O_R   0.214270 0.709000 0.827470 -0.442769
O2    O     O_R   0.543270 0.717630 0.330160 -0.540524
O3    O     O_R   0.956730 0.217630 0.669840 -0.522416
O4    O     O_R   0.043270 0.217630 0.330160 -0.540526
O5    O     O_R   0.320620 0.625640 0.672920 -0.538976
O6    O     O_R   0.679380 0.625640 0.327080 -0.523908
O7    O     O_R   0.820620 0.125640 0.672920 -0.538981
O8    O     O_R   0.179380 0.125640 0.327080 -0.523930
O9    O     O_3   0.334280 0.834290 0.749180 -0.328813
O10   O     O_3   0.665720 0.834290 0.250820 -0.287301
O11   O     O_3   0.834280 0.334290 0.749180 -0.328815
O12   O     O_R   0.785730 0.709000 0.172530 -0.442983
O13   O     O_3   0.165720 0.334290 0.250820 -0.287299
O14   O     O_R   0.236160 0.958490 0.823130 -0.512773
O15   O     O_R   0.763840 0.958490 0.176870 -0.502460
O16   O     O_R   0.736160 0.458490 0.823130 -0.512801
O17   O     O_R   0.263840 0.458490 0.176870 -0.502490
O18   O     O_R   0.332080 0.075470 0.831280 -0.449895
O19   O     O_R   0.667920 0.075470 0.168720 -0.452161
O20   O     O_R   0.832080 0.575470 0.831280 -0.449889
O21   O     O_R   0.167920 0.575470 0.168720 -0.452145
O22   O     O_R   0.446300 0.918110 0.826620 -0.449834
O23   O     O_R   0.714270 0.209000 0.827470 -0.442783
O24   O     O_R   0.553700 0.918110 0.173380 -0.478677
O25   O     O_R   0.946300 0.418110 0.826620 -0.449872
O26   O     O_R   0.053700 0.418110 0.173380 -0.478699
O27   O     O_R   0.457110 0.716200 0.831760 -0.510739
O28   O     O_R   0.542890 0.716200 0.168240 -0.515445
O29   O     O_R   0.957110 0.216200 0.831760 -0.510745
O30   O     O_R   0.042890 0.216200 0.168240 -0.515438
O31   O     O_R   0.320980 0.624310 0.823030 -0.543012
O32   O     O_R   0.679020 0.624310 0.176970 -0.526845
O33   O     O_R   0.820980 0.124310 0.823030 -0.543007
O34   O     O_R   0.285730 0.209000 0.172530 -0.442980
O35   O     O_R   0.179020 0.124310 0.176970 -0.526849
O36   O     O_R   0.213890 0.710430 0.665540 -0.429363
O37   O     O_R   0.786110 0.710430 0.334460 -0.441623
O38   O     O_R   0.713890 0.210430 0.665540 -0.429355
O39   O     O_R   0.286110 0.210430 0.334460 -0.441610
O40   O     O_R   0.235810 0.959820 0.673020 -0.479762
O41   O     O_R   0.764190 0.959820 0.326980 -0.486745
O42   O     O_R   0.735810 0.459820 0.673020 -0.479766
O43   O     O_R   0.264190 0.459820 0.326980 -0.486737
O44   O     O_R   0.331700 0.076900 0.669350 -0.527385
O45   O     O_R   0.445950 0.919440 0.676520 -0.481025
O46   O     O_R   0.668300 0.076900 0.330650 -0.517395
O47   O     O_R   0.831700 0.576900 0.669350 -0.527380
O48   O     O_R   0.168300 0.576900 0.330650 -0.517403
O49   O     O_R   0.554050 0.919440 0.323480 -0.499298
O50   O     O_R   0.945950 0.419440 0.676520 -0.481031
O51   O     O_R   0.054050 0.419440 0.323480 -0.499304
O52   O     O_R   0.456730 0.717630 0.669840 -0.522416

loop_
_geom_bond_atom_site_label_1
_geom_bond_atom_site_label_2
_ccdc_geom_bond_type
C44   C49   A    
C84   H53   S    
C47   C114  A    
C83   C87   A    
Cr8   O45   S    
C73   Cl7   S    
C104  O48   A    
C87   C91   A    
Cr3   O33   S    
C87   H56   S    
C13   C32   A    
Cr2   O32   S    
C101  O46   A    
C61   H27   S    
C108  O4    A    
C101  O41   A    
Cr12  O9    S    
Cr5   O10   S    
Cr11  O21   S    
C7    C8    A    
C98   O33   A    
Cr1   O1    S    
C44   Cl2   S    
C26   C27   A    
C81   C123  S    
C92   H11   S    
C100  O44   A    
C5    C6    A    
C112  O8    A    
C54   H25   S    
C46   Cl4   S    
C28   C29   A    
C117  C124  S    
Cr2   O10   S    
Cr6   O11   S    
C38   C42   A    
C3    C116  S    
C92   C124  S    
C30   C114  A    
Cr8   O9    S    
Cr11  O26   S    
C53   C56   A    
C6    H32   S    
C71   Cl5   S    
C39   Cl8   S    
Cr12  O5    S    
C15   C16   A    
C66   O28   A    
C94   C111  S    
Cr10  O20   S    
C116  C117  S    
C18   C19   A    
C42   C46   A    
Cr11  O51   S    
C89   C94   A    
C26   H49   S    
C70   C81   S    
C117  C121  S    
C5    H31   S    
C116  H7    S    
C95   C112  S    
C59   O17   A    
C92   C103  S    
C54   C55   A    
C99   O34   A    
C120  C124  S    
C78   C83   A    
C96   O31   A    
C112  O39   A    
C67   O29   A    
C3    C68   S    
Cr3   O11   S    
C119  H12   S    
Cr6   O42   S    
C97   O12   A    
C102  O42   A    
Cr1   O14   S    
Cr3   O29   S    
C17   C76   S    
Cr5   O41   S    
C47   C96   S    
C79   C102  S    
C1    O14   A    
C21   H46   S    
C16   H41   S    
C4    C74   S    
Cr10  O11   S    
C100  O40   A    
C72   C76   A    
C93   C110  S    
C99   O35   A    
C104  O43   A    
C24   C51   A    
C33   H21   S    
C115  C122  S    
C21   C22   A    
Cr10  O50   S    
Cr4   O30   S    
Cr1   O40   S    
Cr7   O34   S    
Cr8   O22   S    
C36   C41   A    
C110  O6    A    
C27   H50   S    
C88   H2    S    
C109  O5    A    
C35   C48   S    
Cr4   O4    S    
Cr5   O12   S    
C45   Cl3   S    
C41   Cl10  S    
C68   O26   A    
Cr2   O2    S    
Cr9   O24   S    
Cr11  O48   S    
C103  H13   S    
C28   H51   S    
C50   C98   S    
C57   C105  S    
C30   C34   A    
C63   C64   A    
C78   C104  S    
C34   C39   A    
C84   C88   A    
Cr9   O46   S    
C90   C95   A    
C7    H33   S    
C30   H18   S    
C90   H4    S    
C86   C90   A    
C52   H22   S    
C85   C89   A    
C8    C9    A    
C54   C60   A    
Cr9   O49   S    
C57   C62   A    
C25   C26   A    
C82   C86   A    
C97   O32   A    
C49   C97   S    
C81   C118  S    
Cr2   O6    S    
Cr4   O35   S    
Cr5   O37   S    
C102  O47   A    
C107  O50   A    
C2    C31   A    
C53   H24   S    
C56   C106  S    
C83   H45   S    
C118  H1    S    
C55   H26   S    
C20   H44   S    
C80   C85   A    
Cr11  O13   S    
C2    C49   A    
Cr7   O13   S    
C51   C99   S    
C64   H30   S    
C10   C75   S    
C70   C122  S    
C113  C123  S    
C89   H3    S    
C70   C119  S    
C29   H52   S    
C12   H38   S    
C117  H8    S    
C17   C18   A    
C69   C74   A    
C56   C61   A    
Cr12  O27   S    
C65   C122  S    
C23   C77   S    
Cr7   O39   S    
Cr9   O10   S    
C60   C107  S    
C106  O49   A    
C25   H48   S    
C68   O30   A    
C1    C38   S    
C42   Cl11  S    
C71   C93   A    
C85   H54   S    
C8    H35   S    
C106  O2    A    
C31   H19   S    
C12   C14   A    
Cr12  O52   S    
C37   O19   A    
C115  C119  S    
Cr8   O44   S    
C115  H6    S    
C34   C59   S    
C31   C35   A    
C22   H47   S    
C76   C80   A    
C73   C95   A    
C52   C57   A    
C23   C29   A    
C62   H28   S    
Cr3   O3    S    
C52   C53   A    
Cr4   O8    S    
C13   H16   S    
C98   O23   A    
C48   O16   A    
C109  O36   A    
C3    C103  S    
C58   C63   A    
C88   C93   A    
C18   H42   S    
C41   C45   A    
C81   H10   S    
C40   Cl9   S    
C37   O15   A    
Cr1   O9    S    
C11   H37   S    
C107  O3    A    
C24   C33   A    
C113  H5    S    
C4    C5    A    
C2    H15   S    
Cr7   O17   S    
C61   C62   A    
C39   C43   A    
C11   C12   A    
C32   C36   A    
C120  H23   S    
C72   Cl6   S    
C6    C7    A    
Cr9   O19   S    
C119  C123  S    
C80   C101  S    
C111  O38   A    
C48   O20   A    
C15   H40   S    
Cr6   O16   S    
C17   C22   A    
C63   H29   S    
Cr10  O47   S    
C60   C64   A    
Cr12  O31   S    
Cr3   O7    S    
C70   H9    S    
C19   C20   A    
Cr2   O28   S    
C35   C40   A    
C72   C94   A    
C108  O51   A    
C9    H36   S    
Cr6   O38   S    
C92   C121  S    
Cr5   O15   S    
C65   O27   A    
C71   C75   A    
C14   H39   S    
C110  O37   A    
C91   C109  S    
C96   O1    A    
C79   C84   A    
C75   C79   A    
C77   C82   A    
Cr1   O36   S    
C118  C122  S    
C46   C51   A    
C105  O45   A    
C13   C50   A    
C86   H55   S    
C103  C120  S    
Cr7   O43   S    
C65   O22   A    
C24   H17   S    
C58   C108  S    
C23   C25   A    
C43   Cl12  S    
C59   O21   A    
C111  O7    A    
Cr6   O23   S    
C114  H14   S    
C10   C11   A    
C82   C100  S    
C69   Cl1   S    
C113  C118  S    
C66   C123  S    
C116  C120  S    
Cr4   O13   S    
C40   C44   A    
C20   C21   A    
C67   O25   A    
C36   C37   S    
C74   C78   A    
C55   C58   A    
C66   O24   A    
C27   C28   A    
C32   H20   S    
C73   C77   A    
C14   C15   A    
C1    O18   A    
C33   C38   A    
C10   C16   A    
C45   C50   A    
C105  O52   A    
C4    C9    A    
C69   C91   A    
C43   C47   A    
Cr8   O18   S    
Cr10  O25   S    
C3    C121  S    
C19   H43   S    
C121  H34   S    
C113  C115  S    
C67   C124  S    
