data_mof_unit_35012.cif
_audit_creation_date              2012-12-10T16:54:02-0500
_audit_creation_method            fapswitch 2.2
_symmetry_space_group_name_H-M    P1
_symmetry_Int_Tables_number       1
_space_group_crystal_system       triclinic
_cell_length_a                    9.684604
_cell_length_b                    10.927609
_cell_length_c                    13.395341
_cell_angle_alpha                 90.161791
_cell_angle_beta                  72.551689
_cell_angle_gamma                 90.112251
_cell_volume                      1352.38891223

loop_
_atom_site_label
_atom_site_type_symbol
_atom_type_description
_atom_site_fract_x
_atom_site_fract_y
_atom_site_fract_z
_atom_type_partial_charge
C1    C     C_R   0.501287 0.734576 0.497132 0.837106
C2    C     C_R   0.428227 0.467757 0.982239 -0.104742
C3    C     C_R   0.467420 0.445751 0.872866 0.021868
C4    C     C_R   0.536722 0.454130 0.033462 0.103530
C5    C     C_R   0.669672 0.395925 0.980929 0.146246
C6    C     C_R   0.695382 0.355701 0.878305 -0.246209
C7    C     C_R   0.596398 0.380841 0.824697 -0.154833
C8    C     C_R   0.519859 0.501469 0.133713 -0.213897
C9    C     C_R   0.749543 0.416253 0.135287 -0.129080
C10   C     C_R   0.374529 0.486307 0.815532 -0.181347
C11   C     C_2   0.611244 0.066854 0.492960 -0.200784
C12   C     C_R   0.422507 0.493663 0.700268 0.830012
C13   C     C_2   0.489333 0.134289 0.523513 0.116681
C14   C     C_2   0.611696 0.933451 0.501722 -0.159563
C15   C     C_2   0.503853 0.866146 0.487213 -0.279550
C16   C     C_2   0.051467 0.565732 0.564304 -0.065161
C17   C     C_2   0.896549 0.568388 0.562274 -0.059570
C18   C     C_R   0.497947 0.265370 0.504499 0.766424
C19   C     C_R   0.577407 0.497427 0.299873 0.799659
C20   C     C_R   0.775195 0.378026 0.032001 -0.158828
C21   C     C_R   0.620501 0.476643 0.186815 -0.102544
C22   C     C_R   0.235382 0.528321 0.869294 -0.372768
C23   C     C_R   0.187962 0.532690 0.978071 0.463396
C24   C     C_R   0.281181 0.498677 0.035405 0.381008
Cu1   Cu    Cu3+1 0.361370 0.499980 0.499980 0.943537
Cu2   Cu    Cu3+1 0.638630 0.500020 0.500020 0.935156
H1    H     H_    0.828412 0.395767 0.175553 0.164441
H2    H     H_    0.705240 0.890512 0.515717 0.162118
H3    H     H_    0.415441 0.907881 0.465492 0.177657
H4    H     H_    0.079114 0.622424 0.622137 0.148280
H5    H     H_    0.129042 0.449772 0.444295 0.196136
H6    H     H_    0.822865 0.630043 0.616316 0.152995
H7    H     H_    0.913885 0.440212 0.451701 0.189310
H8    H     H_    0.794056 0.307100 0.838365 0.140715
H9    H     H_    0.876142 0.332205 0.992775 0.138374
H10   H     H_    0.429422 0.559238 0.172278 0.207858
H11   H     H_    0.161759 0.557391 0.827005 0.191070
H12   H     H_    0.620742 0.344791 0.746205 0.168659
H13   H     H_    0.715530 0.110547 0.458523 0.134705
N1    N     N_2   0.152660 0.501340 0.501130 -0.276948
N2    N     N_2   0.846520 0.501370 0.501160 -0.279699
O1    O     O_R   0.382960 0.678040 0.499980 -0.573137
O2    O     O_R   0.617100 0.678080 0.500020 -0.570610
O3    O     O_R   0.325800 0.499940 0.650950 -0.575969
O4    O     O_R   0.559930 0.499980 0.650990 -0.581124
O5    O     O_R   0.382900 0.321920 0.499980 -0.582325
O6    O     O_R   0.617040 0.321960 0.500020 -0.597848
O7    O     O_R   0.440070 0.500020 0.349010 -0.567224
O8    O     O_R   0.674200 0.500060 0.349050 -0.570114
N3    N     N_2   0.353754 0.082801 0.582493 -0.427495
H14   H     H_    0.264889 0.123254 0.569053 0.257710
C25   C     C_3   0.336705 0.070231 0.693033 -0.683035
H15   H     H_    0.231841 0.024772 0.732122 0.217655
H16   H     H_    0.337779 0.161804 0.729230 0.211890
H17   H     H_    0.424861 0.013097 0.705450 0.244505
O9    O     O_3   0.223263 0.490888 0.142908 -0.577303
C26   C     C_3   0.185148 0.368016 0.169582 -0.288445
H18   H     H_    0.282183 0.307787 0.148960 0.154954
H19   H     H_    0.104486 0.334116 0.131719 0.156654
H20   H     H_    0.134502 0.362456 0.255489 0.169097
O10   O     O_3   0.045799 0.562395 0.029346 -0.560987
C27   C     C_3   0.035710 0.690442 0.041683 -0.283652
H21   H     H_    0.064856 0.737569 0.964571 0.138043
H22   H     H_    0.104444 0.724441 0.089293 0.169867
H23   H     H_    0.921855 0.714267 0.084082 0.187469

loop_
_geom_bond_atom_site_label_1
_geom_bond_atom_site_label_2
_ccdc_geom_bond_type
Cu1   O1    S    
C2    C4    A    
C23   C24   A    
C6    C7    A    
C1    C15   S    
C24   O9    S    
C1    O2    A    
C19   O8    A    
C9    C20   A    
N3    C25   S    
C27   H23   S    
C25   H17   S    
C4    C8    A    
H7    N2    S    
C18   O6    A    
C14   C15   D    
N3    H14   S    
Cu1   Cu2   S    
C12   O3    A    
C3    C10   A    
C10   C22   A    
C11   H13   S    
C11   C13   D    
Cu1   O7    S    
C9    C21   A    
C26   H18   S    
C27   H21   S    
C10   C12   S    
Cu2   O6    S    
C16   N1    D    
C12   O4    A    
C5    C6    A    
C18   O5    A    
Cu1   O3    S    
C19   C21   S    
C7    H12   S    
C25   H16   S    
Cu2   O2    S    
C15   H3    S    
C3    C7    A    
C2    C3    A    
Cu1   N1    S    
C2    C24   A    
O10   C27   S    
C11   C14   S    
C17   N2    D    
C26   H19   S    
O9    C26   S    
C16   H4    S    
C13   N3    S    
C1    O1    A    
C23   O10   S    
C25   H15   S    
C9    H1    S    
C13   C18   S    
C8    H10   S    
Cu2   O8    S    
C5    C20   A    
C17   H6    S    
C22   C23   A    
C16   C17   S    
C26   H20   S    
C27   H22   S    
Cu2   O4    S    
C14   H2    S    
H5    N1    S    
C19   O7    A    
C22   H11   S    
Cu1   O5    S    
C20   H9    S    
C6    H8    S    
Cu2   N2    S    
C4    C5    A    
C8    C21   A    
