data_mof_unit_8817.cif
_audit_creation_date              2012-12-11T15:37:06-0500
_audit_creation_method            fapswitch 2.2
_symmetry_space_group_name_H-M    P1
_symmetry_Int_Tables_number       1
_space_group_crystal_system       triclinic
_cell_length_a                    8.398842
_cell_length_b                    17.278637
_cell_length_c                    18.935936
_cell_angle_alpha                 97.23874
_cell_angle_beta                  95.028152
_cell_angle_gamma                 97.364237
_cell_volume                      2688.51647752

loop_
_atom_site_label
_atom_site_type_symbol
_atom_type_description
_atom_site_fract_x
_atom_site_fract_y
_atom_site_fract_z
_atom_type_partial_charge
Ba1   Ba    Ba6+2 0.162080 0.538580 0.468810 1.707641
Ba2   Ba    Ba6+2 0.648090 0.461410 0.531130 1.659190
C1    C     C_3   0.361727 0.870073 0.278967 -0.246467
C2    C     C_3   0.672604 0.768547 0.437001 -0.038587
C3    C     C_2   0.733570 0.855821 0.450403 -0.089247
C4    C     C_3   0.860732 0.739850 0.254929 0.268888
C5    C     C_2   0.872986 0.884352 0.492101 -0.023089
C6    C     C_2   0.958258 0.827949 0.530448 -0.091974
C7    C     C_1   0.893175 0.752941 0.525369 0.059345
C8    C     C_R   0.098573 0.142678 0.543266 -0.085073
C9    C     C_R   0.164894 0.222337 0.552095 -0.044869
C10   C     C_R   0.925730 0.250850 0.481036 0.038971
C11   C     C_R   0.863099 0.170432 0.472065 -0.108449
C12   C     C_3   0.406182 0.797392 0.311361 0.349206
C13   C     C_R   0.945718 0.115691 0.504823 0.061031
C14   C     C_2   0.950673 0.967663 0.490793 -0.100615
C15   C     C_2   0.868350 0.031380 0.503010 -0.042375
C16   C     C_3   0.844609 0.754191 0.175404 -0.170541
C17   C     C_R   0.074259 0.276638 0.523153 -0.247290
C18   C     C_R   0.632370 0.515287 0.297826 -0.222088
C19   C     C_R   0.466044 0.491015 0.277709 0.139358
C20   C     C_R   0.403592 0.491785 0.206848 -0.057375
C21   C     C_R   0.503035 0.519646 0.156772 0.009860
C22   C     C_R   0.664098 0.552622 0.180154 -0.125482
C23   C     C_3   0.585245 0.709731 0.732628 0.364278
C24   C     C_R   0.727059 0.553398 0.251398 0.006091
C25   C     C_R   0.472695 0.569110 0.037427 -0.052226
C26   C     C_R   0.416724 0.557313 0.964588 -0.058016
C27   C     C_R   0.329894 0.484704 0.931297 -0.003967
C28   C     C_3   0.665513 0.300040 0.299918 0.248268
C29   C     C_R   0.297924 0.423341 0.973865 -0.034510
C30   C     C_R   0.352595 0.436908 0.047442 -0.069872
C31   C     C_R   0.440857 0.509099 0.079628 0.023528
C32   C     C_R   0.117829 0.444153 0.824475 -0.142928
C33   C     C_R   0.072185 0.435343 0.750546 0.010930
C34   C     C_3   0.527827 0.787821 0.764024 -0.219604
C35   C     C_R   0.338533 0.497984 0.732039 0.046053
C36   C     C_R   0.386810 0.502295 0.805402 -0.125995
C37   C     C_R   0.277677 0.475392 0.852591 -0.019718
C38   C     C_R   0.183718 0.461075 0.704605 -0.260842
C39   C     C_3   0.623279 0.222257 0.248951 -0.242479
C40   C     C_3   0.047009 0.627767 0.687878 0.322415
C41   C     C_3   0.093128 0.647475 0.768409 -0.363076
C42   C     C_3   0.202785 0.289128 0.334091 0.240956
C43   C     C_3   0.129806 0.223834 0.271359 -0.109891
C44   C     C_2   0.350212 0.724226 0.258844 0.501284
C45   C     C_3   0.839430 0.241596 0.669702 0.264367
C46   C     C_3   0.526037 0.232956 0.179611 -0.418430
C47   C     C_3   0.286821 0.252852 0.393810 -0.305679
C48   C     C_2   0.048655 0.260178 0.212068 0.544816
C49   C     C_3   0.014212 0.156468 0.292885 -0.515299
C50   C     C_3   0.670716 0.677628 0.796178 -0.374739
C51   C     C_3   0.700034 0.727620 0.676795 -0.310410
C52   C     C_2   0.423943 0.822347 0.710608 0.621259
C53   C     C_3   0.439568 0.947209 0.324407 -0.321209
C54   C     C_2   0.982250 0.811711 0.158554 0.535786
C55   C     C_2   0.704009 0.107410 0.688342 0.461990
C56   C     C_3   0.859943 0.161235 0.693065 -0.245301
C57   C     C_2   0.298416 0.137082 0.701346 0.447324
C58   C     C_3   0.254074 0.278990 0.738394 -0.325222
C59   C     C_3   0.415080 0.187352 0.855379 -0.379529
C60   C     C_2   0.888974 0.816513 0.304783 0.470695
C61   C     C_2   0.700319 0.018548 0.523552 0.413961
C62   C     C_2   0.114606 0.974631 0.465873 0.566127
C63   C     C_2   0.216021 0.343584 0.942743 0.491607
C64   C     C_3   0.715705 0.490540 0.363086 -0.243053
C65   C     C_3   0.683357 0.781674 0.153368 -0.534719
C66   C     C_3   0.376827 0.221510 0.724259 0.317358
C67   C     C_3   0.489694 0.226428 0.795277 -0.180786
C68   C     C_2   0.750347 0.724498 0.490877 -0.197303
H1    H     H_    0.553473 0.177753 0.276066 0.091476
H2    H     H_    0.230679 0.195685 0.249764 0.127314
H3    H     H_    0.539699 0.804403 0.319502 -0.112493
H4    H     H_    0.401992 0.869455 0.224510 0.074046
H5    H     H_    0.457963 0.777116 0.810004 0.101720
H6    H     H_    0.633532 0.832844 0.785311 0.049376
H7    H     H_    0.740537 0.235682 0.625927 0.114887
H8    H     H_    0.949764 0.262556 0.646615 -0.042745
H9    H     H_    0.936753 0.131301 0.657137 0.067635
H10   H     H_    0.920765 0.169291 0.748497 0.177721
H11   H     H_    0.535279 0.289181 0.816236 0.128791
H12   H     H_    0.733794 0.198753 0.234076 0.131378
H13   H     H_    0.598765 0.199376 0.784820 0.165559
H14   H     H_    0.071565 0.848967 0.563511 0.086057
H15   H     H_    0.166520 0.101158 0.565564 0.058667
H16   H     H_    0.674711 0.894012 0.418787 0.051414
H17   H     H_    0.750435 0.150710 0.438630 0.122937
H18   H     H_    0.684143 0.669739 0.501746 0.048407
H19   H     H_    0.125053 0.338100 0.528725 0.080062
H20   H     H_    0.508622 0.528051 0.826044 0.069599
H21   H     H_    0.744717 0.708045 0.266944 -0.054291
H22   H     H_    0.441191 0.605601 0.934005 0.064974
H23   H     H_    0.142097 0.599119 0.662706 0.028599
H24   H     H_    0.539829 0.625498 0.060908 0.072633
H25   H     H_    0.278832 0.467290 0.189919 0.082511
H26   H     H_    0.331756 0.389714 0.079647 0.124734
H27   H     H_    0.029135 0.426670 0.859730 0.073608
H28   H     H_    0.742207 0.573788 0.142341 0.053320
H29   H     H_    0.146768 0.456862 0.647892 0.052512
H30   H     H_    0.847114 0.697239 0.141561 0.127605
H31   H     H_    0.568811 0.305664 0.333895 0.094309
H32   H     H_    0.672450 0.349786 0.267974 0.013118
H33   H     H_    0.266149 0.725217 0.212209 0.050752
H34   H     H_    0.932192 0.586784 0.678213 0.036756
H35   H     H_    0.422893 0.264956 0.190902 0.173169
H36   H     H_    0.604324 0.267287 0.146809 0.137724
H37   H     H_    0.479587 0.174472 0.148279 0.161320
H38   H     H_    0.338078 0.300270 0.437821 0.141957
H39   H     H_    0.201234 0.209599 0.414437 0.083353
H40   H     H_    0.383831 0.220633 0.374217 0.121485
H41   H     H_    0.958535 0.298372 0.223109 0.013872
H42   H     H_    0.083060 0.117226 0.321765 0.181756
H43   H     H_    0.926906 0.178875 0.327834 0.136723
H44   H     H_    0.947550 0.119209 0.244565 0.142231
H45   H     H_    0.018768 0.690570 0.791954 0.134782
H46   H     H_    0.582612 0.661427 0.834000 0.080105
H47   H     H_    0.730845 0.626134 0.779245 0.114992
H48   H     H_    0.765518 0.723749 0.826083 0.095718
H49   H     H_    0.735534 0.672158 0.652278 0.110566
H50   H     H_    0.639706 0.753196 0.632602 0.052285
H51   H     H_    0.807611 0.769594 0.701456 0.111079
H52   H     H_    0.474048 0.844191 0.664854 -0.007142
H53   H     H_    0.392075 0.997511 0.302715 0.138070
H54   H     H_    0.411985 0.948117 0.380749 0.188321
H55   H     H_    0.572402 0.954817 0.322717 0.099142
H56   H     H_    0.221634 0.673560 0.780102 0.144688
H57   H     H_    0.997626 0.872931 0.182770 -0.018423
H58   H     H_    0.613017 0.105571 0.643969 0.047319
H59   H     H_    0.346518 0.100198 0.660270 0.007880
H60   H     H_    0.193068 0.292296 0.688842 0.033769
H61   H     H_    0.161396 0.256041 0.771422 0.103408
H62   H     H_    0.317532 0.336014 0.766549 0.101277
H63   H     H_    0.405654 0.122252 0.843386 0.192929
H64   H     H_    0.494037 0.206424 0.906401 0.137395
H65   H     H_    0.293805 0.203444 0.862912 0.167008
H66   H     H_    0.806842 0.859618 0.300503 -0.064239
H67   H     H_    0.073152 0.593884 0.794611 0.049653
H68   H     H_    0.660823 0.968511 0.550172 0.018382
H69   H     H_    0.192377 0.930705 0.475552 0.040517
H70   H     H_    0.196202 0.326679 0.885584 -0.029648
H71   H     H_    0.836913 0.475833 0.352944 0.136863
H72   H     H_    0.718195 0.536006 0.410191 0.139385
H73   H     H_    0.658952 0.434149 0.374937 0.090376
H74   H     H_    0.581636 0.737909 0.162850 0.140141
H75   H     H_    0.672993 0.839772 0.183737 0.118871
H76   H     H_    0.672658 0.786998 0.095330 0.163650
H77   H     H_    0.108504 0.321673 0.355543 0.072159
H78   H     H_    0.228989 0.868705 0.273679 0.158129
O1    O     O_2   0.166667 0.691630 0.546720 -0.411802
O2    O     O_2   0.738738 0.438096 0.745325 -0.474645
O3    O     O_3   0.811721 0.294857 0.728590 -0.587902
O4    O     O_3   0.893830 0.593690 0.541700 -0.522823
O5    O     O_3   0.426330 0.460710 0.414310 -0.490090
O6    O     O_2   0.638540 0.536570 0.671920 -0.483938
O7    O     O_3   0.446922 0.659035 0.698583 -0.628456
O8    O     O_2   0.489073 0.219031 0.533426 -0.440770
O9    O     O_3   0.477939 0.245372 0.672357 -0.607327
O10   O     O_3   0.390350 0.644650 0.417800 -0.427713
O11   O     O_2   0.402035 0.774527 0.510257 -0.485052
O12   O     O_3   0.320573 0.338322 0.306584 -0.682572
O13   O     O_3   0.029307 0.697729 0.660121 -0.597920
O14   O     O_3   0.332272 0.792243 0.375381 -0.542242
O15   O     O_2   0.171750 0.463380 0.328050 -0.462933
O16   O     O_3   0.965290 0.605410 0.380210 -0.470361
O17   O     O_2   0.059820 0.555701 0.253712 -0.451939
O18   O     O_2   0.399195 0.662553 0.268244 -0.615829
O19   O     O_2   0.085893 0.248193 0.151165 -0.553497
O20   O     O_2   0.283443 0.828032 0.719336 -0.546078
O21   O     O_2   0.076045 0.790311 0.116870 -0.582528
O22   O     O_2   0.679777 0.064093 0.733627 -0.564911
O23   O     O_3   0.993258 0.698560 0.266975 -0.572727
O24   O     O_2   0.188256 0.107532 0.731545 -0.595123
O25   O     O_2   0.004200 0.831080 0.350585 -0.562414
O26   O     O_2   0.603336 0.063041 0.510603 -0.582303
O27   O     O_2   0.160600 0.025972 0.430544 -0.594785
O28   O     O_2   0.170457 0.295071 0.980964 -0.535533
O29   O     O_2   0.643630 0.308330 0.453260 -0.486094
O30   O     O_3   0.916470 0.406310 0.458240 -0.487808
O31   O     O_3   0.419940 0.355340 0.582140 -0.453487
O32   O     O_3   0.817140 0.304281 0.338999 -0.679275
O33   O     O_3   0.383960 0.539280 0.585630 -0.442915
O34   O     O_3   0.845010 0.394580 0.619730 -0.478509
P1    P     P_3+3 0.992230 0.679190 0.566750 1.008773
P2    P     P_3+3 0.339610 0.439630 0.337240 0.981018
P3    P     P_3+3 0.933549 0.603019 0.286385 1.009442
P4    P     P_3+3 0.818060 0.320800 0.433200 0.937708
P5    P     P_3+3 0.866354 0.392006 0.712005 0.984572
P6    P     P_3+3 0.449284 0.746739 0.435035 1.035580
P7    P     P_3+3 0.460398 0.557591 0.676078 0.967633
P8    P     P_3+3 0.381388 0.255035 0.587379 0.957368

loop_
_geom_bond_atom_site_label_1
_geom_bond_atom_site_label_2
_ccdc_geom_bond_type
C42   C47   S    
Ba1   O10   S    
C19   P2    S    
C35   P7    S    
C8    H15   S    
O13   P1    S    
C49   H42   S    
C54   O21   D    
C23   O7    S    
C40   H23   S    
C20   H25   S    
C68   H18   S    
C32   H27   S    
C38   H29   S    
C2    C68   S    
Ba1   P1    S    
C40   O13   S    
C59   H63   S    
C5    C6    S    
C12   C44   S    
C64   H71   S    
C25   C31   A    
O3    P5    S    
C9    C17   A    
C49   H43   S    
C67   H13   S    
C18   C64   S    
C26   C27   A    
C23   C51   S    
C32   C33   A    
C35   C38   A    
C8    C13   A    
C36   C37   A    
C24   P3    S    
C52   O20   D    
C46   H37   S    
C43   C49   S    
C4    H21   S    
C42   H77   S    
C58   H61   S    
Ba1   O4    S    
C13   C15   S    
Ba1   Ba2   S    
Ba2   O34   S    
C54   H57   S    
C60   H66   S    
C1    H4    S    
O9    P8    S    
C34   H6    S    
C41   H45   S    
C63   H70   S    
O33   P7    S    
C46   H36   S    
C53   H55   S    
Ba1   O16   S    
C6    C7    D    
C21   C31   S    
C65   H75   S    
C21   C22   A    
C28   C39   S    
Ba1   O1    S    
Ba2   O29   S    
C17   H19   S    
O7    P7    S    
C16   C54   S    
C39   H1    S    
C50   H47   S    
C52   H52   S    
C1    H78   S    
Ba2   O6    S    
C19   C20   A    
C43   H2    S    
C11   H17   S    
C16   H30   S    
C55   H58   S    
C65   H74   S    
C41   H56   S    
Ba1   P2    S    
C59   H64   S    
C47   H38   S    
C4    O23   S    
C50   H46   S    
Ba2   O4    S    
C4    C16   S    
C53   H53   S    
C51   H50   S    
C49   H44   S    
O23   P3    S    
C32   C37   A    
C12   H3    S    
C67   H11   S    
C7    C68   D    
O16   P3    S    
C58   H60   S    
O2    P5    D    
C3    C5    D    
Ba1   O33   S    
C66   C67   S    
C64   H73   S    
C16   C65   S    
C60   O25   D    
O17   P3    D    
O29   P4    D    
C40   H34   S    
O4    P1    S    
Ba2   O33   S    
O11   P6    D    
C12   O14   S    
Ba2   P4    S    
C35   C36   A    
C7    P1    S    
C34   H5    S    
C57   C66   S    
Ba1   O30   S    
C46   H35   S    
O5    P2    S    
C10   P4    S    
C27   C37   S    
C65   H76   S    
C26   H22   S    
C10   C11   A    
C62   O27   D    
Ba1   O5    S    
Ba1   O15   S    
C1    C12   S    
O32   P4    S    
C28   H32   S    
C3    H16   S    
C56   H9    S    
C5    C14   S    
C30   H26   S    
O6    P7    D    
C45   O3    S    
Ba2   O5    S    
C11   C13   A    
C63   O28   D    
C42   O12   S    
C61   H68   S    
C22   H28   S    
C40   C41   S    
C45   H7    S    
C66   O9    S    
C25   C26   A    
C42   C43   S    
C59   H65   S    
C61   O26   D    
C47   H39   S    
C55   O22   D    
C59   C67   S    
C29   C63   S    
C53   H54   S    
C57   H59   S    
C58   H62   S    
C44   O18   D    
O15   P2    D    
C6    H14   S    
C29   C30   A    
C22   C24   A    
C2    C3    S    
O10   P6    S    
C51   H49   S    
C64   H72   S    
C56   H10   S    
C14   C62   S    
C44   H33   S    
C36   H20   S    
C1    C53   S    
C9    P8    S    
C30   C31   A    
C4    C60   S    
C33   C38   A    
C23   C50   S    
C27   C29   A    
C51   H51   S    
C15   C61   S    
C45   C56   S    
O14   P6    S    
C2    P6    S    
C55   C56   S    
C14   C15   D    
O31   P8    S    
C18   C24   A    
C43   C48   S    
C39   H12   S    
C10   C17   A    
C48   H41   S    
C39   C46   S    
C28   H31   S    
C41   H67   S    
O34   P5    S    
C34   C52   S    
C8    C9    A    
C23   C34   S    
O30   P4    S    
C18   C19   A    
C58   C66   S    
C33   P5    S    
Ba2   O31   S    
C48   O19   D    
O1    P1    D    
C28   O32   S    
C20   C21   A    
C25   H24   S    
Ba2   O30   S    
C45   H8    S    
O12   P2    S    
C57   O24   D    
C50   H48   S    
C47   H40   S    
C62   H69   S    
O8    P8    D    
