data_mof_unit_51638.cif
_audit_creation_date              2013-03-05T15:54:36-0500
_audit_creation_method            fapswitch 2.2
_symmetry_space_group_name_H-M    P1
_symmetry_Int_Tables_number       1
_space_group_crystal_system       triclinic
_cell_length_a                    17.464812
_cell_length_b                    24.278632
_cell_length_c                    14.921622
_cell_angle_alpha                 90.178789
_cell_angle_beta                  125.291765
_cell_angle_gamma                 89.93357
_cell_volume                      5164.276452

loop_
_atom_site_label
_atom_site_type_symbol
_atom_site_description
_atom_site_fract_x
_atom_site_fract_y
_atom_site_fract_z
_atom_type_partial_charge
C1    C     C_R   0.853800 0.653148 0.908826 -0.153053
C2    C     C_R   0.146821 0.652937 0.091816 -0.134147
C3    C     C_R   0.353787 0.153090 0.909218 -0.127957
C4    C     C_R   0.691230 0.122214 0.092179 -0.104139
H1    H     H_    0.823277 0.668620 0.827473 0.175713
H2    H     H_    0.182310 0.667598 0.174345 0.171969
H3    H     H_    0.319302 0.168067 0.827308 0.177356
H4    H     H_    0.750265 0.124662 0.176519 0.124020
N1    N     N_R   0.892620 0.603790 0.941770 -0.051400
N2    N     N_R   0.107380 0.603790 0.058230 -0.040470
N3    N     N_R   0.392620 0.103790 0.941770 -0.046171
N4    N     N_R   0.607380 0.103790 0.058230 -0.030287
C5    C     C_R   0.940941 0.351012 0.094321 -0.135390
C6    C     C_R   0.088516 0.368047 0.906235 -0.147039
C7    C     C_R   0.412133 0.867688 0.093820 -0.142553
C8    C     C_R   0.594225 0.876530 0.904504 -0.142880
H5    H     H_    0.986737 0.337295 0.178523 0.101872
H6    H     H_    0.056141 0.356802 0.822569 0.102082
H7    H     H_    0.444966 0.856329 0.177427 0.101852
H8    H     H_    0.567372 0.873532 0.819021 0.111783
N5    N     N_R   0.952270 0.397640 0.058010 -0.042761
N6    N     N_R   0.047730 0.397640 0.941990 -0.041942
N7    N     N_R   0.452270 0.897640 0.058010 -0.042229
N8    N     N_R   0.547730 0.897640 0.941990 -0.043710
C9    C     C_R   0.041592 0.547266 0.299441 -0.078266
C10   C     C_R   0.017028 0.547821 0.750401 -0.045868
C11   C     C_R   0.483617 0.047901 0.250587 -0.084270
C12   C     C_R   0.455057 0.046997 0.698863 -0.086323
H9    H     H_    0.056271 0.589715 0.324802 0.159593
H10   H     H_    0.033493 0.590362 0.749452 0.097701
H11   H     H_    0.467360 0.090453 0.252167 0.104582
H12   H     H_    0.438888 0.089238 0.673045 0.160796
N9    N     N_R   0.026310 0.529110 0.206760 -0.042676
N10   N     N_R   0.973690 0.529110 0.793240 -0.030863
N11   N     N_R   0.526310 0.029110 0.206760 -0.033167
N12   N     N_R   0.473690 0.029110 0.793240 -0.041403
C13   C     C_R   0.738224 0.453907 0.705951 -0.162523
C14   C     C_R   0.258287 0.454759 0.300235 -0.220931
C15   C     C_R   0.240569 0.954322 0.700973 -0.213299
C16   C     C_R   0.756992 0.954944 0.302120 -0.207680
H13   H     H_    0.719111 0.411040 0.685447 0.115777
H14   H     H_    0.276457 0.412243 0.324869 0.120793
H15   H     H_    0.222604 0.911684 0.676851 0.120180
H16   H     H_    0.773940 0.912327 0.326655 0.121704
N13   N     N_R   0.818570 0.472310 0.793020 -0.062423
N14   N     N_R   0.181430 0.472310 0.206980 -0.057623
N15   N     N_R   0.318570 0.972310 0.793020 -0.058485
N16   N     N_R   0.681430 0.972310 0.206980 -0.061884
C17   C     C_R   0.045226 0.455513 0.302944 -0.128097
C18   C     C_R   0.005477 0.456426 0.734129 -0.117324
C19   C     C_R   0.494892 0.956500 0.266107 -0.126131
C20   C     C_R   0.450942 0.955646 0.694766 -0.144464
H17   H     H_    0.063345 0.413606 0.332074 0.091258
H18   H     H_    0.000581 0.415809 0.702429 0.089668
H19   H     H_    0.499612 0.915891 0.297299 0.090895
H20   H     H_    0.430721 0.913960 0.664394 0.092349
N17   N     N_R   0.026930 0.472300 0.207330 -0.045909
N18   N     N_R   0.973070 0.472300 0.792670 -0.043792
N19   N     N_R   0.526930 0.972300 0.207330 -0.045034
N20   N     N_R   0.473070 0.972300 0.792670 -0.045043
C21   C     C_R   0.741880 0.546006 0.697944 0.300018
C22   C     C_R   0.252197 0.545811 0.307284 0.287933
C23   C     C_R   0.245558 0.045337 0.693789 0.286335
C24   C     C_R   0.752271 0.045887 0.306777 0.273248
N21   N     N_R   0.817960 0.529130 0.792460 -0.087797
N22   N     N_R   0.182040 0.529130 0.207540 -0.081474
N23   N     N_R   0.317960 0.029130 0.792460 -0.082329
N24   N     N_R   0.682040 0.029130 0.207540 -0.085446
C25   C     C_R   0.848618 0.349649 0.910807 -0.133288
C26   C     C_R   0.184745 0.371322 0.089524 -0.127114
C27   C     C_R   0.315426 0.870986 0.910639 -0.127130
C28   C     C_R   0.687361 0.874780 0.088425 -0.124536
H21   H     H_    0.807978 0.334745 0.827060 0.093720
H22   H     H_    0.243602 0.365561 0.173696 0.094868
H23   H     H_    0.256372 0.864982 0.826601 0.094833
H24   H     H_    0.746230 0.868338 0.172435 0.096827
N25   N     N_R   0.894850 0.397640 0.943830 -0.041992
N26   N     N_R   0.105150 0.397640 0.056170 -0.039766
N27   N     N_R   0.394850 0.897640 0.943830 -0.041008
N28   N     N_R   0.605150 0.897640 0.056170 -0.041870
C29   C     C_R   0.939897 0.652284 0.090911 -0.110357
C30   C     C_R   0.057589 0.653226 0.910339 -0.155640
C31   C     C_R   0.442407 0.153057 0.090585 -0.125023
C32   C     C_R   0.597327 0.127216 0.908772 -0.101816
H25   H     H_    0.981408 0.664485 0.175898 0.142291
H26   H     H_    0.013128 0.666412 0.826282 0.137460
H27   H     H_    0.486629 0.165939 0.174954 0.150803
H28   H     H_    0.567016 0.137284 0.824419 0.101261
N29   N     N_R   0.950040 0.603780 0.055950 -0.041973
N30   N     N_R   0.049960 0.603780 0.944050 -0.050358
N31   N     N_R   0.450040 0.103780 0.055950 -0.046156
N32   N     N_R   0.549960 0.103780 0.944050 -0.039630
C33   C     C_R   0.881499 0.684892 0.999567 0.049173
C34   C     C_R   0.116834 0.685340 0.002039 0.064760
C35   C     C_R   0.383610 0.185368 0.999557 0.044730
C36   C     C_R   0.687583 0.138131 0.001003 0.023581
C37   C     C_R   0.877076 0.319819 0.004138 0.084131
C38   C     C_R   0.176697 0.353925 0.995830 0.092056
C39   C     C_R   0.324010 0.853328 0.004441 0.089008
C40   C     C_R   0.682057 0.861543 0.994134 0.085456
C41   C     C_R   0.056622 0.502132 0.363393 0.045811
C42   C     C_R   0.039304 0.502915 0.713638 0.043451
C43   C     C_R   0.461351 0.002997 0.287186 0.046485
C44   C     C_R   0.438789 0.002007 0.634105 0.053737
C45   C     C_R   0.688815 0.499526 0.646547 -0.039691
C46   C     C_R   0.304843 0.500430 0.362325 0.004393
C47   C     C_R   0.192171 0.999577 0.638999 0.001748
C48   C     C_R   0.804386 0.000414 0.365551 0.000675
Ni1   Ni    Ni4+2 0.934160 0.565860 0.869070 0.265612
Ni2   Ni    Ni4+2 0.065840 0.565860 0.130930 0.266154
Ni3   Ni    Ni4+2 0.434160 0.065860 0.869070 0.274469
Ni4   Ni    Ni4+2 0.565840 0.065860 0.130930 0.288665
Ni5   Ni    Ni4+2 0.067260 0.435560 0.132230 0.201594
Ni6   Ni    Ni4+2 0.932740 0.435560 0.867770 0.206794
Ni7   Ni    Ni4+2 0.567260 0.935560 0.132230 0.207180
Ni8   Ni    Ni4+2 0.432740 0.935560 0.867770 0.202983
C49   C     C_3   0.524434 0.451092 0.549460 -0.232917
C50   C     C_3   0.468249 0.463940 0.425981 -0.237062
C51   C     C_3   0.028530 0.957982 0.571297 -0.245662
C52   C     C_3   0.967953 0.954060 0.445216 -0.250421
C53   C     C_3   0.460744 0.489760 0.561448 0.251761
C54   C     C_3   0.532927 0.513108 0.448652 0.218780
C55   C     C_3   0.966072 0.004844 0.565478 0.256097
C56   C     C_3   0.030959 0.996740 0.440831 0.259521
H29   H     H_    0.547893 0.409403 0.585765 0.139363
H30   H     H_    0.443188 0.432747 0.359944 0.140807
H31   H     H_    0.054171 0.922014 0.627336 0.140473
H32   H     H_    0.942622 0.914866 0.398106 0.139695
C57   C     C_3   0.405716 0.502934 0.439113 -0.037117
C58   C     C_3   0.587960 0.500622 0.571210 -0.053188
C59   C     C_3   0.906650 0.001487 0.439995 -0.043248
C60   C     C_3   0.090240 0.001257 0.566033 -0.040019
C61   C     C_3   0.470130 0.552734 0.460889 0.172469
C62   C     C_3   0.524968 0.539609 0.584970 0.180796
C63   C     C_3   0.969486 0.044596 0.434404 0.179275
C64   C     C_3   0.028315 0.048675 0.561404 0.172656
C65   C     C_R   0.864751 0.247239 0.106600 0.145587
C66   C     C_R   0.221853 0.302050 0.891287 0.162704
C67   C     C_R   0.280976 0.800814 0.109920 0.160507
C68   C     C_R   0.721236 0.803566 0.890570 0.158668
C69   C     C_R   0.855319 0.263423 0.011594 0.025146
C70   C     C_R   0.247079 0.326556 0.989338 -0.003279
C71   C     C_R   0.254399 0.825591 0.011767 -0.001718
C72   C     C_R   0.750713 0.831946 0.986822 -0.000715
C73   C     C_R   0.818848 0.225770 0.924272 -0.301707
C74   C     C_R   0.340241 0.321228 0.081587 -0.254743
C75   C     C_R   0.160441 0.820869 0.920922 -0.254581
C76   C     C_R   0.843902 0.825078 0.078387 -0.252707
H33   H     H_    0.820286 0.235546 0.854487 0.135699
H34   H     H_    0.366018 0.346357 0.153803 0.140544
H35   H     H_    0.133912 0.846294 0.849172 0.139965
H36   H     H_    0.872056 0.851429 0.149563 0.140076
C77   C     C_R   0.102826 0.779846 0.919759 0.206538
C78   C     C_R   0.898077 0.780839 0.081598 0.204282
C79   C     C_R   0.773404 0.177513 0.923400 0.211868
C80   C     C_R   0.397770 0.279762 0.083779 0.196082
C81   C     C_R   0.144008 0.743068 0.010356 -0.065752
C82   C     C_R   0.854392 0.742802 0.992289 -0.060500
C83   C     C_R   0.761482 0.170620 0.009400 0.009301
C84   C     C_R   0.357394 0.243309 0.992266 -0.053205
C85   C     C_R   0.226704 0.759999 0.109235 0.128525
C86   C     C_R   0.772041 0.759683 0.893464 0.120324
C87   C     C_R   0.817414 0.202188 0.104991 0.085158
C88   C     C_R   0.276186 0.260912 0.892691 0.141742
C89   C     C_3   0.311519 0.728273 0.196661 -0.502370
C90   C     C_3   0.685223 0.728033 0.810468 -0.466912
C91   C     C_3   0.794809 0.230016 0.177248 -0.446549
C92   C     C_3   0.191389 0.229702 0.803462 -0.509309
C93   C     C_3   0.848032 0.279411 0.179441 -0.511692
C94   C     C_3   0.132340 0.274969 0.802110 -0.530118
C95   C     C_3   0.370590 0.773245 0.197246 -0.521507
C96   C     C_3   0.629490 0.776204 0.807606 -0.519807
H37   H     H_    0.321130 0.688378 0.167462 0.203991
H38   H     H_    0.675623 0.690163 0.844697 0.202478
H39   H     H_    0.829751 0.210187 0.258991 0.204388
H40   H     H_    0.180654 0.189944 0.831627 0.205175
H41   H     H_    0.317124 0.726174 0.274709 0.204800
H42   H     H_    0.677596 0.722263 0.731757 0.222984
H43   H     H_    0.718568 0.238159 0.134564 0.205533
H44   H     H_    0.186973 0.227477 0.726132 0.208593
H45   H     H_    0.913990 0.287254 0.261765 0.191314
H46   H     H_    0.088426 0.260752 0.829505 0.204310
H47   H     H_    0.413067 0.758900 0.167868 0.206015
H48   H     H_    0.587899 0.765916 0.840257 0.204611
H49   H     H_    0.802742 0.316139 0.138487 0.204823
H50   H     H_    0.094747 0.298893 0.724383 0.190566
H51   H     H_    0.409674 0.796961 0.275519 0.187030
H52   H     H_    0.590100 0.797879 0.727316 0.191556
C97   C     C_R   0.091729 0.555127 0.616324 0.130758
C98   C     C_R   0.095615 0.554815 0.526896 0.217465
C99   C     C_R   0.402316 0.054722 0.472253 0.212233
C100  C     C_R   0.407930 0.055022 0.384041 0.136695
C101  C     C_R   0.085947 0.505289 0.658969 0.035982
C102  C     C_R   0.093913 0.504700 0.479095 0.052550
C103  C     C_R   0.402304 0.004625 0.518588 0.048413
C104  C     C_R   0.414123 0.005227 0.341273 0.038460
C105  C     C_R   0.112084 0.456627 0.631982 -0.194744
C106  C     C_R   0.116014 0.456298 0.541175 -0.209061
C107  C     C_R   0.381176 0.956228 0.456242 -0.210718
C108  C     C_R   0.387087 0.956553 0.366817 -0.198380
H53   H     H_    0.116946 0.417817 0.670495 0.127935
H54   H     H_    0.123945 0.417150 0.512683 0.128573
H55   H     H_    0.372629 0.917084 0.483838 0.128973
H56   H     H_    0.382713 0.917742 0.328177 0.128477
C109  C     C_3   0.034151 0.604682 0.478391 -0.526831
C110  C     C_3   0.029758 0.604985 0.576132 -0.500333
C111  C     C_3   0.470750 0.104528 0.426103 -0.502572
C112  C     C_3   0.464899 0.104150 0.522749 -0.535114
H57   H     H_    0.964773 0.596041 0.400308 0.197066
H58   H     H_    0.065166 0.641359 0.630419 0.193027
H59   H     H_    0.436357 0.141086 0.372504 0.193706
H60   H     H_    0.533593 0.094844 0.600980 0.193660
H61   H     H_    0.072184 0.640873 0.476535 0.214838
H62   H     H_    0.957842 0.596514 0.552940 0.231115
H63   H     H_    0.542838 0.095695 0.450147 0.220446
H64   H     H_    0.427483 0.140621 0.525026 0.214533
C113  C     C_3   0.436991 0.609743 0.405656 -0.413734
C114  C     C_3   0.516253 0.650041 0.439790 -0.802124
H65   H     H_    0.550055 0.663206 0.525954 0.278827
H66   H     H_    0.568682 0.632201 0.429120 0.286033
H67   H     H_    0.487144 0.687439 0.387966 0.242909
H68   H     H_    0.393836 0.604403 0.315227 0.182529
H69   H     H_    0.392733 0.629493 0.427048 0.236225
C115  C     C_3   0.563386 0.579994 0.681976 -0.420308
C116  C     C_3   0.487561 0.611685 0.681093 -0.790005
H70   H     H_    0.447258 0.638197 0.607545 0.278524
H71   H     H_    0.439573 0.583469 0.684295 0.275194
H72   H     H_    0.521085 0.638774 0.754570 0.229119
H73   H     H_    0.606816 0.556854 0.760080 0.190224
H74   H     H_    0.609598 0.610513 0.681089 0.225405
C117  C     C_3   0.932392 0.091876 0.350582 -0.431816
C118  C     C_3   0.008126 0.125904 0.355946 -0.775752
H75   H     H_    0.053358 0.146657 0.436484 0.278292
H76   H     H_    0.050419 0.100276 0.338487 0.280382
H77   H     H_    0.974707 0.158479 0.292552 0.227243
H78   H     H_    0.886321 0.074022 0.267036 0.183837
H79   H     H_    0.890282 0.120357 0.363426 0.205606
C119  C     C_3   0.064921 0.101680 0.631666 -0.414441
C120  C     C_3   0.987758 0.138372 0.617427 -0.796208
H80   H     H_    0.938087 0.150810 0.530757 0.281744
H81   H     H_    0.950236 0.117648 0.647311 0.277711
H82   H     H_    0.019061 0.176492 0.666484 0.240780
H83   H     H_    0.113517 0.090472 0.719582 0.180512
H84   H     H_    0.104859 0.126482 0.609959 0.221585
C121  C     C_3   0.000374 0.777925 0.824390 -0.366195
C122  C     C_3   0.986885 0.764615 0.715749 -0.879352
H85   H     H_    0.006986 0.800517 0.687590 0.244849
H86   H     H_    0.030112 0.728753 0.724314 0.250626
H87   H     H_    0.911919 0.755085 0.651992 0.266636
H88   H     H_    0.960783 0.748311 0.839616 0.187742
H89   H     H_    0.968633 0.818858 0.816979 0.189779
C123  C     C_3   0.999840 0.776907 0.178220 -0.363397
C124  C     C_3   0.010457 0.765054 0.285539 -0.881513
H90   H     H_    0.990532 0.801805 0.312236 0.246049
H91   H     H_    0.965571 0.729943 0.275851 0.253617
H92   H     H_    0.084743 0.754926 0.350801 0.263787
H93   H     H_    0.038007 0.745619 0.163901 0.193617
H94   H     H_    0.034883 0.816746 0.186908 0.188770
C125  C     C_3   0.737698 0.136761 0.829988 -0.360343
C126  C     C_3   0.775594 0.078756 0.871634 -0.877229
H95   H     H_    0.853549 0.079282 0.925686 0.259417
H96   H     H_    0.749010 0.061819 0.917797 0.258959
H97   H     H_    0.752158 0.051113 0.800678 0.251462
H98   H     H_    0.660377 0.136173 0.775601 0.172570
H99   H     H_    0.760265 0.149424 0.777013 0.197390
C127  C     C_3   0.499138 0.276964 0.181772 -0.357161
C128  C     C_3   0.508548 0.262443 0.287514 -0.877077
H100  H     H_    0.487496 0.297977 0.315752 0.243288
H101  H     H_    0.463847 0.226629 0.274962 0.248022
H102  H     H_    0.582770 0.252300 0.353007 0.269309
H103  H     H_    0.539805 0.247711 0.167367 0.199788
H104  H     H_    0.532128 0.317871 0.192860 0.188459
N33   N     N_R   0.747435 0.589405 0.637403 0.215967
O1    O     O_R   0.722121 0.639127 0.641144 -0.502269
O2    O     O_R   0.791541 0.580956 0.592129 -0.441496
N34   N     N_R   0.241023 0.589755 0.363656 0.208050
O3    O     O_R   0.177898 0.627506 0.309398 -0.494718
O4    O     O_R   0.282715 0.587086 0.469247 -0.468363
N35   N     N_R   0.252145 0.090925 0.637417 0.209566
O5    O     O_R   0.319217 0.126726 0.690584 -0.484653
O6    O     O_R   0.204599 0.090248 0.531109 -0.471465
N36   N     N_R   0.745607 0.095223 0.355130 0.214469
O7    O     O_R   0.685855 0.133375 0.293073 -0.456785
O8    O     O_R   0.785433 0.097846 0.460159 -0.463574
C129  C     C_3   0.412293 0.470980 0.615115 -0.329222
C130  C     C_3   0.482379 0.456858 0.736162 -0.922874
H105  H     H_    0.534123 0.426082 0.746843 0.260159
H106  H     H_    0.519818 0.494269 0.784663 0.265738
H107  H     H_    0.444315 0.439136 0.768511 0.257820
H108  H     H_    0.363042 0.503027 0.605942 0.224726
H109  H     H_    0.370139 0.433611 0.571234 0.183615
C131  C     C_3   0.578611 0.518686 0.386981 -0.312307
C132  C     C_3   0.506423 0.526870 0.263894 -0.926165
H110  H     H_    0.452306 0.493968 0.229086 0.258554
H111  H     H_    0.472159 0.567623 0.247203 0.265155
H112  H     H_    0.542166 0.525258 0.222002 0.259716
H113  H     H_    0.629078 0.553241 0.420621 0.231302
H114  H     H_    0.618687 0.480407 0.399882 0.193123
C133  C     C_3   0.926080 0.000873 0.633686 -0.322068
C134  C     C_3   0.002975 0.999373 0.756841 -0.936621
H115  H     H_    0.051761 0.964521 0.777524 0.258887
H116  H     H_    0.043055 0.038491 0.784641 0.266487
H117  H     H_    0.970569 0.993827 0.801970 0.258229
H118  H     H_    0.878124 0.035475 0.615506 0.234900
H119  H     H_    0.884258 0.962357 0.610227 0.185690
C135  C     C_3   0.072291 0.984169 0.375947 -0.320107
C136  C     C_3   0.996571 0.977220 0.253227 -0.938163
H120  H     H_    0.943675 0.946269 0.238485 0.256225
H121  H     H_    0.961143 0.016945 0.215899 0.267578
H122  H     H_    0.029356 0.962859 0.212012 0.257737
H123  H     H_    0.121971 0.016727 0.388883 0.230967
H124  H     H_    0.112730 0.945163 0.407765 0.182920

loop_
_geom_bond_atom_site_label_1
_geom_bond_atom_site_label_2
_geom_bond_distance
_ccdc_geom_bond_type
C121  H88   1.109223 S    
C30   C34   1.382057 A    
C64   C119  1.543707 S    
C70   C74   1.404128 A    
C91   H43   1.112649 S    
C123  H94   1.111686 S    
C72   C76   1.405267 A    
C134  H115  1.110535 S    
N36   O7    1.300379 A    
C39   C71   1.448914 S    
C78   C82   1.424770 A    
C116  H72   1.110000 S    
C48   C59   1.460138 S    
C74   H34   1.082619 S    
C26   H22   1.078265 S    
C24   C48   1.377615 A    
C117  H78   1.108071 S    
C4    N4    1.320672 A    
C21   C45   1.377055 A    
C16   H16   1.081047 S    
C130  H107  1.110311 S    
C69   C73   1.405035 A    
C110  H62   1.112437 S    
C107  C108  1.396606 A    
C121  C122  1.530849 S    
C131  H113  1.104775 S    
C58   C62   1.551060 S    
C23   N23   1.331452 A    
C9    H9    1.075711 S    
N15   Ni8   1.856959 S    
C55   C133  1.534654 S    
C90   H38   1.112029 S    
C11   H11   1.074883 S    
C99   C100  1.375285 A    
C12   H12   1.075171 S    
C54   C131  1.533338 S    
N6    N26   1.390758 A    
C40   C72   1.454200 S    
C11   N11   1.323836 A    
C92   H44   1.112265 S    
C27   C39   1.387993 A    
C24   N36   1.435339 S    
C12   C44   1.372758 A    
C80   C84   1.423532 A    
C97   C110  1.499277 S    
C112  H60   1.111694 S    
N12   Ni3   1.856859 S    
C118  H76   1.104935 S    
C135  C136  1.526747 S    
C5    N5    1.320031 A    
C22   N34   1.437887 S    
N22   Ni2   1.882038 S    
C57   C61   1.552848 S    
C34   C81   1.461993 S    
C62   C115  1.541830 S    
N26   Ni5   1.852957 S    
C43   C104  1.450330 S    
C13   N13   1.322086 A    
C100  C104  1.398290 A    
C41   C102  1.452203 S    
C15   N15   1.329907 A    
C95   H47   1.112662 S    
C16   N16   1.331311 A    
C56   C63   1.546181 S    
C8    C40   1.380358 A    
C32   H28   1.075172 S    
N32   Ni3   1.890211 S    
C22   C46   1.365520 A    
C51   C55   1.542786 S    
C31   N31   1.338492 A    
C50   C57   1.539841 S    
C115  H73   1.109443 S    
C10   C42   1.372154 A    
C130  H106  1.107592 S    
C78   C123  1.512008 S    
C17   H17   1.080439 S    
N29   Ni2   1.891327 S    
C44   C103  1.453507 S    
C19   H19   1.074173 S    
N35   O6    1.297676 A    
C5    C37   1.374681 A    
C75   C77   1.409545 A    
C61   C113  1.544025 S    
C3    N3    1.322756 A    
N3    N31   1.390762 A    
C80   C127  1.511984 S    
C1    C33   1.377978 A    
N10   N18   1.379285 A    
C3    C35   1.373179 A    
C85   C89   1.503373 S    
C123  C124  1.530103 S    
C113  H69   1.101158 S    
C90   C96   1.505559 S    
C89   H41   1.112251 S    
C56   C135  1.535174 S    
C27   N27   1.339564 A    
C91   C93   1.506792 S    
C24   N24   1.327188 A    
C127  H103  1.108765 S    
C124  H90   1.110487 S    
C128  H102  1.110410 S    
C68   C86   1.370436 A    
C17   N17   1.334278 A    
C56   C60   1.529117 S    
N24   Ni4   1.882038 S    
C20   N20   1.338421 A    
C37   C69   1.443110 S    
C67   C71   1.393453 A    
N13   Ni6   1.856959 S    
C106  H54   1.080966 S    
C133  H118  1.103675 S    
C134  H117  1.110423 S    
C108  H56   1.082605 S    
C4    C36   1.381096 A    
C38   C70   1.448160 S    
C111  H59   1.111914 S    
C6    C38   1.378131 A    
C103  C107  1.407043 A    
C22   N22   1.330685 A    
C79   C83   1.424176 A    
C2    C34   1.372120 A    
N5    Ni5   1.880232 S    
C65   C87   1.363587 A    
C133  H119  1.111119 S    
N17   Ni5   1.857926 S    
C113  C114  1.522583 S    
C119  H83   1.109289 S    
N31   Ni4   1.891327 S    
C75   H35   1.082697 S    
C13   C45   1.370098 A    
C132  H110  1.110450 S    
C21   N21   1.326442 A    
C79   C125  1.516280 S    
C110  H58   1.111970 S    
C114  H66   1.103854 S    
C60   C64   1.552766 S    
C120  H81   1.105112 S    
C67   C95   1.497324 S    
N2    N30   1.390759 A    
C10   H10   1.074772 S    
N13   N21   1.379552 A    
C100  C111  1.498317 S    
N20   Ni8   1.862063 S    
N4    Ni4   1.862344 S    
C114  H67   1.109022 S    
C91   H39   1.111233 S    
C92   H40   1.112433 S    
C122  H85   1.110403 S    
N14   Ni5   1.855836 S    
C93   H45   1.111850 S    
N4    N32   1.390759 A    
C76   H36   1.082647 S    
C126  H95   1.111506 S    
C124  H92   1.110364 S    
C128  H100  1.110403 S    
N8    Ni8   1.881336 S    
C45   C58   1.441906 S    
C129  H109  1.111165 S    
N36   O8    1.297641 A    
C135  H123  1.105460 S    
C5    H5    1.081694 S    
C136  H122  1.110288 S    
C6    N6    1.320529 A    
C28   N28   1.342579 A    
C49   C50   1.539088 S    
C23   N35   1.436567 S    
C102  C106  1.407350 A    
C116  H71   1.105343 S    
C13   H13   1.081216 S    
C33   C82   1.467215 S    
C99   C103  1.400996 A    
C14   N14   1.328082 A    
C68   C96   1.498868 S    
C97   C101  1.399472 A    
N6    Ni6   1.881336 S    
C36   C83   1.455511 S    
N34   O3    1.296877 A    
N18   Ni6   1.862063 S    
N9    Ni2   1.861020 S    
C32   N32   1.338411 A    
N30   Ni1   1.890211 S    
C49   H29   1.109878 S    
C29   H25   1.075807 S    
N11   Ni4   1.861020 S    
C9    N9    1.322147 A    
C122  H87   1.110358 S    
C25   C37   1.384448 A    
C31   H27   1.074163 S    
C89   C95   1.499575 S    
C52   C59   1.542582 S    
C131  H114  1.111109 S    
C120  H80   1.105328 S    
C115  C116  1.524271 S    
C63   C64   1.551101 S    
C7    H7    1.066031 S    
C18   H18   1.074264 S    
C1    H1    1.074027 S    
C84   C88   1.403358 A    
N14   N22   1.379525 A    
C132  H112  1.110222 S    
C3    H3    1.067934 S    
C17   C41   1.386014 A    
C66   C94   1.496709 S    
C19   C43   1.387655 A    
N11   N19   1.379313 A    
C86   C90   1.500080 S    
C25   N25   1.338357 A    
C77   C121  1.512109 S    
N35   O5    1.296664 A    
C25   H21   1.081311 S    
C90   H42   1.111331 S    
C53   C62   1.546483 S    
C104  C108  1.405982 A    
C16   C48   1.374779 A    
C29   N29   1.338940 A    
C92   C94   1.498431 S    
C121  H89   1.111626 S    
C109  H61   1.112116 S    
C63   C117  1.540360 S    
C107  H55   1.081122 S    
C76   C78   1.413034 A    
C126  H97   1.111053 S    
C134  H116  1.107983 S    
C123  H93   1.108783 S    
N1    Ni1   1.858159 S    
N3    Ni3   1.858159 S    
C111  C112  1.503528 S    
C18   N18   1.341851 A    
C67   C85   1.367986 A    
C1    N1    1.324401 A    
C125  H98   1.102738 S    
C66   C70   1.392504 A    
N1    N29   1.390762 A    
C47   C60   1.454895 S    
C30   H26   1.074793 S    
C136  H120  1.110069 S    
C71   C75   1.404510 A    
C133  C134  1.526614 S    
C129  C130  1.525281 S    
C115  H74   1.101991 S    
C98   C109  1.498898 S    
N28   Ni7   1.852957 S    
C88   C92   1.502686 S    
C94   H50   1.112227 S    
C111  H63   1.112514 S    
C53   C129  1.533432 S    
N16   N24   1.379525 A    
N21   Ni1   1.880889 S    
N23   Ni3   1.880889 S    
C18   C42   1.388849 A    
C61   C62   1.549463 S    
N25   Ni6   1.857233 S    
C42   C101  1.449337 S    
C81   C85   1.402555 A    
C113  H68   1.108886 S    
C65   C69   1.387343 A    
C119  C120  1.523939 S    
C20   C44   1.383876 A    
C55   C59   1.530858 S    
C68   C72   1.393854 A    
C53   C57   1.527734 S    
C51   C60   1.540309 S    
C51   C52   1.538522 S    
C52   H32   1.110316 S    
C30   N30   1.339233 A    
C127  H104  1.111693 S    
C128  H101  1.110071 S    
C9    C41   1.377209 A    
C11   C43   1.374089 A    
C118  H75   1.105596 S    
N2    Ni2   1.862344 S    
C77   C81   1.422910 A    
C97   C98   1.374741 A    
C12   N12   1.323504 A    
C21   N33   1.429387 S    
C73   H33   1.083071 S    
C46   C57   1.444860 S    
C26   N26   1.337488 A    
C6    H6    1.065558 S    
C4    H4    1.072723 S    
C109  C110  1.504076 S    
C15   C47   1.370352 A    
C131  C132  1.525913 S    
C14   H14   1.080796 S    
C59   C63   1.554266 S    
C50   C54   1.540943 S    
C130  H105  1.110478 S    
C89   H37   1.112506 S    
C119  H84   1.103304 S    
C32   C36   1.393207 A    
C49   C53   1.541778 S    
N33   O2    1.300721 A    
C52   C56   1.541147 S    
N8    N28   1.390758 A    
C105  H53   1.082642 S    
C65   C93   1.495862 S    
C8    H8    1.077276 S    
C7    N7    1.319894 A    
C112  H64   1.111915 S    
N27   Ni8   1.857233 S    
C2    H2    1.069202 S    
N15   N23   1.379552 A    
C10   N10   1.322703 A    
C122  H86   1.109991 S    
C35   C84   1.463647 S    
C126  H96   1.109435 S    
C124  H91   1.109935 S    
C98   C102  1.400071 A    
C15   H15   1.080523 S    
C129  H108  1.107740 S    
C118  H77   1.107500 S    
C135  H124  1.111232 S    
C136  H121  1.107723 S    
C14   C46   1.369023 A    
C87   C91   1.503834 S    
C54   C61   1.545847 S    
C125  H99   1.111988 S    
C29   C33   1.386834 A    
C96   H48   1.112424 S    
C105  C106  1.395768 A    
C109  H57   1.112421 S    
C31   C35   1.381282 A    
C116  H70   1.106763 S    
C28   H24   1.079150 S    
C49   C58   1.538479 S    
N16   Ni7   1.855836 S    
N34   O4    1.300671 A    
C83   C87   1.400388 A    
C19   N19   1.341291 A    
C23   C47   1.374041 A    
C125  C126  1.528235 S    
C2    N2    1.322385 A    
C28   C40   1.392159 A    
N9    N17   1.379316 A    
C7    C39   1.376787 A    
N12   N20   1.379285 A    
C95   H51   1.112259 S    
C55   C64   1.548313 S    
C117  H79   1.103007 S    
C93   H49   1.112424 S    
C132  H111  1.107739 S    
C27   H23   1.078079 S    
C114  H65   1.106593 S    
C96   H52   1.111891 S    
C101  C105  1.405193 A    
C120  H82   1.107153 S    
C99   C112  1.499432 S    
C8    N8    1.325519 A    
C127  C128  1.531191 S    
C82   C86   1.401006 A    
N7    Ni7   1.880232 S    
C73   C79   1.411706 A    
C26   C38   1.386417 A    
C74   C80   1.408533 A    
N19   Ni7   1.857927 S    
N5    N25   1.390760 A    
C117  C118  1.522567 S    
N10   Ni1   1.856859 S    
C66   C88   1.368724 A    
C50   H30   1.110781 S    
N7    N27   1.390760 A    
C54   C58   1.527042 S    
C94   H46   1.112753 S    
C20   H20   1.080482 S    
C51   H31   1.110532 S    
N33   O1    1.297198 A    
