data_mof_unit_48583.cif
_audit_creation_date              2012-12-11T14:08:35-0500
_audit_creation_method            fapswitch 2.2
_symmetry_space_group_name_H-M    P1
_symmetry_Int_Tables_number       1
_space_group_crystal_system       triclinic
_cell_length_a                    10.970559
_cell_length_b                    10.922334
_cell_length_c                    18.773283
_cell_angle_alpha                 90.164285
_cell_angle_beta                  89.854623
_cell_angle_gamma                 60.374305
_cell_volume                      1955.39505171

loop_
_atom_site_label
_atom_site_type_symbol
_atom_type_description
_atom_site_fract_x
_atom_site_fract_y
_atom_site_fract_z
_atom_type_partial_charge
C1    C     C_R   0.235076 0.645561 0.608396 0.546495
C2    C     C_2   0.775569 0.150890 0.707325 -0.179102
C3    C     C_2   0.174955 0.663274 0.679933 -0.103906
C4    C     C_R   0.654820 0.624062 0.600472 0.532679
C5    C     C_2   0.180755 0.669071 0.836077 -0.166652
C6    C     C_2   0.169392 0.571071 0.797890 -0.158697
C7    C     C_2   0.193925 0.552118 0.720305 0.105963
C8    C     C_2   0.681229 0.693878 0.337620 0.009454
C9    C     C_2   0.704562 0.711521 0.178979 -0.113987
C10   C     C_2   0.812464 0.645464 0.223741 -0.192573
C11   C     C_2   0.791535 0.609581 0.295884 -0.191765
C12   C     C_3   0.653702 0.571158 0.800292 -0.242534
C13   C     C_2   0.638896 0.185013 0.321412 0.040839
C14   C     C_2   0.633153 0.204135 0.162642 -0.119814
C15   C     C_2   0.529663 0.213511 0.203400 -0.189394
C16   C     C_R   0.627906 0.227021 0.601399 0.555029
C17   C     C_2   0.525612 0.244628 0.278200 -0.176345
C18   C     C_2   0.132180 0.680597 0.342243 -0.101290
C19   C     C_2   0.128148 0.683180 0.187518 -0.117740
C20   C     C_2   0.081227 0.797166 0.229705 -0.153472
C21   C     C_2   0.114179 0.788763 0.303156 -0.103209
C22   C     C_R   0.704301 0.101560 0.897996 0.559737
C23   C     C_3   0.703338 0.678725 0.810692 0.043872
C24   C     C_R   0.727116 0.690869 0.886965 0.550539
C25   C     C_R   0.116087 0.707990 0.906455 0.543633
C26   C     C_R   0.672398 0.115128 0.100614 0.538921
C27   C     C_R   0.733063 0.718963 0.104455 0.576781
C28   C     C_R   0.216662 0.651121 0.404403 0.552036
C29   C     C_R   0.090428 0.710996 0.114014 0.548107
C30   C     C_R   0.646297 0.628546 0.396819 0.572355
C31   C     C_R   0.614368 0.232845 0.394114 0.597971
C32   C     C_3   0.591862 0.822682 0.778380 -0.231759
C33   C     C_3   0.572056 0.805868 0.698416 -0.245013
C34   C     C_3   0.672059 0.651317 0.675306 0.060782
C35   C     C_3   0.843438 0.629197 0.769777 -0.225434
C36   C     C_3   0.491527 0.389463 0.881015 -0.289787
C37   C     C_3   0.271934 0.296151 0.731606 -0.308185
C38   C     C_2   0.598644 0.849313 0.325896 0.215278
C39   C     C_2   0.781303 0.077251 0.299381 0.190527
C40   C     C_3   0.824640 0.616045 0.689812 -0.242709
C41   C     C_3   0.637243 0.552966 0.720591 -0.211563
C42   C     C_2   0.676334 0.148062 0.667520 -0.124389
C43   C     C_2   0.691968 0.174375 0.831233 0.150743
C44   C     C_2   0.790758 0.103141 0.781030 -0.143745
Cr1   Cr    Cr6+3 0.393010 0.398050 0.501480 1.038874
Cr2   Cr    Cr6+3 0.398820 0.707980 0.501630 1.067975
Cr3   Cr    Cr6+3 0.708140 0.393940 0.496850 1.048765
Cr4   Cr    Cr6+3 0.937950 0.938450 0.008940 1.018959
Cr5   Cr    Cr6+3 0.626180 0.937030 0.994750 1.009631
Cr6   Cr    Cr6+3 0.937790 0.625760 0.001410 1.007832
H1    H     H_    0.625949 0.902552 0.785367 0.131919
H2    H     H_    0.489466 0.862764 0.806389 0.129230
H3    H     H_    0.133522 0.767241 0.703541 0.073589
H4    H     H_    0.919410 0.596692 0.203773 0.154210
H5    H     H_    0.862495 0.501101 0.310856 0.169270
H6    H     H_    0.596511 0.754408 0.196403 0.121621
H7    H     H_    0.453641 0.184967 0.184181 0.172575
H8    H     H_    0.422016 0.318462 0.298942 0.158198
H9    H     H_    0.705079 0.237962 0.182223 0.125337
H10   H     H_    0.027158 0.903712 0.208872 0.181217
H11   H     H_    0.460830 0.835024 0.688959 0.141219
H12   H     H_    0.708352 0.441173 0.705736 0.141118
H13   H     H_    0.136991 0.868930 0.322875 0.215680
H14   H     H_    0.183730 0.575864 0.207206 0.090697
H15   H     H_    0.105852 0.602731 0.322724 0.097045
H16   H     H_    0.594145 0.878766 0.666779 0.113586
H17   H     H_    0.881295 0.705611 0.778569 0.120040
H18   H     H_    0.849215 0.688834 0.659640 0.114546
H19   H     H_    0.729880 0.467911 0.823916 0.157647
H20   H     H_    0.551219 0.610081 0.827635 0.119678
H21   H     H_    0.528031 0.575993 0.710034 0.123856
H22   H     H_    0.538228 0.345352 0.771066 0.263973
H23   H     H_    0.924366 0.524484 0.789686 0.134413
H24   H     H_    0.435538 0.503492 0.870686 0.136496
H25   H     H_    0.554087 0.373394 0.930053 0.158305
H26   H     H_    0.414278 0.353194 0.889561 0.162029
H27   H     H_    0.161432 0.427436 0.647043 0.257118
H28   H     H_    0.317261 0.200912 0.697066 0.146981
H29   H     H_    0.180715 0.302418 0.760679 0.117653
H30   H     H_    0.353853 0.284713 0.769742 0.165662
H31   H     H_    0.634030 0.899286 0.287568 0.102839
H32   H     H_    0.797023 0.009631 0.253940 0.096540
H33   H     H_    0.900499 0.506826 0.672289 0.136890
H34   H     H_    0.878094 0.998866 0.792294 0.114102
H35   H     H_    0.839608 0.194019 0.687709 0.148502
H36   H     H_    0.614794 0.103652 0.689504 0.106150
H37   H     H_    0.134919 0.505133 0.824040 0.152130
H38   H     H_    0.221713 0.732298 0.812715 0.097695
N1    N     N_2   0.581681 0.316010 0.820981 -0.551214
N2    N     N_2   0.227805 0.419761 0.687757 -0.469107
O1    O     O_R   0.507110 0.256280 0.580300 -0.498856
O2    O     O_R   0.837080 0.593860 0.915300 -0.524908
O3    O     O_R   0.064770 0.636080 0.932550 -0.506404
O4    O     O_R   0.280830 0.527190 0.577940 -0.480931
O5    O     O_R   0.068250 0.829200 0.092940 -0.510898
O6    O     O_R   0.799650 0.057040 0.080330 -0.506613
O7    O     O_R   0.586130 0.079760 0.077080 -0.521567
O8    O     O_R   0.627700 0.809630 0.066580 -0.491617
O9    O     O_R   0.816140 0.597180 0.075920 -0.498594
O10   O     O_R   0.045360 0.639170 0.081440 -0.519725
O11   O     O_3   0.833980 0.833750 0.001700 -0.277938
O12   O     O_R   0.524640 0.695370 0.425100 -0.444310
O13   O     O_R   0.261360 0.738990 0.584270 -0.522860
O14   O     O_R   0.532590 0.694780 0.574370 -0.508096
O15   O     O_R   0.744470 0.503750 0.577000 -0.534424
O16   O     O_R   0.698520 0.277230 0.571620 -0.500485
O17   O     O_R   0.498530 0.256920 0.419280 -0.517871
O18   O     O_R   0.272880 0.527780 0.428680 -0.514211
O19   O     O_R   0.252780 0.739630 0.423250 -0.495556
O20   O     O_2   0.491967 0.923856 0.359854 -0.481303
O21   O     O_2   0.882537 0.062956 0.332904 -0.517416
O22   O     O_R   0.735890 0.504390 0.415980 -0.526896
O23   O     O_R   0.690560 0.277820 0.422350 -0.455170
O24   O     O_3   0.499990 0.499990 0.499980 -0.273141
O25   O     O_R   0.089190 0.825870 0.932320 -0.508973
O26   O     O_R   0.819070 0.053960 0.931440 -0.508246
O27   O     O_R   0.607070 0.076440 0.916460 -0.528421
O28   O     O_R   0.647110 0.806550 0.917690 -0.504718

loop_
_geom_bond_atom_site_label_1
_geom_bond_atom_site_label_2
_ccdc_geom_bond_type
C36   N1    S    
Cr3   O24   S    
C12   H19   S    
Cr4   O26   S    
C27   O8    A    
C25   O3    A    
Cr4   O5    S    
C22   O27   A    
C18   C21   D    
C19   C20   D    
C18   H15   S    
C14   H9    S    
C37   H29   S    
C12   C23   S    
C27   O9    A    
Cr6   O9    S    
C43   N1    S    
C37   N2    S    
C34   C40   S    
C2    C42   D    
C3    C7    D    
C25   O25   A    
Cr5   O11   S    
C5    C6    D    
Cr3   O22   S    
C2    H35   S    
C15   C17   S    
C32   H2    S    
C36   H26   S    
Cr5   O8    S    
C5    H38   S    
Cr1   O24   S    
Cr5   O27   S    
C22   C43   S    
C2    C44   S    
C1    O4    A    
Cr3   O15   S    
C23   C24   S    
C42   H36   S    
C20   H10   S    
C9    C10   D    
C1    O13   A    
Cr1   O18   S    
C16   O16   A    
C17   H8    S    
C41   H21   S    
C39   O21   D    
C15   H7    S    
C40   H33   S    
C34   C41   S    
C8    C38   S    
C41   H12   S    
C10   H4    S    
Cr1   O4    S    
C24   O2    A    
C33   H16   S    
C26   O6    A    
C37   H30   S    
C4    C34   S    
H27   N2    S    
C21   H13   S    
Cr2   O24   S    
C18   C28   S    
C29   O5    A    
C7    N2    S    
Cr2   O14   S    
C6    H37   S    
C30   O22   A    
C1    C3    S    
C43   C44   D    
C32   H1    S    
C12   C41   S    
C36   H25   S    
Cr2   O12   S    
Cr5   O28   S    
C35   H17   S    
C19   H14   S    
Cr3   O16   S    
C30   O12   A    
C33   C34   S    
C9    H6    S    
C14   C26   S    
C36   H24   S    
Cr6   O11   S    
Cr4   O25   S    
C5    C25   S    
Cr6   O2    S    
C23   C35   S    
C38   H31   S    
C38   O20   D    
C19   C29   S    
C16   C42   S    
C11   H5    S    
C9    C27   S    
Cr2   O13   S    
C4    O15   A    
Cr3   O23   S    
C12   H20   S    
C35   H23   S    
Cr4   O6    S    
C29   O10   A    
C31   O17   A    
C13   C31   S    
C39   H32   S    
C44   H34   S    
Cr6   O3    S    
C6    C7    S    
C28   O19   A    
C37   H28   S    
Cr6   O10   S    
C13   C17   D    
C8    C30   S    
C23   C32   S    
C35   C40   S    
C32   C33   S    
H22   N1    S    
C3    H3    S    
C28   O18   A    
C8    C11   D    
Cr4   O11   S    
C4    O14   A    
C22   O26   A    
C24   O28   A    
Cr1   O1    S    
C13   C39   S    
C10   C11   S    
C26   O7    A    
Cr5   O7    S    
C20   C21   S    
C16   O1    A    
C33   H11   S    
C40   H18   S    
Cr2   O19   S    
C14   C15   D    
C31   O23   A    
Cr1   O17   S    
