data_mof_unit_23506.cif
_audit_creation_date              2012-12-10T17:05:21-0500
_audit_creation_method            fapswitch 2.2
_symmetry_space_group_name_H-M    P1
_symmetry_Int_Tables_number       1
_space_group_crystal_system       triclinic
_cell_length_a                    10.016821
_cell_length_b                    10.664335
_cell_length_c                    15.494011
_cell_angle_alpha                 90.731964
_cell_angle_beta                  68.677873
_cell_angle_gamma                 90.227364
_cell_volume                      1541.69539373

loop_
_atom_site_label
_atom_site_type_symbol
_atom_type_description
_atom_site_fract_x
_atom_site_fract_y
_atom_site_fract_z
_atom_type_partial_charge
C1    C     C_R   0.495801 0.737388 0.508459 0.821847
C2    C     C_R   0.438712 0.436210 0.902759 0.063552
C3    C     C_R   0.306101 0.377329 0.951135 0.081852
C4    C     C_R   0.546350 0.441511 0.941209 -0.004835
C5    C     C_R   0.508821 0.414843 0.035547 -0.004161
C6    C     C_R   0.381665 0.344807 0.080806 0.591658
C7    C     C_R   0.280549 0.328804 0.038844 -0.321610
C8    C     C_R   0.691202 0.467971 0.888121 -0.219864
C9    C     C_R   0.791551 0.481822 0.930318 -0.157485
C10   C     C_R   0.746722 0.484726 0.027066 -0.102331
C11   C     C_R   0.601922 0.456674 0.080142 -0.084952
C12   C     C_R   0.411108 0.497989 0.675695 0.818177
C13   C     C_R   0.842074 0.517580 0.072035 0.423465
C14   C     C_R   0.794052 0.516107 0.169298 0.368850
C15   C     C_R   0.549699 0.484749 0.175136 0.457845
C16   C     C_2   0.565844 0.072111 0.546174 -0.320088
C17   C     C_2   0.508051 0.127644 0.490931 0.419598
C18   C     C_2   0.590394 0.937137 0.538395 0.426903
C19   C     C_2   0.477408 0.865704 0.540994 0.321991
C20   C     C_2   0.111329 0.450549 0.433894 -0.224013
C21   C     C_2   0.955120 0.428649 0.444280 0.656059
C22   C     C_R   0.501952 0.262035 0.496142 0.800155
C23   C     C_R   0.589458 0.501624 0.323745 0.968562
C24   C     C_R   0.360660 0.473691 0.774712 -0.063985
C25   C     C_R   0.646023 0.501129 0.221558 -0.418252
C26   C     C_R   0.203404 0.364531 0.909450 -0.061784
C27   C     C_R   0.231270 0.411458 0.820831 -0.205745
C28   C     C_R   0.458984 0.491394 0.818138 -0.234734
H1    H     H_    0.182796 0.277512 0.074827 0.178506
H2    H     H_    0.596563 0.125556 0.596320 0.101398
H3    H     H_    0.195696 0.420111 0.370725 0.219914
H4    H     H_    0.068958 0.508720 0.563219 0.187490
H5    H     H_    0.902570 0.496225 0.886855 0.166507
H6    H     H_    0.103277 0.316105 0.944503 0.143208
H7    H     H_    0.154970 0.394854 0.787220 0.140124
H8    H     H_    0.553532 0.546844 0.783743 0.132636
H9    H     H_    0.730173 0.472034 0.813474 0.126909
N1    N     N_2   0.148330 0.498670 0.499030 -0.185259
N2    N     N_2   0.852680 0.498640 0.499000 0.042970
O1    O     O_R   0.386950 0.680940 0.500010 -0.576216
O2    O     O_R   0.613110 0.680900 0.499990 -0.578926
O3    O     O_R   0.322330 0.500030 0.632270 -0.626050
O4    O     O_R   0.548480 0.499990 0.632240 -0.642299
O5    O     O_R   0.386890 0.319100 0.500010 -0.638366
O6    O     O_R   0.613050 0.319060 0.499990 -0.592005
O7    O     O_R   0.451520 0.500010 0.367760 -0.562845
O8    O     O_R   0.677670 0.499970 0.367730 -0.538181
Zn1   Zn    Zn3+2 0.349000 0.500030 0.500020 0.955967
Zn2   Zn    Zn3+2 0.651000 0.499970 0.499980 1.032176
O9    O     O_3   0.984476 0.544118 0.022223 -0.579269
C29   C     C_3   0.997111 0.671166 0.995526 -0.337311
H10   H     H_    0.934010 0.735724 0.052775 0.133852
H11   H     H_    0.964341 0.684750 0.935157 0.156188
H12   H     H_    0.111391 0.698778 0.974094 0.192914
O10   O     O_3   0.487254 0.059986 0.418990 -0.613354
C30   C     C_3   0.362542 0.098815 0.404690 -0.249138
H13   H     H_    0.382729 0.186960 0.364468 0.180390
H14   H     H_    0.269276 0.109228 0.471011 0.184060
H15   H     H_    0.333648 0.025435 0.363210 0.171213
O11   O     O_3   0.727958 0.885865 0.511689 -0.592460
C31   C     C_3   0.820099 0.959572 0.541953 -0.313246
H16   H     H_    0.773322 0.976824 0.618101 0.134765
H17   H     H_    0.846621 0.049206 0.503729 0.179932
H18   H     H_    0.921991 0.907659 0.526858 0.215276
O12   O     O_3   0.339560 0.915085 0.572333 -0.595252
C32   C     C_3   0.273337 0.888720 0.667413 -0.397235
H19   H     H_    0.332434 0.933012 0.708379 0.147554
H20   H     H_    0.263168 0.785874 0.679642 0.169710
H21   H     H_    0.163616 0.928793 0.692754 0.198997
O13   O     O_3   0.916124 0.338100 0.392137 -0.574711
C33   C     C_3   0.014283 0.237667 0.364191 -0.363785
H22   H     H_    0.046543 0.204262 0.421598 0.120326
H23   H     H_    0.109145 0.263974 0.302987 0.231904
H24   H     H_    0.961683 0.157911 0.342590 0.210188
O14   O     O_3   0.895907 0.610871 0.520600 -0.558011
C34   C     C_3   0.816892 0.635707 0.614820 -0.145190
H25   H     H_    0.800361 0.550114 0.657843 0.093036
H26   H     H_    0.713291 0.680826 0.624049 0.207901
H27   H     H_    0.878404 0.703070 0.640966 0.126575
O15   O     O_3   0.403787 0.500774 0.221919 -0.545789
C35   C     C_3   0.367467 0.625620 0.210800 -0.273593
H28   H     H_    0.387671 0.646036 0.136853 0.143798
H29   H     H_    0.426197 0.693534 0.239149 0.147965
H30   H     H_    0.251205 0.638928 0.250146 0.192377
O16   O     O_3   0.893571 0.522070 0.212190 -0.534713
C36   C     C_3   0.913730 0.647928 0.234268 -0.164363
H31   H     H_    0.942960 0.648824 0.296827 0.199082
H32   H     H_    0.816328 0.707765 0.250358 0.110991
H33   H     H_    0.004942 0.689409 0.177338 0.149767
O17   O     O_3   0.359273 0.283359 0.162892 -0.582517
C37   C     C_3   0.438088 0.170456 0.142051 -0.381339
H34   H     H_    0.555373 0.189003 0.116038 0.176179
H35   H     H_    0.409898 0.111474 0.091288 0.152505
H36   H     H_    0.411047 0.115568 0.206294 0.189499

loop_
_geom_bond_atom_site_label_1
_geom_bond_atom_site_label_2
_ccdc_geom_bond_type
C32   H20   S    
O10   C30   S    
C7    H1    S    
C34   H27   S    
C4    C8    A    
C35   H28   S    
O8    Zn2   S    
O16   C36   S    
C26   C27   A    
C34   H26   S    
C5    C11   A    
C12   O4    A    
C3    C7    A    
C5    C6    A    
C36   H32   S    
C15   C25   A    
C32   H21   S    
C16   H2    S    
C30   H13   S    
C18   C19   D    
C31   H17   S    
C12   O3    A    
C1    O1    A    
C11   C15   A    
C26   H6    S    
C22   O5    A    
C8    C9    A    
C24   C27   A    
O13   C33   S    
N2    O14   S    
C9    C10   A    
C17   O10   S    
N1    Zn1   S    
C32   H19   S    
C23   O7    A    
C13   C14   A    
C9    H5    S    
O2    Zn2   S    
C35   H29   S    
O7    Zn1   S    
C1    C19   S    
C23   O8    A    
C29   H10   S    
C34   H25   S    
C37   H34   S    
C33   H23   S    
C36   H31   S    
O4    Zn2   S    
C27   H7    S    
C6    O17   S    
C10   C13   A    
O11   C31   S    
C29   H11   S    
C31   H18   S    
C2    C4    A    
O14   C34   S    
C37   H35   S    
C20   N1    D    
C15   O15   S    
C21   N2    D    
O6    Zn2   S    
O9    C29   S    
O3    Zn1   S    
C18   O11   S    
N2    Zn2   S    
H4    N1    S    
C8    H9    S    
C35   H30   S    
C1    O2    A    
O1    Zn1   S    
C3    C26   A    
C24   C28   A    
C14   O16   S    
O15   C35   S    
C36   H33   S    
C33   H24   S    
C6    C7    A    
C12   C24   S    
C17   C22   S    
C30   H15   S    
C21   O13   S    
C29   H12   S    
C2    C3    A    
C33   H22   S    
C37   H36   S    
O17   C37   S    
C16   C17   D    
C30   H14   S    
C19   O12   S    
C23   C25   S    
C14   C25   A    
C31   H16   S    
C10   C11   A    
C13   O9    S    
C4    C5    A    
C22   O6    A    
C20   C21   S    
C28   H8    S    
C16   C18   S    
O12   C32   S    
C2    C28   A    
O5    Zn1   S    
C20   H3    S    
