data_mof_unit_32835.cif
_audit_creation_date              2012-12-10T18:10:50-0500
_audit_creation_method            fapswitch 2.2
_symmetry_space_group_name_H-M    P1
_symmetry_Int_Tables_number       1
_space_group_crystal_system       triclinic
_cell_length_a                    12.739307
_cell_length_b                    13.154773
_cell_length_c                    15.730705
_cell_angle_alpha                 92.804747
_cell_angle_beta                  102.368861
_cell_angle_gamma                 82.198147
_cell_volume                      2550.63212204

loop_
_atom_site_label
_atom_site_type_symbol
_atom_type_description
_atom_site_fract_x
_atom_site_fract_y
_atom_site_fract_z
_atom_type_partial_charge
C1    C     C_R   0.439693 0.690177 0.483851 0.859734
C2    C     C_3   0.388044 0.489605 0.028919 -0.438008
C3    C     C_3   0.506153 0.478027 0.083304 0.148921
C4    C     C_3   0.573007 0.374850 0.055613 -0.174185
C5    C     C_3   0.565130 0.378379 0.953326 -0.313759
C6    C     C_1   0.502904 0.482690 0.174775 0.007578
C7    C     C_1   0.506579 0.492958 0.826099 -0.025497
C8    C     C_1   0.504572 0.497476 0.750648 -0.092144
C9    C     C_R   0.723968 0.044062 0.518625 -0.205787
C10   C     C_R   0.593527 0.196778 0.512032 -0.112542
C11   C     C_R   0.295334 0.837560 0.467180 -0.218695
C12   C     C_R   0.501064 0.500461 0.661259 0.905431
C13   C     C_R   0.262172 0.943045 0.463951 0.000005
C14   C     C_R   0.338727 0.008872 0.461166 -0.213551
C15   C     C_R   0.446985 0.970103 0.455888 0.074079
C16   C     C_R   0.474597 0.863773 0.447468 0.064022
C17   C     C_R   0.531766 0.032153 0.467900 0.067801
C18   C     C_R   0.640739 0.987522 0.475724 0.103036
C19   C     C_R   0.661564 0.886144 0.444934 -0.074418
C20   C     C_R   0.576177 0.826522 0.427588 -0.239404
C21   C     C_R   0.511586 0.137248 0.476735 -0.205765
C22   C     C_R   0.699576 0.147317 0.543838 -0.132922
C23   C     C_R   0.560359 0.308422 0.511713 0.908319
C24   C     C_R   0.401955 0.797870 0.462629 -0.125228
C25   C     C_R   0.073504 0.416813 0.339198 -0.269565
C26   C     C_R   0.798264 0.622148 0.611505 0.071987
C27   C     C_R   0.896797 0.660718 0.631696 -0.204102
C28   C     C_R   0.975561 0.626647 0.584298 -0.090489
C29   C     C_R   0.957822 0.550991 0.517918 0.039973
C30   C     C_R   0.852429 0.520079 0.494799 0.207030
C31   C     C_R   0.038296 0.505692 0.471459 -0.069841
C32   C     C_R   0.001213 0.462547 0.388180 0.126835
C33   C     C_R   0.892230 0.453447 0.357974 -0.236200
C34   C     C_R   0.499212 0.498695 0.338728 0.898414
C35   C     C_R   0.826295 0.459775 0.417907 -0.030562
C36   C     C_R   0.152627 0.494990 0.504402 0.033393
C37   C     C_R   0.183642 0.406427 0.373836 0.084129
C38   C     C_3   0.388270 0.497485 0.931033 -0.192719
C39   C     C_3   0.568722 0.571615 0.969608 -0.309468
C40   C     C_3   0.555938 0.574199 0.064619 -0.393087
C41   C     C_1   0.499921 0.490131 0.249724 -0.050801
C42   C     C_3   0.508055 0.486127 0.917866 0.123854
H1    H     H_    0.349751 0.431467 0.896551 0.156641
H2    H     H_    0.590117 0.750169 0.399977 0.200244
H3    H     H_    0.736089 0.649738 0.647301 0.141329
H4    H     H_    0.911197 0.718670 0.682625 0.165634
H5    H     H_    0.634812 0.581361 0.109582 0.215347
N1    N     N_R   0.222200 0.444690 0.455710 -0.174042
N2    N     N_R   0.776960 0.554780 0.543830 -0.132723
O1    O     O_R   0.366740 0.627160 0.478850 -0.586504
O2    O     O_R   0.544830 0.662520 0.507140 -0.632411
O3    O     O_R   0.410920 0.482310 0.608710 -0.596392
O4    O     O_R   0.589010 0.517670 0.637000 -0.603424
O5    O     O_R   0.455170 0.337480 0.492860 -0.590803
O6    O     O_R   0.633260 0.372840 0.521150 -0.584941
O7    O     O_R   0.410990 0.482330 0.363000 -0.611430
O8    O     O_R   0.589080 0.517690 0.391290 -0.623629
Zn1   Zn    Zn3+2 0.381090 0.476390 0.481110 1.015505
Zn2   Zn    Zn3+2 0.618910 0.523610 0.518890 0.998788
H6    H     H_    0.340124 0.558423 0.052407 0.209528
H7    H     H_    0.346005 0.423689 0.038220 0.213615
C43   C     C_2   0.691059 0.364629 0.107492 0.927681
O9    O     O_2   0.752434 0.424304 0.096465 -0.634577
O10   O     O_R   0.730564 0.284708 0.166166 -0.733206
H8    H     H_    0.810521 0.283217 0.192935 0.350664
C44   C     C_2   0.779581 0.196224 0.611232 1.058970
O11   O     O_2   0.747381 0.258025 0.663410 -0.568222
O12   O     O_R   0.891509 0.171166 0.618743 -0.720225
H9    H     H_    0.912108 0.127980 0.568407 0.324099
C45   C     C_2   0.768221 0.842560 0.425786 0.917084
O13   O     O_2   0.793526 0.749569 0.423626 -0.636431
O14   O     O_R   0.837634 0.907239 0.405783 -0.771826
H10   H     H_    0.905434 0.867793 0.390563 0.379058
H11   H     H_    0.805085 0.004814 0.539525 0.173594
H12   H     H_    0.430657 0.173589 0.455158 0.215104
H13   H     H_    0.238853 0.786503 0.476289 0.220549
H14   H     H_    0.312175 0.089558 0.467315 0.185801
C46   C     C_2   0.149593 0.985337 0.469573 0.940461
O15   O     O_2   0.087575 0.929034 0.485384 -0.630328
O16   O     O_R   0.113965 0.089911 0.456671 -0.791473
H15   H     H_    0.035499 0.109160 0.461108 0.364224
C47   C     C_2   0.318627 0.594258 0.892913 0.939630
O17   O     O_2   0.242721 0.587385 0.831362 -0.595104
O18   O     O_R   0.338966 0.690711 0.928961 -0.815020
H16   H     H_    0.286383 0.748626 0.897722 0.354563
C48   C     C_2   0.254348 0.357026 0.316794 0.971406
O19   O     O_2   0.330322 0.292554 0.344901 -0.626714
O20   O     O_R   0.230250 0.380980 0.228505 -0.803070
H17   H     H_    0.282483 0.340833 0.195118 0.371191
H18   H     H_    0.867320 0.414337 0.296028 0.176417
H19   H     H_    0.043827 0.384272 0.275143 0.184835
C49   C     C_2   0.198167 0.530269 0.592755 0.954456
O21   O     O_2   0.197519 0.478233 0.654882 -0.569798
O22   O     O_R   0.239892 0.624181 0.605407 -0.804182
H20   H     H_    0.267980 0.640889 0.669128 0.352928
H21   H     H_    0.046310 0.665578 0.597074 0.177861
C50   C     C_2   0.776222 0.365854 0.416436 0.968517
O23   O     O_2   0.814896 0.303290 0.472906 -0.641830
O24   O     O_R   0.699000 0.339937 0.344096 -0.787518
H22   H     H_    0.675549 0.270264 0.349277 0.355246
H23   H     H_    0.656169 0.558121 0.968034 0.244953
H24   H     H_    0.538003 0.647868 0.940206 0.209250
H25   H     H_    0.501961 0.645151 0.076315 0.216242
H26   H     H_    0.509604 0.323211 0.920077 0.137404
C51   C     C_2   0.671267 0.339642 0.924984 0.999248
O25   O     O_2   0.707973 0.249020 0.933769 -0.554315
O26   O     O_R   0.726833 0.405513 0.889086 -0.781283
H27   H     H_    0.795529 0.369135 0.873035 0.375639
C52   C     C_2   0.526197 0.278496 0.074355 0.945410
O27   O     O_2   0.557325 0.195404 0.043577 -0.549505
O28   O     O_R   0.452824 0.282611 0.129376 -0.821773
H28   H     H_    0.430743 0.212995 0.137088 0.357782

loop_
_geom_bond_atom_site_label_1
_geom_bond_atom_site_label_2
_ccdc_geom_bond_type
C40   H5    S    
C44   O12   S    
C4    C52   S    
C34   O7    A    
O6    Zn2   S    
C19   C20   A    
C5    C42   S    
C3    C6    S    
C50   O23   D    
O4    Zn2   S    
C7    C8    T    
C5    C51   S    
C10   C22   A    
C51   O26   S    
C26   C27   A    
C43   O9    D    
C30   C35   A    
C39   H24   S    
C28   C29   A    
C38   C42   S    
C11   H13   S    
C52   O28   S    
C2    H6    S    
C9    C22   A    
C14   H14   S    
C15   C16   A    
C4    C43   S    
C11   C24   A    
C18   C19   A    
C7    C42   S    
C22   C44   S    
C43   O10   S    
C26   H3    S    
C20   H2    S    
C31   C32   A    
O12   H9    S    
C6    C41   T    
C34   O8    A    
O26   H27   S    
C45   O13   D    
C1    O1    A    
C31   C36   A    
C12   O4    A    
C2    H7    S    
C16   C20   A    
C25   C37   A    
C36   C49   S    
C25   C32   A    
C44   O11   D    
C5    H26   S    
C16   C24   A    
C13   C14   A    
C38   C47   S    
C34   C41   S    
C12   O3    A    
C39   H23   S    
C39   C42   S    
C10   C21   A    
C25   H19   S    
C48   O20   S    
O1    Zn1   S    
C37   C48   S    
O18   H16   S    
C50   O24   S    
C26   N2    A    
C39   C40   S    
C46   O15   D    
O16   H15   S    
C17   C21   A    
C29   C30   A    
C2    C38   S    
O24   H22   S    
C8    C12   S    
C49   O22   S    
C17   C18   A    
C37   N1    A    
N1    Zn1   S    
C1    O2    A    
O3    Zn1   S    
C27   H4    S    
C30   N2    A    
C3    C40   S    
C47   O18   S    
O2    Zn2   S    
C9    H11   S    
C3    C4    S    
C23   O5    A    
O5    Zn1   S    
C15   C17   A    
C13   C46   S    
O28   H28   S    
C48   O19   D    
O14   H10   S    
C23   O6    A    
C10   C23   S    
C51   O25   D    
C21   H12   S    
N2    Zn2   S    
C28   H21   S    
C32   C33   A    
C2    C3    S    
C38   H1    S    
C29   C31   A    
C35   C50   S    
C33   H18   S    
O10   H8    S    
C40   H25   S    
C11   C13   A    
C49   O21   D    
C33   C35   A    
O7    Zn1   S    
C36   N1    A    
C46   O16   S    
O22   H20   S    
O8    Zn2   S    
C9    C18   A    
C4    C5    S    
O20   H17   S    
C1    C24   S    
C47   O17   D    
C27   C28   A    
C14   C15   A    
C19   C45   S    
C45   O14   S    
C52   O27   D    
