data_mof_unit_62258.cif
_audit_creation_date              2013-03-05T15:40:25-0500
_audit_creation_method            fapswitch 2.2
_symmetry_space_group_name_H-M    P1
_symmetry_Int_Tables_number       1
_space_group_crystal_system       triclinic
_cell_length_a                    7.799172
_cell_length_b                    8.554914
_cell_length_c                    10.728669
_cell_angle_alpha                 91.378396
_cell_angle_beta                  84.879281
_cell_angle_gamma                 93.036092
_cell_volume                      711.837985125

loop_
_atom_site_label
_atom_site_type_symbol
_atom_site_description
_atom_site_fract_x
_atom_site_fract_y
_atom_site_fract_z
_atom_type_partial_charge
O1    O     O_R   0.389250 0.738570 0.508280 -0.564761
O2    O     O_R   0.678390 0.711630 0.486650 -0.628738
C1    C     C_R   0.545118 0.794081 0.511413 0.931493
O3    O     O_R   0.355400 0.513470 0.694050 -0.573787
O4    O     O_R   0.644540 0.486530 0.672420 -0.647640
C2    C     C_R   0.501743 0.515877 0.739138 0.805037
Zn1   Zn    Zn3+2 0.306930 0.517990 0.514440 1.084108
Zn2   Zn    Zn3+2 0.693070 0.482010 0.485560 0.999118
O5    O     O_R   0.321610 0.288370 0.513350 -0.616424
O6    O     O_R   0.610750 0.261430 0.491720 -0.605511
O7    O     O_R   0.355460 0.513470 0.327580 -0.549883
O8    O     O_R   0.644600 0.486530 0.305950 -0.611443
C3    C     C_R   0.455278 0.206306 0.512049 0.968023
C4    C     C_R   0.500497 0.511758 0.260857 0.923897
H1    H     H_    0.660557 0.332131 0.873070 0.148725
C5    C     C_R   0.316551 0.769447 0.893966 0.211587
C6    C     C_R   0.296265 0.912045 0.961481 0.028993
C7    C     C_R   0.338064 0.920729 0.085662 0.229986
C8    C     C_R   0.348760 0.778622 0.146162 0.152888
C9    C     C_R   0.419927 0.651874 0.074625 -0.084139
C10   C     C_R   0.411906 0.650342 0.944033 -0.060255
C11   C     C_R   0.499667 0.530880 0.872183 -0.050413
C12   C     C_R   0.591656 0.420698 0.928140 -0.180325
H2    H     H_    0.653868 0.325081 0.097096 0.176355
C13   C     C_R   0.588349 0.416771 0.055387 -0.080270
C14   C     C_R   0.499353 0.527284 0.128686 -0.028716
C15   C     C_2   0.564633 0.957046 0.544382 0.038406
C16   C     C_2   0.432319 0.042935 0.521828 -0.349681
H3    H     H_    0.310535 0.993282 0.494580 0.227742
N1    N     N_2   0.950330 0.457950 0.466250 -0.013282
N2    N     N_2   0.049670 0.542050 0.533750 -0.066412
H4    H     H_    0.984522 0.614906 0.596609 0.221232
N3    N     N_R   0.199038 0.732275 0.801673 0.222100
O9    O     O_R   0.075140 0.626569 0.826261 -0.401408
O10   O     O_R   0.190436 0.825387 0.708906 -0.469322
N4    N     N_2   0.197364 0.030808 0.917294 -0.233441
H5    H     H_    0.074119 0.996730 0.896836 0.255219
C17   C     C_3   0.287100 0.144934 0.834773 -0.613617
H6    H     H_    0.261200 0.263745 0.872881 0.267131
H7    H     H_    0.237761 0.134040 0.741070 0.224662
H8    H     H_    0.428374 0.130633 0.825452 0.193281
N5    N     N_R   0.334516 0.064821 0.157546 0.221405
O11   O     O_R   0.439937 0.087875 0.244133 -0.451463
O12   O     O_R   0.240175 0.178448 0.131005 -0.392131
N6    N     N_R   0.211332 0.744591 0.240927 0.237831
O13   O     O_R   0.089656 0.642378 0.214848 -0.384289
O14   O     O_R   0.179166 0.842990 0.332842 -0.415222
N7    N     N_2   0.705637 0.022345 0.610267 -0.328106
H9    H     H_    0.674297 0.112319 0.672547 0.227275
C18   C     C_3   0.827950 0.921380 0.655683 -0.690220
H10   H     H_    0.914427 0.991449 0.714681 0.238692
H11   H     H_    0.909807 0.873083 0.575671 0.288100
H12   H     H_    0.760546 0.826905 0.713480 0.233425
N8    N     N_2   0.032573 0.357285 0.382157 -0.158792
H13   H     H_    0.005140 0.376521 0.291865 0.281517
C19   C     C_3   0.996651 0.194917 0.412688 -0.528619
H14   H     H_    0.096694 0.124312 0.362848 0.277176
H15   H     H_    0.870147 0.152581 0.381792 0.239209
H16   H     H_    0.999804 0.178066 0.514722 0.223698

loop_
_geom_bond_atom_site_label_1
_geom_bond_atom_site_label_2
_geom_bond_distance
_ccdc_geom_bond_type
C15   N7    1.440758 S    
O4    Zn2   2.006535 S    
C18   H11   1.108252 S    
H2    C13   1.084804 S    
C8    N6    1.433158 S    
C3    C16   1.404848 S    
C5    C10   1.434480 A    
C6    N4    1.422477 S    
C5    N3    1.427429 S    
N8    H13   1.029398 S    
C8    C9    1.421452 A    
C19   H16   1.110189 S    
N1    N2    1.287785 D    
Zn2   O8    1.998200 S    
Zn2   N1    2.019524 S    
C9    C10   1.407759 A    
N7    C18   1.443594 S    
O2    C1    1.291451 A    
O1    Zn1   1.961527 S    
C10   C11   1.431491 A    
C4    C14   1.428268 S    
Zn1   O7    2.006535 S    
N1    N8    1.372904 S    
C16   H3    1.081153 S    
O4    C2    1.301685 A    
N5    O12   1.301485 A    
O3    Zn1   1.998200 S    
H1    C12   1.084828 S    
N7    H9    1.031843 S    
C17   H7    1.108225 S    
C19   H15   1.108700 S    
C18   H10   1.109048 S    
O1    C1    1.284447 A    
C1    C15   1.433651 S    
C12   C13   1.364322 A    
C6    C7    1.398936 A    
C17   H6    1.108187 S    
O7    C4    1.284099 A    
N8    C19   1.442055 S    
C18   H12   1.111311 S    
Zn1   N2    2.019524 S    
N5    O11   1.299328 A    
N4    C17   1.444118 S    
C2    C11   1.428803 S    
N3    O9    1.301731 A    
C19   H14   1.104294 S    
C17   H8    1.110405 S    
O3    C2    1.277777 A    
C7    C8    1.401644 A    
N6    O14   1.297021 A    
C15   C16   1.340444 D    
Zn1   O5    1.973453 S    
O5    C3    1.286210 A    
C11   C12   1.392605 A    
N4    H5    1.030529 S    
C7    N5    1.438447 S    
N3    O10   1.298182 A    
C13   C14   1.389364 A    
N6    O13   1.300449 A    
Zn2   O6    1.961527 S    
O2    Zn2   1.973453 S    
N2    H4    1.026452 S    
O8    C4    1.292873 A    
C5    C6    1.412580 A    
C9    C14   1.421267 A    
O6    C3    1.279616 A    
