data_mof_unit_56021.cif
_audit_creation_date              2012-12-11T17:09:39-0500
_audit_creation_method            fapswitch 2.2
_symmetry_space_group_name_H-M    P1
_symmetry_Int_Tables_number       1
_space_group_crystal_system       triclinic
_cell_length_a                    14.8016
_cell_length_b                    6.92169
_cell_length_c                    13.511947
_cell_angle_alpha                 89.99999
_cell_angle_beta                  99.7855
_cell_angle_gamma                 90.0
_cell_volume                      1364.18650979

loop_
_atom_site_label
_atom_site_type_symbol
_atom_type_description
_atom_site_fract_x
_atom_site_fract_y
_atom_site_fract_z
_atom_type_partial_charge
O1    O     O_R   0.586930 0.505770 0.416350 -0.537064
O2    O     O_R   0.413070 0.005770 0.583650 -0.537064
O3    O     O_R   0.397900 0.173100 0.389630 -0.535862
O4    O     O_R   0.602100 0.673100 0.610370 -0.535862
C1    C     C_R   0.364235 0.345432 0.362836 0.727744
C2    C     C_R   0.635764 0.845432 0.637164 0.727745
O5    O     O_R   0.585280 0.175870 0.404330 -0.546424
O6    O     O_R   0.414720 0.675870 0.595670 -0.546424
O7    O     O_R   0.601790 0.008380 0.598460 -0.535332
O8    O     O_R   0.398210 0.508380 0.401540 -0.535332
C3    C     C_R   0.614722 0.344678 0.382947 0.721511
C4    C     C_R   0.385278 0.844678 0.617053 0.721512
O9    O     O_3   0.505200 0.340120 0.563670 -0.370696
O10   O     O_3   0.494800 0.840120 0.436330 -0.370696
V1    V     V_3+5 0.499040 0.064180 0.488190 1.428739
V2    V     V_3+5 0.500960 0.564180 0.511810 1.428739
C5    C     C_R   0.323976 0.987220 0.763699 0.088884
C6    C     C_R   0.676024 0.487219 0.236301 0.088884
C7    C     C_R   0.317798 0.851518 0.686126 -0.153963
C8    C     C_R   0.682202 0.351518 0.313874 -0.153963
C9    C     C_R   0.246407 0.714716 0.678525 -0.204962
C10   C     C_R   0.753592 0.214716 0.321474 -0.204962
H1    H     H_    0.240340 0.604661 0.620755 0.159504
H2    H     H_    0.759659 0.104661 0.379245 0.159504
C11   C     C_R   0.177979 0.728078 0.739547 0.365447
C12   C     C_R   0.822021 0.228078 0.260453 0.365447
C13   C     C_R   0.181974 0.875525 0.813273 -0.161272
C14   C     C_R   0.818026 0.375526 0.186727 -0.161272
C15   C     C_R   0.258792 0.997149 0.826406 0.022907
C16   C     C_R   0.741208 0.497149 0.173594 0.022908
C17   C     C_3   0.265492 0.212023 0.832889 -0.382234
C18   C     C_3   0.734508 0.712023 0.167111 -0.382235
C19   C     C_3   0.336405 0.200997 0.763613 -0.371629
C20   C     C_3   0.663595 0.700996 0.236386 -0.371630
H3    H     H_    0.294499 0.262085 0.909908 0.153383
H4    H     H_    0.705501 0.762084 0.090091 0.153383
H5    H     H_    0.200926 0.283907 0.798276 0.235367
H6    H     H_    0.799073 0.783907 0.201724 0.235367
H7    H     H_    0.406169 0.245090 0.800760 0.157971
H8    H     H_    0.593830 0.745088 0.199238 0.157971
H9    H     H_    0.312615 0.266648 0.688597 0.188820
H10   H     H_    0.687384 0.766648 0.311402 0.188820
C21   C     C_1   0.783485 0.877086 0.782841 -0.160341
C22   C     C_1   0.216515 0.377086 0.217159 -0.160341
C23   C     C_1   0.716219 0.860132 0.716796 -0.171367
C24   C     C_1   0.283781 0.360132 0.283204 -0.171367
O11   O     O_R   0.101720 0.231700 0.098560 -0.534447
O12   O     O_R   0.898280 0.731700 0.901440 -0.534447
O13   O     O_R   0.914700 0.558980 0.095690 -0.541301
O14   O     O_R   0.085300 0.058980 0.904310 -0.541302
C25   C     C_R   0.886657 0.389412 0.118793 0.751880
C26   C     C_R   0.113343 0.889412 0.881207 0.751880
O15   O     O_R   0.102080 0.561590 0.110390 -0.540781
O16   O     O_R   0.897920 0.061590 0.889610 -0.540781
O17   O     O_R   0.086950 0.728940 0.916330 -0.524672
O18   O     O_R   0.913050 0.228940 0.083670 -0.524672
C27   C     C_R   0.136093 0.391892 0.137499 0.740540
C28   C     C_R   0.863907 0.891892 0.862500 0.740541
O19   O     O_3   0.994770 0.394510 0.936380 -0.355173
O20   O     O_3   0.005230 0.894510 0.063620 -0.355173
V3    V     V_3+5 0.000970 0.670520 0.011800 1.529411
V4    V     V_3+5 0.999030 0.170520 0.988200 1.529411
Cl1   Cl    Cl    0.082491 0.573249 0.711969 -0.644587
Cl2   Cl    Cl    0.917508 0.073249 0.288031 -0.644587

loop_
_geom_bond_atom_site_label_1
_geom_bond_atom_site_label_2
_ccdc_geom_bond_type
O4    V2    S    
O5    C3    A    
C17   C19   S    
O9    V2    S    
O12   C28   A    
C6    C16   A    
C2    C23   S    
C18   H6    S    
C11   C13   A    
C5    C15   A    
C1    C24   S    
C12   C14   A    
C20   H10   S    
C26   O17   A    
C22   C27   S    
O6    C4    A    
C19   H9    S    
C2    O7    A    
O5    V1    S    
O7    V1    S    
O2    C4    A    
C1    O8    A    
C15   C17   S    
O1    V2    S    
O8    V2    S    
O1    C3    A    
O20   V4    S    
C16   C18   S    
O2    V1    S    
C6    C20   S    
O12   V3    S    
C19   H7    S    
C5    C19   S    
O11   V4    S    
C20   H8    S    
C18   H4    S    
C4    C7    S    
C14   C16   A    
C7    C9    A    
C8    C10   A    
O18   V4    S    
O9    V1    S    
C9    H1    S    
C10   C12   A    
O14   V4    S    
C14   C25   S    
O10   V2    S    
C3    C8    S    
O19   V3    S    
O13   V3    S    
C9    C11   A    
O17   V3    S    
O3    V1    S    
C13   C26   S    
C6    C8    A    
O4    C2    A    
C25   O18   A    
C11   Cl1   S    
C10   H2    S    
O16   C28   A    
O14   C26   A    
O13   C25   A    
O15   C27   A    
O10   V1    S    
O19   V4    S    
C17   H3    S    
O6    V2    S    
O16   V4    S    
C21   C28   S    
C5    C7    A    
C13   C15   A    
O15   V3    S    
C21   C23   T    
C22   C24   T    
O11   C27   A    
C17   H5    S    
C12   Cl2   S    
O20   V3    S    
O3    C1    A    
C18   C20   S    
