data_mof_unit_54434.cif
_audit_creation_date              2012-12-11T15:36:47-0500
_audit_creation_method            fapswitch 2.2
_symmetry_space_group_name_H-M    P1
_symmetry_Int_Tables_number       1
_space_group_crystal_system       triclinic
_cell_length_a                    15.060121
_cell_length_b                    15.079133
_cell_length_c                    34.819402
_cell_angle_alpha                 91.256848
_cell_angle_beta                  91.829193
_cell_angle_gamma                 60.082728
_cell_volume                      6849.93387853

loop_
_atom_site_label
_atom_site_type_symbol
_atom_type_description
_atom_site_fract_x
_atom_site_fract_y
_atom_site_fract_z
_atom_type_partial_charge
C1    C     C_R   0.610855 0.302320 0.444139 0.542831
C2    C     C_R   0.744064 0.688293 0.183225 0.030762
C3    C     C_R   0.612031 0.141882 0.829576 0.015707
C4    C     C_R   0.659248 0.185207 0.852514 -0.103051
C5    C     C_R   0.688245 0.155894 0.890924 0.015720
C6    C     C_R   0.573702 0.256296 0.772936 -0.120343
C7    C     C_R   0.577400 0.268840 0.733612 -0.117677
C8    C     C_R   0.604014 0.186321 0.708263 0.024454
C9    C     C_R   0.622703 0.092206 0.722368 -0.117866
C10   C     C_R   0.620843 0.078979 0.761827 -0.113542
C11   C     C_R   0.598591 0.160336 0.787618 0.029273
C12   C     C_R   0.554778 0.185601 0.639303 -0.120635
C13   C     C_R   0.828925 0.621807 0.161381 -0.124728
C14   C     C_R   0.556505 0.211863 0.601223 -0.126001
C15   C     C_R   0.688331 0.254175 0.618606 -0.125175
C16   C     C_R   0.685072 0.229875 0.656688 -0.122692
C17   C     C_R   0.616233 0.198380 0.667396 0.026991
C18   C     C_R   0.621114 0.249356 0.590826 0.023794
C19   C     C_R   0.044775 0.739409 0.048893 0.540380
C20   C     C_R   0.747538 0.746745 0.064146 0.543733
C21   C     C_R   0.751434 0.040110 0.050734 0.536205
C22   C     C_R   0.017161 0.722411 0.939825 0.544834
C23   C     C_R   0.717080 0.730073 0.954961 0.540259
C24   C     C_R   0.827870 0.636428 0.121869 -0.127994
C25   C     C_R   0.720747 0.025639 0.942375 0.537885
C26   C     C_R   0.778549 0.583324 0.242006 -0.117390
C27   C     C_R   0.769213 0.576581 0.281400 -0.114467
C28   C     C_R   0.728483 0.664963 0.304683 0.029441
C29   C     C_R   0.702627 0.759212 0.288197 -0.119435
C30   C     C_R   0.711380 0.765989 0.248793 -0.119029
C31   C     C_R   0.746599 0.678586 0.225286 0.026363
C32   C     C_R   0.606800 0.734549 0.358802 -0.119868
C33   C     C_R   0.593375 0.610240 0.449431 0.544725
C34   C     C_R   0.573664 0.721438 0.394048 -0.127161
C35   C     C_R   0.733611 0.562508 0.403107 -0.126874
C36   C     C_R   0.766866 0.575836 0.367910 -0.121982
C37   C     C_R   0.702317 0.660157 0.344835 0.032487
C38   C     C_R   0.635266 0.633437 0.415867 0.021299
C39   C     C_R   0.098672 0.730127 0.086097 0.020861
C40   C     C_R   0.139479 0.638143 0.106620 -0.126284
C41   C     C_R   0.159284 0.636605 0.146006 -0.122687
C42   C     C_R   0.140561 0.726380 0.165453 0.029349
C43   C     C_R   0.110284 0.815829 0.144528 -0.122468
C44   C     C_R   0.303681 0.591588 0.442401 0.541061
C45   C     C_R   0.089176 0.817835 0.105016 -0.128222
C46   C     C_R   0.207486 0.754827 0.228382 -0.119952
C47   C     C_R   0.214873 0.747483 0.268436 -0.123771
C48   C     C_R   0.155466 0.716162 0.288323 0.021581
C49   C     C_R   0.088008 0.693158 0.267617 -0.122351
C50   C     C_R   0.081977 0.698751 0.227629 -0.117750
C51   C     C_R   0.142826 0.728046 0.207745 0.025586
C52   C     C_R   0.207328 0.593122 0.341336 -0.136425
C53   C     C_R   0.242617 0.561843 0.378756 -0.134805
C54   C     C_R   0.208448 0.732702 0.394997 -0.110264
C55   C     C_R   0.605703 0.300552 0.553718 0.541665
C56   C     C_R   0.169580 0.766302 0.357583 0.029201
C57   C     C_R   0.174418 0.693764 0.329863 0.036253
C58   C     C_R   0.247390 0.630181 0.405499 0.005462
C59   C     C_R   0.725859 0.096055 0.087523 0.022881
C60   C     C_R   0.802447 0.102305 0.109488 -0.126394
C61   C     C_R   0.788027 0.128242 0.148361 -0.122994
C62   C     C_R   0.696513 0.149359 0.165645 0.031667
C63   C     C_R   0.616556 0.152294 0.142877 -0.119926
C64   C     C_R   0.631167 0.125695 0.104106 -0.126369
C65   C     C_R   0.596890 0.234481 0.224278 -0.118084
C66   C     C_R   0.587574 0.606329 0.559117 0.541477
C67   C     C_R   0.587317 0.240553 0.264035 -0.114700
C68   C     C_R   0.668173 0.170935 0.287921 0.028684
C69   C     C_R   0.758667 0.094794 0.271338 -0.120345
C70   C     C_R   0.768296 0.088862 0.231550 -0.116310
C71   C     C_R   0.687626 0.158981 0.207732 0.028515
C72   C     C_R   0.741956 0.179289 0.352042 -0.122503
C73   C     C_R   0.728418 0.210220 0.390411 -0.126658
C74   C     C_R   0.554019 0.241858 0.386223 -0.130811
C75   C     C_R   0.567686 0.210780 0.347833 -0.125346
C76   C     C_R   0.660294 0.183518 0.330017 0.032167
C77   C     C_R   0.297975 0.589160 0.551672 0.543818
C78   C     C_R   0.632804 0.246290 0.407315 0.021979
C79   C     C_R   0.691135 0.689591 0.920051 0.019913
C80   C     C_R   0.764708 0.596263 0.903850 -0.129243
C81   C     C_R   0.752326 0.571039 0.866031 -0.125119
C82   C     C_R   0.666274 0.638699 0.843787 0.031733
C83   C     C_R   0.588205 0.727092 0.861217 -0.122406
C84   C     C_R   0.600348 0.752132 0.899056 -0.131180
C85   C     C_R   0.570752 0.650597 0.782098 -0.120595
C86   C     C_R   0.565901 0.650148 0.742039 -0.118141
C87   C     C_R   0.653703 0.623212 0.720805 0.027721
C88   C     C_R   0.741623 0.717441 0.103684 0.021160
C89   C     C_R   0.747215 0.593367 0.740260 -0.117604
C90   C     C_R   0.751987 0.594418 0.780337 -0.114448
C91   C     C_R   0.663445 0.624529 0.801662 0.028594
C92   C     C_R   0.718873 0.543718 0.656586 -0.123519
C93   C     C_R   0.704464 0.541010 0.616865 -0.129863
C94   C     C_R   0.550874 0.707424 0.619997 -0.126925
C95   C     C_R   0.565030 0.709762 0.659676 -0.123458
C96   C     C_R   0.646992 0.626341 0.678437 0.031240
C97   C     C_R   0.618025 0.621091 0.598397 0.021521
C98   C     C_R   0.067263 0.698261 0.902603 0.023149
C99   C     C_R   0.654690 0.779940 0.125368 -0.124504
C100  C     C_R   0.093415 0.766322 0.886368 -0.127008
C101  C     C_R   0.122581 0.754456 0.848264 -0.123189
C102  C     C_R   0.125606 0.674654 0.825840 0.031539
C103  C     C_R   0.106344 0.602531 0.842820 -0.122108
C104  C     C_R   0.077688 0.614049 0.881010 -0.127328
C105  C     C_R   0.200924 0.577777 0.765464 -0.120391
C106  C     C_R   0.209626 0.574470 0.725763 -0.117283
C107  C     C_R   0.158009 0.664753 0.704249 0.028799
C108  C     C_R   0.098262 0.758561 0.722915 -0.118768
C109  C     C_R   0.089047 0.761839 0.762640 -0.115812
C110  C     C_R   0.656104 0.765692 0.164775 -0.120304
C111  C     C_R   0.140264 0.671419 0.784192 0.029340
C112  C     C_R   0.200915 0.725183 0.645607 -0.122095
C113  C     C_R   0.234292 0.707406 0.607918 -0.129106
C114  C     C_R   0.200217 0.566314 0.602897 -0.124996
C115  C     C_R   0.167186 0.583969 0.640549 -0.122705
C116  C     C_R   0.171775 0.660453 0.662622 0.030990
C117  C     C_R   0.238862 0.624619 0.586954 0.022220
C118  C     C_R   0.671431 0.079080 0.906206 0.037343
C119  C     C_R   0.616233 0.042835 0.884117 -0.143096
C120  C     C_R   0.586789 0.073914 0.846264 -0.132369
Cr1   Cr    Cr6+3 0.426010 0.422500 0.497000 1.009583
Cr2   Cr    Cr6+3 0.651300 0.426310 0.501970 1.008092
Cr3   Cr    Cr6+3 0.422670 0.651170 0.501050 1.007828
Cr4   Cr    Cr6+3 0.905130 0.911420 0.992650 1.002665
Cr5   Cr    Cr6+3 0.911860 0.682710 0.002320 1.007737
Cr6   Cr    Cr6+3 0.682710 0.906840 0.004710 1.007993
H1    H     H_    0.586990 0.842844 0.112235 0.128201
H2    H     H_    0.497569 0.777456 0.403145 0.126722
H3    H     H_    0.897428 0.561389 0.175119 0.099249
H4    H     H_    0.783296 0.494427 0.419529 0.123367
H5    H     H_    0.148418 0.569085 0.092899 0.124121
H6    H     H_    0.269238 0.763108 0.283870 0.107801
H7    H     H_    0.184188 0.566498 0.161711 0.103967
H8    H     H_    0.042358 0.667924 0.282380 0.111223
H9    H     H_    0.896259 0.587384 0.105968 0.125565
H10   H     H_    0.030937 0.678656 0.212079 0.113056
H11   H     H_    0.272279 0.482293 0.385986 0.127348
H12   H     H_    0.095840 0.885740 0.159173 0.100952
H13   H     H_    0.210341 0.786408 0.415742 0.118592
H14   H     H_    0.876291 0.079697 0.097479 0.121258
H15   H     H_    0.570762 0.121807 0.087765 0.118088
H16   H     H_    0.504281 0.212625 0.331563 0.099269
H17   H     H_    0.517615 0.301470 0.276146 0.105473
H18   H     H_    0.533939 0.289582 0.206465 0.103050
H19   H     H_    0.841531 0.518282 0.358078 0.100989
H20   H     H_    0.850038 0.127325 0.165321 0.100829
H21   H     H_    0.821782 0.039857 0.289142 0.104097
H22   H     H_    0.838193 0.028451 0.219346 0.109615
H23   H     H_    0.813967 0.159008 0.338947 0.099192
H24   H     H_    0.790853 0.212001 0.406046 0.125527
H25   H     H_    0.545303 0.168280 0.155585 0.100989
H26   H     H_    0.479720 0.268455 0.398564 0.122633
H27   H     H_    0.835054 0.545903 0.919452 0.120875
H28   H     H_    0.542113 0.824467 0.910721 0.124259
H29   H     H_    0.509865 0.775303 0.675924 0.101977
H30   H     H_    0.788484 0.503114 0.293217 0.104537
H31   H     H_    0.493359 0.671174 0.727592 0.107223
H32   H     H_    0.812563 0.501216 0.853545 0.098461
H33   H     H_    0.815795 0.572553 0.724463 0.103734
H34   H     H_    0.824130 0.575816 0.794573 0.103975
H35   H     H_    0.782819 0.478591 0.670463 0.100198
H36   H     H_    0.521177 0.781028 0.844786 0.100529
H37   H     H_    0.483729 0.770524 0.606669 0.124906
H38   H     H_    0.087126 0.831252 0.902590 0.120855
H39   H     H_    0.805670 0.515080 0.224339 0.104258
H40   H     H_    0.142993 0.534569 0.653100 0.104236
H41   H     H_    0.258144 0.501564 0.711890 0.108545
H42   H     H_    0.241986 0.507334 0.781550 0.103868
H43   H     H_    0.139334 0.809660 0.835927 0.101040
H44   H     H_    0.057937 0.828878 0.706713 0.104483
H45   H     H_    0.040197 0.834761 0.776416 0.106198
H46   H     H_    0.263256 0.753829 0.596268 0.124994
H47   H     H_    0.107599 0.540652 0.826006 0.101479
H48   H     H_    0.201542 0.502886 0.587187 0.128170
H49   H     H_    0.601384 0.985105 0.895318 0.129405
H50   H     H_    0.733606 0.239215 0.678117 0.108166
H51   H     H_    0.553950 0.321013 0.791917 0.102907
H52   H     H_    0.548010 0.041350 0.829551 0.106594
H53   H     H_    0.643252 0.027918 0.703047 0.108906
H54   H     H_    0.641757 0.003715 0.772205 0.107564
H55   H     H_    0.501467 0.161034 0.647233 0.105739
H56   H     H_    0.672748 0.828130 0.305599 0.104765
H57   H     H_    0.503820 0.207705 0.580337 0.117478
H58   H     H_    0.678187 0.238564 0.839948 0.098809
H59   H     H_    0.738255 0.283661 0.611547 0.124942
H60   H     H_    0.688378 0.839958 0.236487 0.110354
O1    O     O_R   0.324990 0.503440 0.453910 -0.519336
O2    O     O_R   0.639980 0.519500 0.542640 -0.503454
O3    O     O_R   0.500750 0.673190 0.545480 -0.520632
O4    O     O_R   0.336260 0.640450 0.538210 -0.504240
O5    O     O_3   0.499990 0.499990 0.500010 -0.233796
O6    O     O_R   0.834210 0.019400 0.034570 -0.524641
O7    O     O_R   0.002210 0.824620 0.031030 -0.502345
O8    O     O_R   0.024400 0.669340 0.039790 -0.520155
O9    O     O_R   0.830490 0.694950 0.045870 -0.502566
O10   O     O_R   0.675430 0.831160 0.051290 -0.517945
O11   O     O_R   0.698870 0.998880 0.039560 -0.500650
O12   O     O_R   0.522030 0.339050 0.458320 -0.503991
O13   O     O_R   0.811290 0.006780 0.950620 -0.519141
O14   O     O_R   0.980960 0.812920 0.953200 -0.500640
O15   O     O_R   0.001480 0.656720 0.955830 -0.520682
O16   O     O_R   0.809240 0.683250 0.968050 -0.501519
O17   O     O_R   0.652500 0.818540 0.967340 -0.521239
O18   O     O_R   0.677620 0.987170 0.961730 -0.505162
O19   O     O_3   0.833240 0.833660 0.999890 -0.233009
O20   O     O_R   0.676180 0.324490 0.458320 -0.519131
O21   O     O_R   0.643570 0.521510 0.464260 -0.501587
O22   O     O_R   0.504630 0.675350 0.460920 -0.518742
O23   O     O_R   0.339850 0.642450 0.459830 -0.501525
O24   O     O_R   0.321120 0.501280 0.538470 -0.518309
O25   O     O_R   0.518440 0.337050 0.536710 -0.498940
O26   O     O_R   0.672300 0.322330 0.542880 -0.521530
H61   H     H_    0.057530 0.889967 0.090072 0.122210
C121  C     C_3   0.124487 0.878811 0.348538 -0.285386
C122  C     C_3   0.026142 0.944637 0.370457 -0.440727
H62   H     H_    0.968139 0.921901 0.362607 0.160758
H63   H     H_    0.041372 0.936857 0.401963 0.148664
H64   H     H_    0.994471 0.026251 0.362871 0.127337
H65   H     H_    0.181527 0.902868 0.356354 0.132396
H66   H     H_    0.105092 0.894989 0.317589 0.150188
H67   H     H_    0.255143 0.777195 0.213426 0.106077
H68   H     H_    0.210911 0.536773 0.320634 0.107539
H69   H     H_    0.501692 0.672810 0.797779 0.102824
H70   H     H_    0.757507 0.473322 0.601058 0.121150
H71   H     H_    0.057729 0.560606 0.892829 0.125972
H72   H     H_    0.204932 0.784646 0.662272 0.101866
H73   H     H_    0.588940 0.816380 0.181019 0.104421
C123  C     C_3   0.736880 0.207627 0.914203 -0.272442
C124  C     C_3   0.670390 0.269474 0.947770 -0.426805
H74   H     H_    0.592634 0.326875 0.937079 0.152065
H75   H     H_    0.663649 0.218954 0.968754 0.157933
H76   H     H_    0.705676 0.310376 0.962839 0.136670
H77   H     H_    0.814814 0.150994 0.924717 0.171866
H78   H     H_    0.747177 0.261361 0.895998 0.125939
H79   H     H_    0.561075 0.342578 0.722949 0.113573
H80   H     H_    0.554894 0.799808 0.341463 0.101602

loop_
_geom_bond_atom_site_label_1
_geom_bond_atom_site_label_2
_ccdc_geom_bond_type
C92   H35   S    
C8    C9    A    
C15   C18   A    
C49   H8    S    
C26   H39   S    
C52   H68   S    
C101  C102  A    
C22   C98   S    
C53   C58   A    
C66   O2    A    
Cr4   O19   S    
C41   C42   A    
C14   C18   A    
C95   C96   A    
C92   C96   A    
C72   C76   A    
C25   O18   A    
C67   H17   S    
C25   C118  S    
C41   H7    S    
C14   H57   S    
C85   C91   A    
C48   C57   S    
C33   O22   A    
C85   C86   A    
C56   C57   A    
C15   H59   S    
Cr4   O13   S    
Cr5   O15   S    
C59   C64   A    
C124  H74   S    
C46   H67   S    
C53   H11   S    
C77   O4    A    
C30   H60   S    
C66   C97   S    
C22   O14   A    
C36   C37   A    
Cr2   O5    S    
C21   C59   S    
C124  H76   S    
C77   C117  S    
C121  H65   S    
C122  H63   S    
C61   H20   S    
C54   C58   A    
C79   C84   A    
C73   H24   S    
C98   C104  A    
C112  C116  A    
C106  C107  A    
Cr5   O9    S    
Cr6   O19   S    
C15   C16   A    
C66   O3    A    
C20   C88   S    
C103  H47   S    
C108  C109  A    
C43   H12   S    
C44   O23   A    
C49   C50   A    
C2    C13   A    
Cr2   O20   S    
C118  C119  A    
C123  C124  S    
C120  H52   S    
C124  H75   S    
C119  H49   S    
C55   O26   A    
C84   H28   S    
C2    C110  A    
C35   C36   A    
C44   C58   S    
C16   C17   A    
C65   C67   A    
Cr4   O7    S    
C62   C71   S    
C45   H61   S    
C107  C108  A    
C101  H43   S    
C70   C71   A    
Cr3   O3    S    
Cr1   O24   S    
C9    C10   A    
C20   O9    A    
C56   C121  S    
C9    H53   S    
C42   C51   S    
C39   C45   A    
C16   H50   S    
C1    O12   A    
C108  H44   S    
C105  C111  A    
C59   C60   A    
C12   H55   S    
C34   C38   A    
C1    C78   S    
C74   H26   S    
C102  C111  S    
C61   C62   A    
C54   H13   S    
C112  C113  A    
C89   H33   S    
C113  H46   S    
C7    H79   S    
Cr1   O12   S    
C54   C56   A    
Cr5   O16   S    
C112  H72   S    
C74   C75   A    
C23   O16   A    
C67   C68   A    
C88   C99   A    
C47   C48   A    
C80   H27   S    
C35   C38   A    
C3    C11   S    
C72   C73   A    
C29   H56   S    
C122  H64   S    
C6    C11   A    
C65   H18   S    
C86   C87   A    
C68   C69   A    
C21   O6    A    
C99   H1    S    
C94   C97   A    
Cr6   O18   S    
C65   C71   A    
C99   C110  A    
C46   C51   A    
C81   C82   A    
C82   C91   S    
C63   C64   A    
C13   C24   A    
C23   O17   A    
C2    C31   S    
Cr3   O4    S    
C32   C34   A    
C109  H45   S    
C12   C17   A    
C75   C76   A    
C29   C30   A    
C25   O13   A    
C75   H16   S    
Cr1   O1    S    
C85   H69   S    
Cr2   O2    S    
C83   C84   A    
C114  H48   S    
C73   C78   A    
C87   C96   S    
C62   C63   A    
C50   C51   A    
C26   C27   A    
C94   C95   A    
C100  H38   S    
C32   C37   A    
C4    H58   S    
C115  H40   S    
C1    O20   A    
C24   C88   A    
C35   H4    S    
C63   H25   S    
C123  H77   S    
C19   C39   S    
C77   O24   A    
C60   H14   S    
C113  C117  A    
C18   C55   S    
Cr6   O11   S    
C34   H2    S    
C40   C41   A    
C92   C93   A    
C40   H5    S    
C12   C14   A    
C82   C83   A    
C98   C100  A    
C10   C11   A    
C87   C89   A    
C6    H51   S    
C74   C78   A    
C69   H21   S    
Cr2   O26   S    
C80   C81   A    
C70   H22   S    
C42   C43   A    
Cr3   O5    S    
C3    C4    A    
C28   C29   A    
C93   C97   A    
Cr4   O6    S    
C52   C53   A    
C24   H9    S    
C32   H80   S    
C27   H30   S    
C46   C47   A    
C33   O21   A    
C81   H32   S    
C22   O15   A    
C121  C122  S    
C5    C118  A    
C123  H78   S    
Cr2   O21   S    
C83   H36   S    
C3    C120  A    
C33   C38   S    
C21   O11   A    
C4    C5    A    
Cr1   O5    S    
C119  C120  A    
C105  H42   S    
C19   O7    A    
C6    C7    A    
Cr6   O17   S    
C68   C76   S    
C105  C106  A    
Cr4   O14   S    
C8    C17   S    
C5    C123  S    
C47   H6    S    
C110  H73   S    
C10   H54   S    
C106  H41   S    
C109  C111  A    
C28   C37   S    
C43   C45   A    
C50   H10   S    
C90   C91   A    
C30   C31   A    
Cr5   O8    S    
C48   C49   A    
Cr3   O23   S    
Cr5   O19   S    
C100  C101  A    
Cr3   O22   S    
C93   H70   S    
C95   H29   S    
C114  C115  A    
Cr1   O25   S    
C122  H62   S    
C90   H34   S    
C102  C103  A    
C86   H31   S    
C69   C70   A    
C107  C116  S    
C114  C117  A    
C7    C8    A    
C52   C57   A    
C44   O1    A    
C55   O25   A    
C79   C80   A    
C39   C40   A    
Cr6   O10   S    
C36   H19   S    
C26   C31   A    
C19   O8    A    
C104  H71   S    
C72   H23   S    
C64   H15   S    
C103  C104  A    
C13   H3    S    
C60   C61   A    
C121  H66   S    
C23   C79   S    
C89   C90   A    
C94   H37   S    
C20   O10   A    
C115  C116  A    
C27   C28   A    
