data_mof_unit_20178.cif
_audit_creation_date              2012-12-11T15:49:30-0500
_audit_creation_method            fapswitch 2.2
_symmetry_space_group_name_H-M    P1
_symmetry_Int_Tables_number       1
_space_group_crystal_system       triclinic
_cell_length_a                    8.283319
_cell_length_b                    19.039426
_cell_length_c                    27.026037
_cell_angle_alpha                 95.026187
_cell_angle_beta                  92.722945
_cell_angle_gamma                 85.247616
_cell_volume                      4227.80109156

loop_
_atom_site_label
_atom_site_type_symbol
_atom_type_description
_atom_site_fract_x
_atom_site_fract_y
_atom_site_fract_z
_atom_type_partial_charge
Ba1   Ba    Ba6+2 0.854000 0.466860 0.523710 1.663801
Ba2   Ba    Ba6+2 0.335820 0.533080 0.476290 1.674183
C1    C     C_3   0.524668 0.262285 0.705253 -0.254018
C2    C     C_3   0.614378 0.287386 0.662218 0.238463
C3    C     C_3   0.584512 0.629903 0.631895 0.339713
C4    C     C_3   0.671132 0.648568 0.681647 -0.328133
C5    C     C_3   0.071709 0.685396 0.341353 0.323577
C6    C     C_3   0.089071 0.706210 0.288951 -0.296316
C7    C     C_3   0.535339 0.723249 0.360666 0.338205
C8    C     C_3   0.482874 0.796436 0.344452 -0.359737
C9    C     C_R   0.949558 0.441978 0.174323 0.617321
C10   C     C_R   0.924981 0.568533 0.178598 0.593083
C11   C     C_2   0.755943 0.546973 0.271585 -0.126686
C12   C     C_3   0.112395 0.323439 0.660582 0.380630
C13   C     C_3   0.744399 0.570758 0.325869 -0.051435
C14   C     C_1   0.981221 0.487638 0.341595 0.000185
C15   C     C_2   0.013563 0.479896 0.292811 0.336077
C16   C     C_2   0.891698 0.509948 0.254983 0.186912
C17   C     C_R   0.991536 0.501820 0.099952 -0.075954
C18   C     C_R   0.986835 0.438866 0.123353 -0.051755
C19   C     C_R   0.010287 0.374078 0.094709 -0.091135
C20   C     C_R   0.958004 0.567002 0.127737 -0.025887
C21   C     C_2   0.853639 0.526976 0.359363 -0.352135
C22   C     C_2   0.336948 0.479216 0.643419 -0.249189
C23   C     C_3   0.089824 0.308672 0.714232 -0.269821
C24   C     C_R   0.129520 0.434529 0.972623 0.029368
C25   C     C_R   0.047718 0.561582 0.972952 0.023182
C26   C     C_R   0.110286 0.497483 0.947687 0.052478
C27   C     C_R   0.219556 0.375685 0.949161 -0.041092
C28   C     C_R   0.268757 0.375593 0.900460 -0.034540
C29   C     C_R   0.234458 0.435155 0.873481 -0.034371
C30   C     C_R   0.156835 0.496628 0.897333 -0.082065
C31   C     C_R   0.127902 0.557582 0.871193 -0.030204
C32   C     C_R   0.172474 0.555720 0.821169 0.592441
C33   C     C_R   0.279555 0.435017 0.823587 0.585631
C34   C     C_3   0.187662 0.318299 0.419812 0.305979
C35   C     C_2   0.441219 0.473413 0.731084 -0.097477
C36   C     C_3   0.483935 0.481023 0.677982 -0.043264
C37   C     C_1   0.202887 0.514352 0.658983 -0.010076
C38   C     C_2   0.163745 0.517223 0.706383 -0.119873
C39   C     C_2   0.288080 0.493688 0.745503 0.211796
C40   C     C_R   0.067272 0.433915 0.021214 -0.024076
C41   C     C_R   0.027031 0.499787 0.048562 0.050229
C42   C     C_R   0.019992 0.563820 0.024757 0.026126
C43   C     C_R   0.042394 0.370731 0.043921 -0.045246
C44   C     C_R   0.957790 0.629746 0.104199 -0.059410
C45   C     C_3   0.195752 0.238566 0.407781 -0.392311
C46   C     C_R   0.017243 0.621558 0.945502 -0.100302
C47   C     C_R   0.055381 0.619336 0.895678 -0.057732
C48   C     C_R   0.987404 0.628288 0.053885 -0.101989
C49   C     C_R   0.400367 0.299142 0.523545 -0.269952
C50   C     C_R   0.535208 0.275994 0.495731 0.095985
C51   C     C_R   0.581387 0.203384 0.488410 -0.067540
C52   C     C_R   0.493619 0.153639 0.509413 0.009361
C53   C     C_R   0.353460 0.178059 0.535591 -0.069404
C54   C     C_R   0.305408 0.250525 0.541626 0.018091
C55   C     C_R   0.539726 0.035414 0.544723 -0.067734
C56   C     C_3   0.160453 0.689550 0.620489 0.682396
C57   C     C_R   0.592046 0.963432 0.540571 -0.079626
C58   C     C_R   0.654882 0.930775 0.496059 0.061322
C59   C     C_R   0.665301 0.972189 0.455900 -0.070793
C60   C     C_R   0.612628 0.044306 0.460027 -0.082216
C61   C     C_R   0.548608 0.076794 0.504467 0.046430
C62   C     C_R   0.850482 0.827522 0.467657 -0.136351
C63   C     C_R   0.899607 0.754922 0.465025 0.036728
C64   C     C_R   0.664001 0.733384 0.509291 0.027733
C65   C     C_R   0.614363 0.805597 0.512472 -0.136053
C66   C     C_R   0.706847 0.853667 0.491585 -0.019893
C67   C     C_3   0.203866 0.706211 0.675903 -0.364106
C68   C     C_R   0.805074 0.708445 0.485305 -0.249007
C69   C     C_3   0.673563 0.382117 0.376171 0.294176
C70   C     C_3   0.694237 0.362109 0.320956 -0.368779
H1    H     H_    0.277240 0.222960 0.376542 0.119890
H2    H     H_    0.242656 0.211006 0.440458 0.049322
H3    H     H_    0.072681 0.221772 0.397157 0.130725
H4    H     H_    0.265165 0.660271 0.602969 0.048105
H5    H     H_    0.094746 0.726658 0.696548 0.109680
H6    H     H_    0.295347 0.745987 0.680496 0.118498
H7    H     H_    0.255601 0.657744 0.692624 0.062534
H8    H     H_    0.788690 0.400376 0.392933 0.010956
H9    H     H_    0.576146 0.425471 0.380681 0.080187
H10   H     H_    0.610128 0.256986 0.737977 0.149218
H11   H     H_    0.804979 0.325717 0.315416 0.125340
H12   H     H_    0.705131 0.410032 0.301327 0.064644
H13   H     H_    0.587574 0.335496 0.304557 0.122177
H14   H     H_    0.524199 0.303272 0.632523 -0.037715
H15   H     H_    0.468900 0.609134 0.639404 -0.119290
H16   H     H_    0.655125 0.586645 0.611411 0.100100
H17   H     H_    0.594147 0.688294 0.704409 0.108203
H18   H     H_    0.695932 0.600580 0.702181 0.085760
H19   H     H_    0.787666 0.670837 0.675830 0.127886
H20   H     H_    0.428662 0.303440 0.716871 0.083814
H21   H     H_    0.116103 0.356025 0.739156 0.087503
H22   H     H_    0.161458 0.640000 0.347475 0.109650
H23   H     H_    0.947550 0.669335 0.344615 -0.045558
H24   H     H_    0.194268 0.738274 0.287375 0.138586
H25   H     H_    0.110332 0.657790 0.263503 0.139516
H26   H     H_    0.977681 0.737487 0.276516 0.123773
H27   H     H_    0.668492 0.714097 0.356337 -0.052983
H28   H     H_    0.508087 0.722845 0.400538 0.059528
H29   H     H_    0.553976 0.836324 0.366274 0.067407
H30   H     H_    0.352378 0.809925 0.351021 0.151159
H31   H     H_    0.026536 0.368903 0.652278 0.088778
H32   H     H_    0.504314 0.798191 0.304342 0.121791
H33   H     H_    0.994885 0.325466 0.111437 0.157159
H34   H     H_    0.536437 0.458934 0.758167 0.114177
H35   H     H_    0.334835 0.328454 0.884048 0.134888
H36   H     H_    0.258193 0.329672 0.968640 0.082528
H37   H     H_    0.666735 0.569447 0.245440 0.121769
H38   H     H_    0.934365 0.680791 0.124719 0.122196
H39   H     H_    0.959884 0.670804 0.961293 0.073633
H40   H     H_    0.238055 0.338002 0.656977 -0.085834
H41   H     H_    0.029119 0.666840 0.876462 0.123778
H42   H     H_    0.041273 0.534952 0.716819 0.125568
H43   H     H_    0.988982 0.678993 0.039095 0.072986
H44   H     H_    0.842762 0.539898 0.399035 0.096785
H45   H     H_    0.333707 0.440881 0.611242 0.053926
H46   H     H_    0.504543 0.824070 0.531403 0.095541
H47   H     H_    0.585235 0.933444 0.572550 0.068702
H48   H     H_    0.494560 0.058992 0.579830 0.108547
H49   H     H_    0.687086 0.186084 0.467154 0.064893
H50   H     H_    0.711299 0.948491 0.420938 0.063881
H51   H     H_    0.963945 0.297046 0.719843 0.175998
H52   H     H_    0.619562 0.074366 0.428101 0.060255
H53   H     H_    0.925367 0.863355 0.452099 0.078368
H54   H     H_    0.278848 0.140871 0.549757 0.090939
H55   H     H_    0.844269 0.652666 0.483748 0.075555
H56   H     H_    0.362275 0.354996 0.527878 0.057193
H57   H     H_    0.170746 0.262754 0.724849 0.143112
H58   H     H_    0.311226 0.334690 0.428461 -0.004586
H59   H     H_    0.110719 0.332276 0.452306 0.068419
N1    N     N_R   0.925113 0.506447 0.202010 -0.407037
N2    N     N_R   0.245793 0.494575 0.797504 -0.424187
O1    O     O_2   0.913240 0.537010 0.617740 -0.455872
O2    O     O_3   0.632417 0.322611 0.398219 -0.642191
O3    O     O_3   0.081366 0.263667 0.628248 -0.530254
O4    O     O_2   0.276450 0.462960 0.382230 -0.445362
O5    O     O_3   0.044470 0.462980 0.442430 -0.492481
O6    O     O_3   0.519740 0.589470 0.411120 -0.481632
O7    O     O_3   0.122340 0.350206 0.378013 -0.653088
O8    O     O_3   0.632420 0.583650 0.524140 -0.485588
O9    O     O_3   0.111040 0.625070 0.435230 -0.492448
O10   O     O_2   0.236276 0.748814 0.463613 -0.458490
O11   O     O_3   0.099614 0.743335 0.375465 -0.617201
O12   O     O_3   0.145240 0.536960 0.557560 -0.466720
O13   O     O_3   0.557280 0.416300 0.475860 -0.491595
O14   O     O_2   0.376710 0.670070 0.522470 -0.425111
O15   O     O_3   0.556497 0.691132 0.606153 -0.651219
O16   O     O_2   0.416034 0.535732 0.322255 -0.440443
O17   O     O_3   0.451216 0.672016 0.331418 -0.598265
O18   O     O_2   0.934744 0.387323 0.193582 -0.616897
O19   O     O_2   0.347749 0.381550 0.803306 -0.612031
O20   O     O_2   0.894712 0.625545 0.202004 -0.624495
O21   O     O_2   0.148372 0.609071 0.798948 -0.605080
O22   O     O_3   0.669960 0.410470 0.588880 -0.465165
O23   O     O_2   0.809011 0.460996 0.672831 -0.496653
O24   O     O_3   0.025841 0.648949 0.614147 -0.653564
O25   O     O_3   0.706711 0.342774 0.682046 -0.623090
O26   O     O_2   0.812980 0.329910 0.477500 -0.456041
O27   O     O_3   0.078660 0.374870 0.564770 -0.507664
O28   O     O_2   0.969332 0.250362 0.535862 -0.463471
P1    P     P_3+3 0.082480 0.557670 0.610090 0.972385
P2    P     P_3+3 0.635220 0.340300 0.462910 0.992013
P3    P     P_3+3 0.108940 0.283498 0.567259 0.995083
P4    P     P_3+3 0.107220 0.442270 0.389900 0.993404
P5    P     P_3+3 0.087389 0.717904 0.435748 0.977424
P6    P     P_3+3 0.659175 0.422124 0.654193 0.941555
P7    P     P_3+3 0.559311 0.670838 0.541434 0.971826
P8    P     P_3+3 0.532774 0.588845 0.347052 0.953963
C71   C     C_2   0.729238 0.227853 0.641157 0.910323
O29   O     O_2   0.828449 0.197394 0.668509 -0.578845
O30   O     O_R   0.718139 0.205766 0.590756 -0.761273
H60   H     H_    0.796613 0.163427 0.581496 0.321911
O31   O     O_3   0.133242 0.752200 0.595275 -0.639924
C72   C     C_3   0.985303 0.791007 0.607401 0.201372
H61   H     H_    0.969256 0.836975 0.584607 0.055845
H62   H     H_    0.879174 0.759510 0.598353 0.052728
H63   H     H_    0.986799 0.812352 0.646950 0.026247
C73   C     C_2   0.453260 0.192375 0.692358 0.829586
O32   O     O_2   0.362346 0.184113 0.655771 -0.614197
O33   O     O_R   0.493793 0.136664 0.722177 -0.711725
H64   H     H_    0.439702 0.092249 0.709705 0.321628
O34   O     O_3   0.170426 0.462012 0.277974 -0.619355
C74   C     C_3   0.201469 0.387684 0.271784 0.283169
H65   H     H_    0.095067 0.356857 0.276468 0.035450
H66   H     H_    0.299197 0.371254 0.298791 0.051570
H67   H     H_    0.246578 0.372792 0.234001 0.063275
C75   C     C_2   0.021586 0.301762 0.015175 0.852881
O35   O     O_2   0.951185 0.299785 0.974306 -0.593035
O36   O     O_R   0.076595 0.238835 0.035782 -0.750705
H68   H     H_    0.053714 0.195353 0.012933 0.325276

loop_
_geom_bond_atom_site_label_1
_geom_bond_atom_site_label_2
_ccdc_geom_bond_type
C25   C46   A    
C68   H55   S    
C47   H41   S    
C53   C54   A    
C23   H21   S    
O36   H68   S    
C28   H35   S    
C67   H5    S    
C17   C18   A    
C6    H24   S    
C10   O20   D    
C41   C42   A    
C23   H57   S    
C9    N1    Am   
C33   N2    Am   
C52   C61   S    
C39   N2    S    
C70   H13   S    
C67   H6    S    
C56   H4    S    
C5    C6    S    
C72   H62   S    
C33   O19   D    
C64   C68   A    
O33   H64   S    
O30   H60   S    
Ba2   O12   S    
C12   H40   S    
C22   H45   S    
C60   C61   A    
C2    C71   S    
C11   C16   D    
C58   C59   A    
O5    P4    S    
O16   P8    D    
C49   H56   S    
O27   P3    S    
C35   C36   S    
Ba1   Ba2   S    
C8    H29   S    
C69   O2    S    
C28   C29   A    
C48   H43   S    
C55   C57   A    
O17   P8    S    
C2    H14   S    
O12   P1    S    
C31   C47   A    
C4    H19   S    
C10   C20   A    
C22   C37   D    
C74   H65   S    
C13   P8    S    
C34   C45   S    
C75   O36   S    
C49   C54   A    
Ba1   O22   S    
C1    C73   S    
O31   C72   S    
C5    O11   S    
C11   H37   S    
C21   H44   S    
C3    H16   S    
C16   N1    S    
C25   C42   A    
C2    O25   S    
C72   H61   S    
O22   P6    S    
C14   C15   D    
C15   C16   S    
C22   C36   S    
C27   H36   S    
Ba1   O12   S    
C7    C8    S    
C13   C21   S    
C64   C65   A    
C57   C58   A    
C7    H27   S    
C3    O15   S    
Ba1   O13   S    
C56   O31   S    
C60   H52   S    
C69   H8    S    
C17   C41   A    
O25   P6    S    
C55   C61   A    
C72   H63   S    
C19   C43   A    
C32   O21   D    
C36   P6    S    
C7    O17   S    
C38   H42   S    
C9    C18   A    
C65   C66   A    
Ba2   O5    S    
Ba1   O26   S    
C17   C20   A    
C45   H1    S    
C34   H59   S    
C37   C38   D    
O23   P6    D    
Ba2   O14   S    
C4    H18   S    
C63   P5    S    
C49   C50   A    
O11   P5    S    
C1    H20   S    
C40   C43   A    
O34   C74   S    
C75   O35   D    
O10   P5    D    
C27   C28   A    
C34   H58   S    
O9    P5    S    
C23   H51   S    
C15   O34   S    
C74   H66   S    
C29   C30   A    
C53   H54   S    
C26   C30   A    
C14   P4    S    
C1    H10   S    
C31   C32   A    
C56   C67   S    
C37   P1    S    
C6    H26   S    
C34   O7    S    
Ba2   P4    S    
Ba1   P2    S    
C70   H12   S    
C55   H48   S    
C9    O18   D    
C46   C47   A    
C20   C44   A    
Ba1   P1    S    
C14   C21   D    
C11   C13   S    
O4    P4    D    
O15   P7    S    
O26   P2    D    
C67   H7    S    
C40   C41   A    
Ba2   O6    S    
C1    C2    S    
C62   C66   A    
O28   P3    D    
C50   C51   A    
C24   C40   A    
O3    P3    S    
C42   C48   A    
O7    P4    S    
C5    H22   S    
C44   C48   A    
C52   C53   A    
C38   C39   S    
O8    P7    S    
C57   H47   S    
C10   N1    Am   
Ba2   O4    S    
O2    P2    S    
Ba1   O27   S    
C45   H2    S    
C56   O24   S    
C43   C75   S    
C51   C52   A    
Ba2   O13   S    
C4    H17   S    
C5    H23   S    
O13   P2    S    
C54   P3    S    
C24   C26   A    
C32   N2    Am   
C74   H67   S    
C64   P7    S    
C30   C31   A    
C44   H38   S    
C45   H3    S    
C69   C70   S    
C51   H49   S    
C62   C63   A    
C12   H31   S    
C3    C4    S    
C12   O3    S    
C6    H25   S    
Ba2   O9    S    
C8    H30   S    
C8    H32   S    
C7    H28   S    
O6    P8    S    
C29   C33   A    
C12   C23   S    
C35   C39   D    
C59   C60   A    
C65   H46   S    
C70   H11   S    
Ba1   O8    S    
O14   P7    D    
C50   P2    S    
C73   O32   D    
C3    H15   S    
O1    P1    D    
C35   H34   S    
C46   H39   S    
C18   C19   A    
C58   C66   S    
C24   C27   A    
C62   H53   S    
C71   O29   D    
C25   C26   A    
Ba2   O8    S    
C59   H50   S    
C71   O30   S    
C69   H9    S    
C63   C68   A    
O24   P1    S    
C19   H33   S    
Ba1   O5    S    
Ba1   O1    S    
C73   O33   S    
