data_mof_unit_36780.cif
_audit_creation_date              2012-12-11T15:50:40-0500
_audit_creation_method            fapswitch 2.2
_symmetry_space_group_name_H-M    P1
_symmetry_Int_Tables_number       1
_space_group_crystal_system       triclinic
_cell_length_a                    6.922511
_cell_length_b                    14.5042
_cell_length_c                    16.178968
_cell_angle_alpha                 90.000015
_cell_angle_beta                  89.999953
_cell_angle_gamma                 89.999953
_cell_volume                      1624.45711341

loop_
_atom_site_label
_atom_site_type_symbol
_atom_type_description
_atom_site_fract_x
_atom_site_fract_y
_atom_site_fract_z
_atom_type_partial_charge
O1    O     O_R   0.638140 0.833910 0.163320 -0.532900
O2    O     O_R   0.361860 0.166090 0.836680 -0.542301
O3    O     O_R   0.361860 0.166090 0.663320 -0.532900
O4    O     O_R   0.638140 0.833910 0.336680 -0.542301
O5    O     O_R   0.138140 0.666090 0.336680 -0.532899
O6    O     O_R   0.861860 0.333910 0.663320 -0.542300
O7    O     O_R   0.861860 0.333910 0.836680 -0.532898
O8    O     O_R   0.138140 0.666090 0.163320 -0.542300
O9    O     O_R   0.308390 0.844930 0.336080 -0.528363
O10   O     O_R   0.691610 0.155070 0.663920 -0.526954
O11   O     O_R   0.691610 0.155070 0.836080 -0.528363
O12   O     O_R   0.308390 0.844930 0.163920 -0.526954
O13   O     O_R   0.808390 0.655070 0.163920 -0.528371
O14   O     O_R   0.191610 0.344930 0.836080 -0.526954
O15   O     O_R   0.191610 0.344930 0.663920 -0.528367
O16   O     O_R   0.808390 0.655070 0.336080 -0.526953
C1    C     C_R   0.476608 0.868308 0.364049 0.693770
C2    C     C_R   0.523625 0.131622 0.635935 0.699865
C3    C     C_R   0.523392 0.131692 0.864048 0.693768
C4    C     C_R   0.476375 0.868378 0.135935 0.699863
C5    C     C_R   0.976608 0.631693 0.135951 0.693767
C6    C     C_R   0.023624 0.368378 0.864065 0.699866
C7    C     C_R   0.023392 0.368308 0.635951 0.693769
C8    C     C_R   0.976375 0.631622 0.364065 0.699870
O17   O     O_3   0.471620 0.691320 0.250000 -0.351714
O18   O     O_3   0.528380 0.308680 0.750000 -0.351714
O19   O     O_3   0.971620 0.808680 0.250000 -0.351712
O20   O     O_3   0.028380 0.191320 0.750000 -0.351712
V1    V     V_3+5 0.196770 0.760880 0.250000 1.557341
V2    V     V_3+5 0.803230 0.239120 0.750000 1.557339
V3    V     V_3+5 0.696770 0.739120 0.250000 1.557338
V4    V     V_3+5 0.303230 0.260880 0.750000 1.557337
C9    C     C_R   0.842279 0.493337 0.444940 0.004507
C10   C     C_R   0.154545 0.507265 0.555989 0.002342
C11   C     C_R   0.157720 0.506664 0.944939 0.004509
C12   C     C_R   0.845457 0.492735 0.055990 0.002344
C13   C     C_R   0.342280 0.006663 0.055060 0.004510
C14   C     C_R   0.654545 0.992735 0.944011 0.002340
C15   C     C_R   0.657720 0.993337 0.555060 0.004511
C16   C     C_R   0.345454 0.007265 0.444011 0.002340
C17   C     C_R   0.862337 0.430474 0.510319 -0.151833
C18   C     C_R   0.136888 0.569148 0.489709 -0.129368
C19   C     C_R   0.137663 0.569527 0.010318 -0.151826
C20   C     C_R   0.863113 0.430852 0.989710 -0.129369
C21   C     C_R   0.362338 0.069526 0.989681 -0.151839
C22   C     C_R   0.636887 0.930851 0.010290 -0.129363
C23   C     C_R   0.637663 0.930474 0.489681 -0.151838
C24   C     C_R   0.363113 0.069148 0.510291 -0.129362
H1    H     H_    0.755618 0.376271 0.517378 0.160124
H2    H     H_    0.243718 0.623328 0.482852 0.154335
H3    H     H_    0.244381 0.623730 0.017376 0.160122
H4    H     H_    0.756283 0.376672 0.982853 0.154329
H5    H     H_    0.255619 0.123729 0.982623 0.160121
H6    H     H_    0.743718 0.876671 0.017148 0.154336
H7    H     H_    0.744382 0.876271 0.482623 0.160122
H8    H     H_    0.256282 0.123329 0.517148 0.154337
C25   C     C_R   0.015505 0.436352 0.566866 -0.145411
C26   C     C_R   0.983332 0.563530 0.433238 -0.136015
C27   C     C_R   0.984496 0.563648 0.066866 -0.145411
C28   C     C_R   0.016667 0.436470 0.933238 -0.136014
C29   C     C_R   0.515506 0.063648 0.933134 -0.145410
C30   C     C_R   0.483332 0.936470 0.066762 -0.136014
C31   C     C_R   0.484494 0.936352 0.433134 -0.145411
C32   C     C_R   0.516668 0.063530 0.566761 -0.136015
C33   C     C_2   0.673454 0.480306 0.390260 0.765266
O21   O     O_2   0.547280 0.539100 0.386682 -0.554102
O22   O     O_R   0.651248 0.396964 0.348019 -0.635268
H9    H     H_    0.526323 0.394293 0.315391 0.327542
C34   C     C_2   0.315424 0.522740 0.614163 0.766377
O23   O     O_2   0.316611 0.592088 0.657064 -0.542521
O24   O     O_R   0.470528 0.461234 0.616666 -0.652187
H10   H     H_    0.573383 0.480658 0.657744 0.297480
C35   C     C_2   0.326543 0.519694 0.890258 0.765264
O25   O     O_2   0.452720 0.460902 0.886682 -0.554101
O26   O     O_R   0.348741 0.603035 0.848013 -0.635272
H11   H     H_    0.473666 0.605706 0.815385 0.327543
C36   C     C_2   0.684582 0.477260 0.114166 0.766378
O27   O     O_2   0.683411 0.407918 0.157075 -0.542520
O28   O     O_R   0.529466 0.538760 0.116662 -0.652188
H12   H     H_    0.426616 0.519337 0.157744 0.297480
C37   C     C_2   0.173458 0.019695 0.109742 0.765253
O29   O     O_2   0.047280 0.960903 0.113319 -0.554101
O30   O     O_R   0.151261 0.103035 0.151987 -0.635275
H13   H     H_    0.026338 0.105707 0.184615 0.327543
C38   C     C_2   0.815426 0.977259 0.885837 0.766370
O31   O     O_2   0.816625 0.907905 0.842943 -0.542520
O32   O     O_R   0.970522 0.038770 0.883330 -0.652183
H14   H     H_    0.073381 0.019345 0.842253 0.297480
C39   C     C_2   0.826543 0.980306 0.609742 0.765254
O33   O     O_2   0.952720 0.039097 0.613318 -0.554102
O34   O     O_R   0.848740 0.896965 0.651986 -0.635274
H15   H     H_    0.973664 0.894294 0.684615 0.327542
C40   C     C_2   0.184572 0.022740 0.385838 0.766369
O35   O     O_2   0.183372 0.092094 0.342944 -0.542520
O36   O     O_R   0.029476 0.961228 0.383331 -0.652183
H16   H     H_    0.926616 0.980654 0.342256 0.297479

loop_
_geom_bond_atom_site_label_1
_geom_bond_atom_site_label_2
_ccdc_geom_bond_type
O17   V3    S    
O32   H14   S    
O18   V4    S    
C40   O35   D    
O12   V1    S    
O19   V1    S    
C35   O25   D    
O36   H16   S    
C10   C18   A    
C16   C40   S    
C12   C27   A    
C19   H3    S    
C18   C26   A    
C37   O29   D    
C9    C33   S    
O15   V4    S    
C38   O31   D    
O16   V3    S    
C15   C32   A    
O11   C3    A    
C9    C26   A    
C16   C31   A    
C22   C30   A    
O8    V1    S    
O2    V4    S    
O10   C2    A    
C5    C27   S    
C12   C36   S    
C23   C31   A    
C3    C29   S    
C24   C32   A    
O1    V3    S    
O3    C2    A    
C7    C25   S    
C34   O24   S    
C16   C24   A    
O11   V2    S    
C33   O22   S    
C10   C25   A    
C39   O34   S    
C11   C19   A    
C22   H6    S    
O9    V1    S    
C14   C29   A    
C20   H4    S    
O15   C7    A    
C23   H7    S    
C21   H5    S    
O16   C8    A    
O7    V2    S    
C35   O26   S    
C13   C37   S    
O3    V4    S    
C17   H1    S    
C37   O30   S    
C13   C30   A    
O5    V1    S    
C36   O28   S    
O17   V1    S    
C38   O32   S    
O19   V3    S    
O22   H9    S    
O20   V4    S    
O34   H15   S    
C14   C38   S    
C36   O27   D    
C11   C28   A    
O26   H11   S    
O10   V2    S    
O30   H13   S    
O12   C4    A    
O8    C5    A    
O13   C5    A    
C10   C34   S    
C18   H2    S    
O4    C1    A    
O9    C1    A    
O6    V2    S    
O18   V2    S    
C12   C20   A    
C13   C21   A    
C15   C23   A    
C24   H8    S    
C11   C35   S    
O1    C4    A    
O2    C3    A    
O13   V3    S    
O14   V4    S    
C19   C27   A    
O7    C6    A    
C9    C17   A    
O14   C6    A    
O20   V2    S    
C17   C25   A    
O24   H10   S    
C1    C31   S    
C6    C28   S    
C2    C32   S    
C40   O36   S    
O5    C8    A    
C20   C28   A    
O6    C7    A    
C21   C29   A    
C4    C30   S    
C34   O23   D    
C14   C22   A    
O4    V3    S    
O28   H12   S    
C8    C26   S    
C33   O21   D    
C39   O33   D    
C15   C39   S    
