data_mof_unit_43489.cif
_audit_creation_date              2012-12-11T15:41:17-0500
_audit_creation_method            fapswitch 2.2
_symmetry_space_group_name_H-M    P1
_symmetry_Int_Tables_number       1
_space_group_crystal_system       triclinic
_cell_length_a                    19.076444
_cell_length_b                    10.943576
_cell_length_c                    18.770428
_cell_angle_alpha                 90.021959
_cell_angle_beta                  90.086538
_cell_angle_gamma                 89.899002
_cell_volume                      3918.58845108

loop_
_atom_site_label
_atom_site_type_symbol
_atom_type_description
_atom_site_fract_x
_atom_site_fract_y
_atom_site_fract_z
_atom_type_partial_charge
C1    C     C_R   0.727367 0.954704 0.853129 0.537183
C2    C     C_R   0.290321 0.502530 0.045054 0.050142
C3    C     C_R   0.762052 0.857128 0.355855 0.549142
C4    C     C_2   0.507426 0.166177 0.925623 -0.119323
C5    C     C_2   0.509230 0.177366 0.082405 -0.133274
C6    C     C_2   0.004657 0.668663 0.924601 -0.131854
C7    C     C_2   0.008363 0.677336 0.081932 -0.135300
C8    C     C_2   0.524337 0.076072 0.046111 -0.147577
C9    C     C_2   0.536142 0.080068 0.968536 -0.121746
C10   C     C_2   0.020360 0.575694 0.044921 -0.142578
C11   C     C_2   0.027950 0.577525 0.966779 -0.123063
C12   C     C_R   0.781781 0.485878 0.061355 -0.020192
C13   C     C_R   0.204445 0.991519 0.958248 0.077543
C14   C     C_R   0.226647 0.461370 0.935891 -0.019504
C15   C     C_R   0.282404 0.987916 0.061152 -0.017587
C16   C     C_R   0.745841 0.915351 0.924679 -0.031478
C17   C     C_R   0.796706 0.979539 0.037252 0.047373
C18   C     C_R   0.823145 0.427627 0.943194 -0.084797
C19   C     C_R   0.180741 0.394437 0.049208 -0.104275
C20   C     C_R   0.323587 0.926090 0.943522 -0.085333
C21   C     C_R   0.695613 0.848057 0.035853 -0.100417
C22   C     C_R   0.836736 0.445762 0.015186 0.216876
C23   C     C_R   0.176708 0.394779 0.975847 0.168996
C24   C     C_R   0.337246 0.946070 0.015381 0.215374
C25   C     C_R   0.291716 0.002560 0.138800 0.553470
C26   C     C_R   0.697793 0.841545 0.962419 0.190943
C27   C     C_3   0.644918 0.475050 0.052583 -0.214755
C28   C     C_3   0.357808 0.516264 0.958777 -0.176258
C29   C     C_3   0.145182 0.985742 0.051107 -0.210848
C30   C     C_3   0.871217 0.991043 0.957072 -0.191015
C31   C     C_3   0.630695 0.442820 0.975179 0.117456
C32   C     C_3   0.368111 0.493891 0.037930 0.102948
C33   C     C_3   0.130903 0.953647 0.973651 0.108356
C34   C     C_3   0.874953 0.981118 0.037606 0.101722
C35   C     C_R   0.754864 0.435085 0.916199 -0.071048
C36   C     C_R   0.212739 0.490986 0.861608 0.560141
C37   C     C_R   0.242826 0.431298 0.083441 -0.052848
C38   C     C_R   0.255490 0.935692 0.916065 -0.062501
C39   C     C_R   0.749330 0.906772 0.074618 -0.060462
C40   C     C_R   0.511289 0.165883 0.418783 0.020315
C41   C     C_R   0.544086 0.172950 0.563033 0.021331
C42   C     C_R   0.011288 0.665882 0.418784 0.020120
C43   C     C_R   0.044081 0.672950 0.563034 0.020792
C44   C     C_R   0.543766 0.269280 0.448112 0.023737
C45   C     C_R   0.559044 0.272681 0.519863 0.017815
C46   C     C_R   0.043767 0.769277 0.448112 0.023677
C47   C     C_R   0.791548 0.502018 0.138744 0.551036
C48   C     C_R   0.059042 0.772678 0.519863 0.017749
C49   C     C_R   0.515897 0.066490 0.533184 -0.168595
C50   C     C_R   0.501871 0.061446 0.460878 -0.172307
C51   C     C_R   0.015888 0.566493 0.533186 -0.168986
C52   C     C_R   0.001864 0.561448 0.460880 -0.172358
C53   C     C_R   0.531966 0.177456 0.852162 0.550899
C54   C     C_R   0.472312 0.178430 0.150641 0.538367
C55   C     C_R   0.030828 0.677699 0.851553 0.543232
C56   C     C_R   0.972316 0.678452 0.150638 0.537022
C57   C     C_3   0.518685 0.399316 0.448600 -0.265710
C58   C     C_R   0.716755 0.514261 0.030075 -0.030938
C59   C     C_3   0.531007 0.399776 0.527574 -0.264504
C60   C     C_3   0.018689 0.899315 0.448599 -0.265664
C61   C     C_3   0.031008 0.899775 0.527574 -0.264510
C62   C     C_R   0.765241 0.445016 0.431591 0.015310
C63   C     C_R   0.251027 0.398494 0.581068 0.018645
C64   C     C_R   0.265234 0.945001 0.431587 0.015281
C65   C     C_R   0.751032 0.898482 0.581073 0.019204
C66   C     C_R   0.821111 0.396284 0.470177 0.032477
C67   C     C_R   0.205303 0.321272 0.543524 0.029430
C68   C     C_R   0.321102 0.896262 0.470172 0.032451
C69   C     C_R   0.280554 0.521912 0.972594 -0.039439
C70   C     C_R   0.705309 0.821255 0.543531 0.029132
C71   C     C_R   0.818011 0.385151 0.542870 0.027731
C72   C     C_R   0.207828 0.316081 0.470465 0.039992
C73   C     C_R   0.318005 0.885135 0.542864 0.027877
C74   C     C_R   0.707834 0.816062 0.470471 0.039763
C75   C     C_R   0.710004 0.497643 0.544521 -0.155095
C76   C     C_R   0.311648 0.439200 0.469794 -0.166332
C77   C     C_R   0.210003 0.997640 0.544518 -0.154683
C78   C     C_R   0.811653 0.939186 0.469799 -0.166250
C79   C     C_R   0.712051 0.505391 0.469809 -0.151942
C80   C     C_R   0.218112 0.019278 0.029138 -0.037553
C81   C     C_R   0.309499 0.444868 0.544529 -0.168143
C82   C     C_R   0.212049 0.005387 0.469806 -0.152115
C83   C     C_R   0.809503 0.944858 0.544534 -0.167709
C84   C     C_3   0.858397 0.277794 0.460372 -0.278869
C85   C     C_3   0.126830 0.313217 0.542349 -0.271464
C86   C     C_3   0.358382 0.777768 0.460367 -0.278910
C87   C     C_3   0.626836 0.813200 0.542356 -0.271338
C88   C     C_3   0.854805 0.264246 0.540384 -0.269439
C89   C     C_3   0.130245 0.312253 0.461981 -0.279295
C90   C     C_3   0.354795 0.764228 0.540380 -0.269510
C91   C     C_R   0.793102 0.987643 0.963556 -0.019793
C92   C     C_3   0.630251 0.812236 0.461989 -0.279002
C93   C     C_R   0.758353 0.423422 0.580279 0.018862
C94   C     C_R   0.257084 0.382022 0.431798 0.017791
C95   C     C_R   0.258350 0.923414 0.580276 0.019289
C96   C     C_R   0.757089 0.882004 0.431804 0.017413
C97   C     C_R   0.738533 0.365845 0.852023 0.540494
C98   C     C_R   0.260715 0.366934 0.148772 0.536103
C99   C     C_R   0.238606 0.865920 0.852062 0.538022
C100  C     C_R   0.761870 0.862538 0.146627 0.538246
C101  C     C_R   0.728490 0.952609 0.648409 0.532978
C102  C     C_R   0.703048 0.486635 0.959206 0.098340
C103  C     C_R   0.274799 0.962057 0.355412 0.555140
C104  C     C_R   0.228490 0.452610 0.648409 0.542776
C105  C     C_R   0.774803 0.462065 0.355415 0.555445
C106  C     C_R   0.561434 0.180401 0.637230 0.563205
C107  C     C_R   0.471545 0.176194 0.354028 0.556489
C108  C     C_R   0.061432 0.680401 0.637230 0.563661
C109  C     C_R   0.971546 0.676193 0.354027 0.556399
C110  C     C_R   0.740630 0.364638 0.647477 0.537021
C111  C     C_R   0.262050 0.357137 0.355852 0.547699
C112  C     C_R   0.240629 0.864635 0.647475 0.539748
Cr1   Cr    Cr6+3 0.769260 0.163750 0.750730 1.013626
Cr2   Cr    Cr6+3 0.385810 0.322400 0.252290 1.002168
Cr3   Cr    Cr6+3 0.114190 0.822400 0.747710 1.037219
Cr4   Cr    Cr6+3 0.885810 0.822400 0.252290 1.002280
Cr5   Cr    Cr6+3 0.230740 0.163750 0.249270 1.012296
Cr6   Cr    Cr6+3 0.269260 0.663750 0.750730 1.011491
Cr7   Cr    Cr6+3 0.730740 0.663750 0.249270 1.012479
Cr8   Cr    Cr6+3 0.612640 0.009910 0.748780 1.033153
Cr9   Cr    Cr6+3 0.387360 0.009910 0.251220 1.019419
Cr10  Cr    Cr6+3 0.112640 0.509910 0.748780 1.031338
Cr11  Cr    Cr6+3 0.887360 0.509910 0.251220 1.016290
Cr12  Cr    Cr6+3 0.614190 0.322400 0.747710 1.042353
H1    H     H_    0.526648 0.988385 0.072942 0.173901
H2    H     H_    0.481409 0.403300 0.558663 0.153359
H3    H     H_    0.054501 0.960903 0.418890 0.128035
H4    H     H_    0.981410 0.903302 0.558661 0.152865
H5    H     H_    0.668591 0.541444 0.573993 0.117618
H6    H     H_    0.353889 0.483700 0.441822 0.118942
H7    H     H_    0.168593 0.041448 0.573991 0.118293
H8    H     H_    0.853892 0.983689 0.441827 0.118798
H9    H     H_    0.671474 0.554516 0.441973 0.126633
H10   H     H_    0.349859 0.494583 0.572749 0.120393
H11   H     H_    0.171476 0.054526 0.441972 0.126670
H12   H     H_    0.569569 0.009198 0.946403 0.191910
H13   H     H_    0.849860 0.994580 0.572754 0.119932
H14   H     H_    0.912690 0.289654 0.440259 0.134627
H15   H     H_    0.101783 0.395796 0.563545 0.168250
H16   H     H_    0.412674 0.789623 0.440249 0.134756
H17   H     H_    0.601788 0.895780 0.563550 0.168924
H18   H     H_    0.826277 0.209529 0.431072 0.140384
H19   H     H_    0.106946 0.226441 0.565246 0.123023
H20   H     H_    0.326258 0.709504 0.431071 0.140300
H21   H     H_    0.606952 0.726425 0.565254 0.122398
H22   H     H_    0.819785 0.189089 0.556886 0.166118
H23   H     H_    0.023022 0.488285 0.071958 0.174683
H24   H     H_    0.110433 0.226505 0.437954 0.130564
H25   H     H_    0.319773 0.689080 0.556887 0.165549
H26   H     H_    0.610436 0.726490 0.437962 0.130576
H27   H     H_    0.907020 0.266732 0.566736 0.132926
H28   H     H_    0.109510 0.396891 0.436991 0.144672
H29   H     H_    0.407011 0.766713 0.566729 0.133240
H30   H     H_    0.609516 0.896875 0.437000 0.144903
H31   H     H_    0.516061 0.265754 0.056942 0.101181
H32   H     H_    0.473577 0.237346 0.946662 0.086268
H33   H     H_    0.015614 0.765691 0.056654 0.099530
H34   H     H_    0.053610 0.499985 0.942934 0.224495
H35   H     H_    0.976520 0.746174 0.946426 0.087315
H36   H     H_    0.865294 0.391977 0.910468 0.184585
H37   H     H_    0.140586 0.343478 0.077117 0.180390
H38   H     H_    0.365485 0.888286 0.911297 0.183036
H39   H     H_    0.656618 0.791745 0.061858 0.185190
H40   H     H_    0.115199 0.066363 0.070542 0.188362
H41   H     H_    0.889857 0.080091 0.935801 0.203721
H42   H     H_    0.613158 0.553092 0.072649 0.182539
H43   H     H_    0.378624 0.605486 0.939984 0.204271
H44   H     H_    0.645787 0.393728 0.088098 0.112333
H45   H     H_    0.962560 0.910916 0.435750 0.161932
H46   H     H_    0.372951 0.436580 0.925319 0.093127
H47   H     H_    0.143735 0.904844 0.086922 0.112914
H48   H     H_    0.892465 0.909647 0.928985 0.077887
H49   H     H_    0.622896 0.343611 0.964566 0.111382
H50   H     H_    0.390756 0.402620 0.050825 0.119379
H51   H     H_    0.120576 0.855026 0.963335 0.115102
H52   H     H_    0.900057 0.895432 0.056912 0.127521
H53   H     H_    0.500439 0.990028 0.566142 0.133601
H54   H     H_    0.476274 0.980827 0.440038 0.137353
H55   H     H_    0.000428 0.490034 0.566144 0.133497
H56   H     H_    0.069983 0.967531 0.544310 0.129457
H57   H     H_    0.976266 0.480830 0.440040 0.137367
H58   H     H_    0.911716 0.443684 0.084356 0.356921
H59   H     H_    0.152245 0.264822 0.912372 0.372754
H60   H     H_    0.412520 0.948551 0.083976 0.356730
H61   H     H_    0.675608 0.729839 0.886091 0.346526
H62   H     H_    0.534006 0.484050 0.958482 0.326689
H63   H     H_    0.406304 0.569135 0.122184 0.339118
H64   H     H_    0.035604 0.001433 0.954807 0.332618
H65   H     H_    0.901802 0.072763 0.120853 0.340066
H66   H     H_    0.462554 0.410912 0.435754 0.161995
H67   H     H_    0.569981 0.467536 0.544308 0.129432
H68   H     H_    0.554494 0.460908 0.418890 0.128087
O1    O     O_R   0.784290 0.290360 0.830540 -0.519547
O2    O     O_R   0.456020 0.282110 0.333230 -0.524286
O3    O     O_R   0.043980 0.782110 0.666770 -0.514468
O4    O     O_R   0.956020 0.782110 0.333230 -0.524043
O5    O     O_R   0.679070 0.374030 0.674430 -0.519728
O6    O     O_R   0.320930 0.374030 0.325570 -0.504949
O7    O     O_R   0.179070 0.874030 0.674430 -0.517210
O8    O     O_R   0.820930 0.874030 0.325570 -0.504195
O9    O     O_3   0.665360 0.165350 0.749070 -0.274734
O10   O     O_3   0.334640 0.165350 0.250930 -0.268101
O11   O     O_3   0.165360 0.665350 0.749070 -0.287241
O12   O     O_R   0.215710 0.290360 0.169460 -0.531466
O13   O     O_3   0.834640 0.665350 0.250930 -0.268045
O14   O     O_R   0.762610 0.041070 0.825230 -0.495152
O15   O     O_R   0.237390 0.041070 0.174770 -0.496532
O16   O     O_R   0.262610 0.541070 0.825230 -0.499807
O17   O     O_R   0.737390 0.541070 0.174770 -0.497982
O18   O     O_R   0.667390 0.924160 0.829970 -0.492055
O19   O     O_R   0.332610 0.924160 0.170030 -0.494414
O20   O     O_R   0.167390 0.424160 0.829970 -0.491192
O21   O     O_R   0.832610 0.424160 0.170030 -0.498315
O22   O     O_R   0.553980 0.081420 0.821780 -0.484169
O23   O     O_R   0.284290 0.790360 0.830540 -0.528943
O24   O     O_R   0.446020 0.081420 0.178220 -0.528848
O25   O     O_R   0.053980 0.581420 0.821780 -0.493662
O26   O     O_R   0.946020 0.581420 0.178220 -0.528472
O27   O     O_R   0.543210 0.283170 0.826740 -0.494847
O28   O     O_R   0.456790 0.283170 0.173260 -0.521662
O29   O     O_R   0.043210 0.783170 0.826740 -0.498331
O30   O     O_R   0.956790 0.783170 0.173260 -0.523602
O31   O     O_R   0.678350 0.375000 0.822720 -0.472524
O32   O     O_R   0.321650 0.375000 0.177280 -0.507265
O33   O     O_R   0.178350 0.875000 0.822720 -0.472021
O34   O     O_R   0.715710 0.790360 0.169460 -0.532259
O35   O     O_R   0.821650 0.875000 0.177280 -0.506872
O36   O     O_R   0.785060 0.289300 0.670580 -0.521481
O37   O     O_R   0.214940 0.289300 0.329420 -0.517211
O38   O     O_R   0.285060 0.789300 0.670580 -0.520520
O39   O     O_R   0.714940 0.789300 0.329420 -0.515717
O40   O     O_R   0.763330 0.040090 0.676940 -0.510624
O41   O     O_R   0.236670 0.040090 0.323060 -0.502568
O42   O     O_R   0.263330 0.540090 0.676940 -0.505635
O43   O     O_R   0.736670 0.540090 0.323060 -0.502358
O44   O     O_R   0.668160 0.923110 0.670000 -0.531895
O45   O     O_R   0.554690 0.080440 0.673480 -0.511836
O46   O     O_R   0.331840 0.923110 0.330000 -0.512224
O47   O     O_R   0.168160 0.423110 0.670000 -0.527004
O48   O     O_R   0.831840 0.423110 0.330000 -0.512163
O49   O     O_3   0.901945 0.408584 0.037573 -0.666159
O50   O     O_3   0.126943 0.320183 0.945384 -0.661348
O51   O     O_3   0.402514 0.909892 0.038192 -0.666287
O52   O     O_3   0.652350 0.761332 0.929618 -0.629603
O53   O     O_3   0.579929 0.518577 0.944134 -0.623526
O54   O     O_3   0.401909 0.592090 0.071251 -0.647033
O55   O     O_3   0.082572 0.033114 0.941769 -0.646933
O56   O     O_R   0.445310 0.080440 0.326520 -0.508680
O57   O     O_3   0.901235 0.088013 0.068765 -0.646873
O58   O     O_R   0.054690 0.580440 0.673480 -0.511926
O59   O     O_R   0.945310 0.580440 0.326520 -0.508840
O60   O     O_R   0.543980 0.282110 0.666770 -0.514322

loop_
_geom_bond_atom_site_label_1
_geom_bond_atom_site_label_2
_ccdc_geom_bond_type
Cr10  O11   S    
C7    C10   D    
C56   O30   A    
C21   C26   A    
C53   O27   A    
C53   O22   A    
C21   H39   S    
Cr10  O25   S    
C29   C33   S    
C4    C53   S    
C64   C103  S    
C68   C86   S    
C59   H67   S    
Cr6   O11   S    
C17   C91   A    
C65   C101  S    
C6    C55   S    
C35   C102  A    
C85   H19   S    
C56   O26   A    
C6    H35   S    
C30   H48   S    
C86   H20   S    
C81   H10   S    
C55   O25   A    
C62   C105  S    
C59   H2    S    
C54   O24   A    
C107  O2    A    
C99   O23   A    
H64   O55   S    
C60   H45   S    
C64   C68   A    
C2    C32   S    
C50   H54   S    
C42   C109  S    
C73   C90   S    
Cr3   O33   S    
H63   O54   S    
C35   C97   S    
C95   C112  S    
C90   H25   S    
C111  O6    A    
C19   H37   S    
Cr4   O8    S    
C26   O52   S    
C57   C59   S    
C74   C92   S    
C65   C70   A    
C12   C22   A    
C94   C111  S    
C112  O38   A    
Cr11  O13   S    
C109  O4    A    
H65   O57   S    
C67   C72   A    
C17   C39   A    
C61   H4    S    
C97   O1    A    
C82   H11   S    
C25   O19   A    
C78   H8    S    
C19   C37   A    
C28   H43   S    
C76   C94   A    
C104  O47   A    
C76   H6    S    
C78   C83   A    
C105  O48   A    
C89   H28   S    
C109  O59   A    
C20   C24   A    
C78   C96   A    
C8    C9    S    
C106  O45   A    
C98   O32   A    
C70   C74   A    
C90   H29   S    
Cr2   O10   S    
Cr6   O23   S    
C58   C102  A    
H59   O50   S    
C84   H18   S    
C63   C81   A    
C101  O40   A    
Cr5   O12   S    
Cr2   O2    S    
C18   C35   A    
C85   H15   S    
C112  O7    A    
Cr4   O13   S    
Cr7   O39   S    
C10   H23   S    
C55   O29   A    
C12   C58   A    
C106  O60   A    
C104  O42   A    
Cr12  O27   S    
C84   H14   S    
C103  O41   A    
C87   C92   S    
C110  O5    A    
Cr8   O18   S    
Cr8   O9    S    
C105  O43   A    
C29   H40   S    
C7    C56   S    
C12   C47   S    
C51   H55   S    
C70   C87   S    
C41   C49   A    
C37   C98   S    
C92   H26   S    
C7    H33   S    
H61   O52   S    
C49   H53   S    
Cr9   O56   S    
C16   C26   A    
C79   H9    S    
C63   C67   A    
C67   C85   S    
Cr7   O17   S    
C41   C106  S    
C30   C34   S    
Cr4   O35   S    
C27   C31   S    
C51   C52   A    
C31   C102  S    
C74   C96   A    
C5    C54   S    
C28   C32   S    
C34   H52   S    
C52   H57   S    
C57   H68   S    
C86   C90   S    
C3    O39   A    
C6    C11   D    
C62   C66   A    
C19   C23   A    
C38   C99   S    
Cr1   O36   S    
C68   C73   A    
C5    H31   S    
C108  O58   A    
Cr3   O7    S    
Cr12  O5    S    
C77   C95   A    
C87   H17   S    
C97   O31   A    
C32   O54   S    
C24   O51   S    
C23   O50   S    
C65   C83   A    
C14   C23   A    
C100  O35   A    
Cr6   O16   S    
C66   C71   A    
Cr9   O24   S    
Cr3   O11   S    
Cr11  O59   S    
Cr10  O58   S    
C20   C38   A    
C107  O56   A    
C15   C80   A    
C21   C39   A    
Cr12  O31   S    
Cr5   O41   S    
C44   C57   S    
C63   C104  S    
Cr9   O19   S    
C20   H38   S    
C101  O44   A    
C3    O8    A    
C1    C16   S    
C99   O33   A    
C41   C45   A    
C29   H47   S    
C108  O3    A    
C100  O34   A    
C1    O14   A    
C64   C82   A    
C13   C38   A    
C3    C96   S    
C16   C91   A    
C40   C107  S    
C36   O16   A    
C28   H46   S    
C15   C24   A    
C4    H32   S    
Cr11  O26   S    
C36   O20   A    
C49   C50   A    
Cr10  O47   S    
Cr1   O9    S    
Cr11  O21   S    
C42   C46   A    
C111  O37   A    
C14   C69   A    
Cr10  O20   S    
C75   C79   A    
C17   C34   S    
C73   C95   A    
Cr5   O10   S    
C2    C69   A    
H58   O49   S    
C83   H13   S    
C44   C45   A    
C75   C93   A    
Cr1   O40   S    
Cr11  O48   S    
C43   C48   A    
C98   O12   A    
Cr3   O3    S    
Cr6   O42   S    
C45   C59   S    
C85   C89   S    
C15   C25   S    
C87   H21   S    
C46   C60   S    
C1    O18   A    
C18   C22   A    
Cr1   O1    S    
Cr3   O29   S    
C60   H3    S    
C77   H7    S    
C84   C88   S    
C30   H41   S    
Cr2   O28   S    
C30   C91   S    
Cr5   O15   S    
C27   C58   S    
C76   C81   A    
Cr9   O10   S    
C5    C8    D    
C54   O28   A    
C71   C93   A    
C28   C69   S    
C86   H16   S    
C93   C110  S    
C31   O53   S    
Cr12  O9    S    
Cr8   O45   S    
C89   H24   S    
Cr1   O14   S    
Cr7   O13   S    
C47   O17   A    
C72   C94   A    
C57   H66   S    
Cr12  O60   S    
C110  O36   A    
Cr8   O44   S    
C14   C36   S    
C72   C89   S    
C2    C37   A    
C43   C51   A    
C39   C100  S    
C29   C80   S    
C32   H50   S    
C77   C82   A    
Cr6   O38   S    
C103  O46   A    
C40   C50   A    
C47   O21   A    
Cr5   O37   S    
C88   H27   S    
H60   O51   S    
Cr9   O46   S    
C33   O55   S    
C34   O57   S    
C43   C108  S    
H62   O53   S    
Cr4   O30   S    
C33   H51   S    
C62   C79   A    
C13   C80   A    
C18   H36   S    
C10   C11   S    
C11   H34   S    
C27   H42   S    
C66   C84   S    
C71   C88   S    
Cr4   O4    S    
C46   C48   A    
C75   H5    S    
C8    H1    S    
C40   C44   A    
Cr7   O34   S    
C61   H56   S    
C31   H49   S    
C13   C33   S    
Cr2   O6    S    
C48   C61   S    
C88   H22   S    
C9    H12   S    
C60   C61   S    
C92   H30   S    
Cr2   O32   S    
C4    C9    D    
C25   O15   A    
Cr8   O22   S    
C22   O49   S    
Cr7   O43   S    
C27   H44   S    
C42   C52   A    
