data_mof_unit_36778.cif
_audit_creation_date              2012-12-10T19:09:36-0500
_audit_creation_method            fapswitch 2.2
_symmetry_space_group_name_H-M    P1
_symmetry_Int_Tables_number       1
_space_group_crystal_system       triclinic
_cell_length_a                    9.598404
_cell_length_b                    10.823392
_cell_length_c                    16.982569
_cell_angle_alpha                 86.939071
_cell_angle_beta                  93.038178
_cell_angle_gamma                 90.206722
_cell_volume                      1759.27920465

loop_
_atom_site_label
_atom_site_type_symbol
_atom_type_description
_atom_site_fract_x
_atom_site_fract_y
_atom_site_fract_z
_atom_type_partial_charge
C1    C     C_R   0.499943 0.262781 0.503003 0.818275
C2    C     C_R   0.633256 0.519804 0.783508 -0.204670
C3    C     C_R   0.587329 0.457403 0.140203 0.431371
C4    C     C_R   0.594135 0.465103 0.221956 -0.365756
C5    C     C_R   0.456214 0.441658 0.099465 0.137690
C6    C     C_R   0.474020 0.457428 0.265069 -0.296609
C7    C     C_R   0.349655 0.414357 0.226820 0.350693
C8    C     C_R   0.335751 0.425034 0.143332 0.235459
C9    C     C_R   0.592889 0.068798 0.460429 0.079448
C10   C     C_R   0.498037 0.129968 0.503421 -0.018129
C11   C     C_R   0.396474 0.061226 0.543105 -0.172493
C12   C     C_R   0.516339 0.494523 0.650915 0.796840
C13   C     C_R   0.400767 0.932077 0.545430 -0.064596
C14   C     C_R   0.501515 0.871107 0.504561 -0.030463
C15   C     C_R   0.592445 0.941785 0.459076 0.010599
C16   C     C_3   0.747556 0.938544 0.457503 -0.492583
C17   C     C_3   0.747921 0.078470 0.459998 0.337432
C18   C     C_R   0.064980 0.538836 0.433935 0.175857
C19   C     C_R   0.080132 0.451907 0.562965 -0.081708
C20   C     C_R   0.931702 0.452987 0.563280 -0.059733
C21   C     C_R   0.919277 0.533181 0.432951 0.107898
C22   C     C_3   0.901432 0.649410 0.382771 0.181909
C23   C     C_R   0.500839 0.737313 0.502759 0.816377
C24   C     C_3   0.061077 0.654707 0.378824 0.620641
C25   C     C_R   0.483186 0.486478 0.349983 0.913530
C26   C     C_R   0.522828 0.473239 0.736833 -0.085127
C27   C     C_R   0.421909 0.397658 0.771903 -0.281692
C28   C     C_R   0.430086 0.368204 0.853133 0.423377
C29   C     C_R   0.536691 0.422239 0.900589 0.261686
C30   C     C_R   0.639187 0.495168 0.864990 -0.205338
Cu1   Cu    Cu3+1 0.640670 0.499980 0.500000 0.971883
Cu2   Cu    Cu3+1 0.359330 0.500020 0.500000 1.048842
H1    H     H_    0.695105 0.474214 0.251611 0.274321
H2    H     H_    0.329513 0.880222 0.581670 0.193770
H3    H     H_    0.798208 0.889040 0.510478 0.218144
H4    H     H_    0.779659 0.910265 0.399805 0.186988
H5    H     H_    0.782050 0.129553 0.405519 0.101331
H6    H     H_    0.139824 0.413965 0.614338 0.146581
H7    H     H_    0.881748 0.416122 0.615056 0.169557
H8    H     H_    0.856217 0.719791 0.419071 0.081267
H9    H     H_    0.723155 0.534244 0.900877 0.183345
H10   H     H_    0.713493 0.576445 0.757127 0.172707
H11   H     H_    0.339618 0.357264 0.735347 0.180777
H12   H     H_    0.319289 0.106829 0.575694 0.146383
N1    N     N_2   0.545872 0.405202 0.983681 -0.112667
N2    N     N_2   0.442500 0.446312 0.015287 -0.112871
N3    N     N_R   0.147870 0.500930 0.499500 -0.184405
N4    N     N_R   0.851960 0.500890 0.499500 -0.211630
O1    O     O_R   0.618810 0.319640 0.500000 -0.558655
O2    O     O_R   0.381230 0.319680 0.499990 -0.566716
O3    O     O_R   0.631790 0.498830 0.613930 -0.589521
O4    O     O_R   0.394210 0.498870 0.613920 -0.596761
O5    O     O_R   0.618770 0.680320 0.500010 -0.614258
O6    O     O_R   0.381190 0.680360 0.500000 -0.486555
O7    O     O_R   0.605790 0.501130 0.386080 -0.569239
O8    O     O_R   0.368210 0.501170 0.386070 -0.508102
O9    O     O_3   0.806474 0.119179 0.532249 -0.554637
C31   C     C_3   0.951095 0.137069 0.525873 -0.209971
H13   H     H_    0.972570 0.211157 0.480123 0.155894
H14   H     H_    0.003960 0.049688 0.513023 0.217792
H15   H     H_    0.996485 0.166956 0.583209 0.172306
O10   O     O_3   0.831237 0.630315 0.309273 -0.551417
C32   C     C_3   0.735753 0.727865 0.289842 -0.317132
H16   H     H_    0.790496 0.817683 0.281376 0.167984
H17   H     H_    0.656867 0.733729 0.335157 0.186833
H18   H     H_    0.677738 0.710620 0.233460 0.172863
O11   O     O_3   0.112114 0.624978 0.304918 -0.528272
C33   C     C_3   0.102995 0.723974 0.247099 -0.047380
H19   H     H_    0.204349 0.773369 0.245676 0.176296
H20   H     H_    0.018561 0.790768 0.255364 0.161614
H21   H     H_    0.082442 0.685642 0.188391 0.187745
O12   O     O_3   0.709765 0.460949 0.100593 -0.536662
C34   C     C_3   0.753497 0.584786 0.089111 -0.225916
H22   H     H_    0.665957 0.648579 0.069516 0.133015
H23   H     H_    0.829463 0.589409 0.042044 0.217315
H24   H     H_    0.808748 0.616077 0.143485 0.204848
S1    S     S_3+6 0.126568 0.797148 0.417364 -0.041481
O13   O     O_2   0.269899 0.823162 0.389381 -0.270540
O14   O     O_2   0.035148 0.903443 0.387101 -0.365982
O15   O     O_3   0.126943 0.786935 0.516455 -0.562516
H25   H     H_    0.027799 0.776709 0.528892 0.317213
S2    S     S_3+6 0.243627 0.304258 0.278026 0.074286
O16   O     O_2   0.198342 0.204201 0.224181 -0.236584
O17   O     O_2   0.325789 0.244867 0.347486 -0.311740
O18   O     O_3   0.101019 0.370958 0.309662 -0.471358
H26   H     H_    0.048535 0.302600 0.335603 0.352487
S3    S     S_3+6 0.311794 0.257491 0.890793 0.056417
O19   O     O_2   0.175342 0.320332 0.901410 -0.203073
O20   O     O_2   0.288365 0.158969 0.832334 -0.310474
O21   O     O_3   0.373724 0.191189 0.977410 -0.481026
H27   H     H_    0.308978 0.121882 0.988926 0.392862
S4    S     S_3+6 0.168433 0.417112 0.093729 0.098221
O22   O     O_2   0.159648 0.507336 0.023247 -0.251951
O23   O     O_2   0.145270 0.288558 0.066330 -0.197613
O24   O     O_3   0.042597 0.451813 0.154121 -0.484373
H28   H     H_    0.975662 0.382054 0.152304 0.409401

loop_
_geom_bond_atom_site_label_1
_geom_bond_atom_site_label_2
_ccdc_geom_bond_type
S3    O19   D    
C32   H17   S    
C18   C21   A    
C34   H22   S    
O24   H28   S    
C25   O8    A    
C18   N3    A    
O9    C31   S    
C7    C8    A    
O18   H26   S    
C26   C27   A    
O10   C32   S    
C18   C24   S    
C28   C29   A    
C16   H3    S    
C19   N3    A    
C6    C25   S    
C31   H14   S    
C15   C16   S    
Cu2   O4    S    
C24   O11   S    
C33   H19   S    
C19   C20   A    
C16   C17   S    
C30   H9    S    
C8    S4    S    
C9    C10   A    
S1    O13   D    
C21   N4    A    
C31   H15   S    
C32   H18   S    
C21   C22   S    
C34   H23   S    
Cu1   O1    S    
Cu2   O6    S    
C12   O4    A    
C23   O5    A    
S1    O14   D    
O11   C33   S    
C4    C6    A    
C20   H7    S    
O15   H25   S    
C31   H13   S    
N1    N2    D    
S4    O24   S    
C29   N1    S    
C14   C23   S    
C29   C30   A    
C19   H6    S    
C22   O10   S    
Cu1   Cu2   S    
C22   H8    S    
C28   S3    S    
S4    O23   D    
C11   H12   S    
C2    C26   A    
C17   H5    S    
Cu1   O5    S    
Cu2   O2    S    
C20   N4    A    
C9    C17   S    
S2    O17   D    
Cu1   N4    S    
S3    O20   D    
Cu2   N3    S    
C22   C24   S    
C3    C4    A    
C12   O3    A    
C23   O6    A    
C1    O2    A    
S1    O15   S    
C4    H1    S    
C1    C10   S    
C25   O7    A    
Cu1   O3    S    
O12   C34   S    
C3    C5    A    
C5    C8    A    
C6    C7    A    
S2    O18   S    
C5    N2    S    
C2    C30   A    
C3    O12   S    
C9    C15   A    
C13   H2    S    
C16   H4    S    
C11   C13   A    
O21   H27   S    
C2    H10   S    
C33   H21   S    
S4    O22   D    
C34   H24   S    
C10   C11   A    
C32   H16   S    
C27   H11   S    
C24   S1    S    
C7    S2    S    
C33   H20   S    
S2    O16   D    
S3    O21   S    
C12   C26   S    
C27   C28   A    
C14   C15   A    
Cu1   O7    S    
C13   C14   A    
C1    O1    A    
Cu2   O8    S    
C17   O9    S    
