data_mof_unit_46630.cif
_audit_creation_date              2012-12-11T14:08:05-0500
_audit_creation_method            fapswitch 2.2
_symmetry_space_group_name_H-M    P1
_symmetry_Int_Tables_number       1
_space_group_crystal_system       triclinic
_cell_length_a                    10.931302
_cell_length_b                    11.007082
_cell_length_c                    18.740111
_cell_angle_alpha                 90.418716
_cell_angle_beta                  89.319158
_cell_angle_gamma                 60.598962
_cell_volume                      1964.06785957

loop_
_atom_site_label
_atom_site_type_symbol
_atom_type_description
_atom_site_fract_x
_atom_site_fract_y
_atom_site_fract_z
_atom_type_partial_charge
C1    C     C_R   0.230959 0.647937 0.607079 0.532996
C2    C     C_3   0.666656 0.546917 0.805799 -0.099113
C3    C     C_3   0.699611 0.667934 0.814200 0.063783
C4    C     C_3   0.668307 0.638624 0.678951 0.063776
C5    C     C_3   0.818790 0.612870 0.691599 -0.262222
C6    C     C_3   0.645407 0.530354 0.724363 -0.090261
C7    C     C_2   0.653300 0.167390 0.673593 0.012045
C8    C     C_2   0.695232 0.175322 0.833467 -0.116016
C9    C     C_2   0.796339 0.111495 0.783157 -0.173443
C10   C     C_2   0.770523 0.147462 0.707160 -0.177892
C11   C     C_2   0.165581 0.669996 0.677862 -0.125389
C12   C     C_R   0.652478 0.619333 0.602528 0.536595
C13   C     C_2   0.180995 0.670292 0.835316 -0.126330
C14   C     C_2   0.173621 0.571261 0.796449 -0.181007
C15   C     C_2   0.194990 0.559500 0.718834 -0.184059
C16   C     C_2   0.651787 0.645402 0.317568 -0.092313
C17   C     C_2   0.633145 0.667119 0.160259 -0.108453
C18   C     C_2   0.705040 0.547752 0.195194 -0.161278
C19   C     C_2   0.687271 0.538042 0.271701 -0.147896
C20   C     C_2   0.633929 0.197554 0.318424 -0.102473
C21   C     C_2   0.636471 0.201636 0.163939 -0.109342
C22   C     C_2   0.523458 0.226901 0.202267 -0.166812
C23   C     C_R   0.624153 0.230042 0.602559 0.555841
C24   C     C_2   0.518080 0.255055 0.277874 -0.151948
C25   C     C_2   0.126627 0.677980 0.344177 -0.108367
C26   C     C_2   0.114996 0.690727 0.189977 -0.087099
C27   C     C_2   0.046746 0.802034 0.234309 -0.147542
C28   C     C_2   0.079972 0.796429 0.309136 -0.165648
C29   C     C_R   0.703892 0.104424 0.899346 0.542084
C30   C     C_R   0.725471 0.688154 0.888551 0.542625
C31   C     C_R   0.116460 0.708009 0.906393 0.548361
C32   C     C_R   0.672909 0.114095 0.101235 0.554166
C33   C     C_R   0.692178 0.689347 0.094928 0.551699
C34   C     C_R   0.217255 0.650160 0.404165 0.556757
C35   C     C_R   0.085992 0.713926 0.115102 0.553929
C36   C     C_R   0.641837 0.620224 0.392698 0.552428
C37   C     C_R   0.614407 0.233842 0.393272 0.552881
C38   C     C_3   0.577732 0.804006 0.783925 -0.227393
C39   C     C_3   0.564781 0.788348 0.703899 -0.248728
C40   C     C_3   0.836121 0.632513 0.770846 -0.244868
Cr1   Cr    Cr6+3 0.393010 0.398050 0.501480 0.999758
Cr2   Cr    Cr6+3 0.398820 0.707980 0.501630 1.009683
Cr3   Cr    Cr6+3 0.708140 0.393940 0.496850 1.006587
Cr4   Cr    Cr6+3 0.937950 0.938450 0.008940 1.016781
Cr5   Cr    Cr6+3 0.626180 0.937030 0.994750 1.013472
Cr6   Cr    Cr6+3 0.937790 0.625760 0.001410 1.014234
H1    H     H_    0.600150 0.889840 0.793750 0.135613
H2    H     H_    0.728860 0.424032 0.707657 0.139963
H3    H     H_    0.925923 0.534424 0.790318 0.132533
H4    H     H_    0.898582 0.505127 0.674683 0.136733
H5    H     H_    0.896757 0.022473 0.796496 0.145230
H6    H     H_    0.853289 0.153334 0.677387 0.132521
H7    H     H_    0.596334 0.264530 0.821482 0.087374
H8    H     H_    0.149309 0.497067 0.821725 0.149015
H9    H     H_    0.242393 0.455362 0.695741 0.148886
H10   H     H_    0.212550 0.739776 0.810638 0.094239
H11   H     H_    0.475987 0.834729 0.811388 0.123883
H12   H     H_    0.114657 0.774881 0.700552 0.102918
H13   H     H_    0.789515 0.456169 0.168825 0.151709
H14   H     H_    0.716631 0.434779 0.291457 0.151968
H15   H     H_    0.543056 0.756005 0.185130 0.111662
H16   H     H_    0.621031 0.750030 0.299814 0.095905
H17   H     H_    0.440441 0.211212 0.180522 0.156328
H18   H     H_    0.413654 0.317976 0.301266 0.159472
H19   H     H_    0.715389 0.224240 0.185267 0.097156
H20   H     H_    0.739273 0.134478 0.296339 0.083431
H21   H     H_    0.975207 0.904778 0.213797 0.152345
H22   H     H_    0.454142 0.819862 0.691202 0.140929
H23   H     H_    0.082485 0.885954 0.332315 0.154507
H24   H     H_    0.187671 0.586689 0.208223 0.087345
H25   H     H_    0.115500 0.592093 0.322450 0.106991
H26   H     H_    0.595060 0.857086 0.675366 0.118140
H27   H     H_    0.862837 0.717387 0.777759 0.131596
H28   H     H_    0.839521 0.686093 0.659735 0.122290
H29   H     H_    0.760912 0.448949 0.822411 0.136221
O1    O     O_R   0.507110 0.256280 0.580300 -0.523247
O2    O     O_R   0.524640 0.695370 0.425100 -0.489963
O3    O     O_R   0.735890 0.504390 0.415980 -0.512071
O4    O     O_R   0.690560 0.277820 0.422350 -0.501293
O5    O     O_3   0.499990 0.499990 0.499980 -0.259006
O6    O     O_R   0.089190 0.825870 0.932320 -0.518886
O7    O     O_R   0.819070 0.053960 0.931440 -0.497362
O8    O     O_R   0.607070 0.076440 0.916460 -0.524297
O9    O     O_R   0.647110 0.806550 0.917690 -0.512747
O10   O     O_R   0.837080 0.593860 0.915300 -0.534333
O11   O     O_R   0.064770 0.636080 0.932550 -0.499741
O12   O     O_R   0.280830 0.527190 0.577940 -0.507502
O13   O     O_R   0.068250 0.829200 0.092940 -0.515427
O14   O     O_R   0.799650 0.057040 0.080330 -0.510185
O15   O     O_R   0.586130 0.079760 0.077080 -0.511946
O16   O     O_R   0.627700 0.809630 0.066580 -0.496191
O17   O     O_R   0.816140 0.597180 0.075920 -0.511576
O18   O     O_R   0.045360 0.639170 0.081440 -0.494609
O19   O     O_3   0.833980 0.833750 0.001700 -0.252943
O20   O     O_R   0.261360 0.738990 0.584270 -0.523496
O21   O     O_R   0.532590 0.694780 0.574370 -0.512212
O22   O     O_R   0.744470 0.503750 0.577000 -0.532168
O23   O     O_R   0.698520 0.277230 0.571620 -0.513287
O24   O     O_R   0.498530 0.256920 0.419280 -0.514409
O25   O     O_R   0.272880 0.527780 0.428680 -0.507664
O26   O     O_R   0.252780 0.739630 0.423250 -0.508628
C41   C     C_3   0.534134 0.156158 0.713651 -0.256981
C42   C     C_3   0.433367 0.124567 0.670873 -0.413942
H30   H     H_    0.342639 0.222169 0.651910 0.164754
H31   H     H_    0.486662 0.055742 0.623996 0.168300
H32   H     H_    0.387695 0.075855 0.706057 0.111277
H33   H     H_    0.581711 0.073945 0.753373 0.150857
H34   H     H_    0.465422 0.256127 0.741860 0.128256
C43   C     C_3   0.546225 0.565337 0.857442 -0.400702
H35   H     H_    0.526463 0.476723 0.853972 0.125110
H36   H     H_    0.574238 0.569621 0.913769 0.140856
H37   H     H_    0.446723 0.661386 0.846860 0.134690
C44   C     C_3   0.506053 0.534701 0.708192 -0.365397
H38   H     H_    0.416207 0.638115 0.722483 0.141480
H39   H     H_    0.501564 0.512006 0.651065 0.177236
H40   H     H_    0.496634 0.453158 0.737727 0.117904

loop_
_geom_bond_atom_site_label_1
_geom_bond_atom_site_label_2
_ccdc_geom_bond_type
C1    O12   A    
C7    C10   D    
C2    C43   S    
Cr2   O5    S    
C39   H22   S    
C28   H23   S    
C1    C11   S    
Cr3   O23   S    
C23   O1    A    
C10   H6    S    
Cr1   O5    S    
Cr5   O8    S    
Cr3   O3    S    
C37   O4    A    
C26   C27   D    
C6    H2    S    
Cr2   O21   S    
C8    C29   S    
C20   H20   S    
C29   O8    A    
Cr4   O7    S    
C36   O2    A    
C33   O16   A    
C38   C39   S    
Cr6   O17   S    
Cr3   O4    S    
C40   H3    S    
C40   H27   S    
C18   C19   S    
C5    H28   S    
C17   H15   S    
C22   H17   S    
C11   C15   D    
C42   H31   S    
C32   O15   A    
C20   C24   D    
C3    C38   S    
C8    C9    D    
C7    C41   S    
C9    H5    S    
C34   O25   A    
C39   H26   S    
Cr1   O24   S    
C41   H34   S    
C25   H25   S    
C13   C14   D    
C4    C12   S    
C11   H12   S    
C9    C10   S    
C25   C34   S    
C44   H40   S    
C24   H18   S    
C31   O11   A    
C21   C22   D    
C2    C6    S    
C16   H16   S    
Cr5   O19   S    
C35   O18   A    
Cr1   O12   S    
C21   C32   S    
C34   O26   A    
Cr2   O20   S    
C27   H21   S    
C4    C6    S    
Cr4   O6    S    
C43   H37   S    
Cr3   O5    S    
C44   H39   S    
C25   C28   D    
C15   H9    S    
C3    C30   S    
C6    C44   S    
C38   H11   S    
C35   O13   A    
C18   H13   S    
C32   O14   A    
Cr6   O19   S    
C4    C39   S    
C1    O20   A    
C17   C18   D    
C38   H1    S    
Cr1   O25   S    
C41   H33   S    
C17   C33   S    
C30   O10   A    
Cr5   O15   S    
C12   O22   A    
C14   H8    S    
C3    C40   S    
C26   H24   S    
C22   C24   S    
C5    H4    S    
C33   O17   A    
Cr5   O9    S    
Cr2   O26   S    
C37   O24   A    
C44   H38   S    
C21   H19   S    
C13   C31   S    
Cr3   O22   S    
C4    C5    S    
C8    H7    S    
C19   H14   S    
C31   O6    A    
Cr6   O10   S    
C43   H36   S    
C2    C3    S    
C29   O7    A    
C36   O3    A    
C13   H10   S    
C16   C36   S    
Cr1   O1    S    
C20   C37   S    
Cr6   O18   S    
C16   C19   D    
C7    C23   S    
C42   H32   S    
Cr4   O13   S    
C30   O9    A    
C41   C42   S    
Cr5   O16   S    
Cr4   O19   S    
Cr4   O14   S    
C26   C35   S    
C23   O23   A    
Cr2   O2    S    
C5    C40   S    
C42   H30   S    
C14   C15   S    
C12   O21   A    
Cr6   O11   S    
C43   H35   S    
C2    H29   S    
C27   C28   S    
