data_mof_unit_43316.cif
_audit_creation_date              2012-12-10T17:01:35-0500
_audit_creation_method            fapswitch 2.2
_symmetry_space_group_name_H-M    P1
_symmetry_Int_Tables_number       1
_space_group_crystal_system       triclinic
_cell_length_a                    12.829795
_cell_length_b                    10.759481
_cell_length_c                    10.058838
_cell_angle_alpha                 87.682417
_cell_angle_beta                  97.873425
_cell_angle_gamma                 90.693372
_cell_volume                      1374.29655551

loop_
_atom_site_label
_atom_site_type_symbol
_atom_type_description
_atom_site_fract_x
_atom_site_fract_y
_atom_site_fract_z
_atom_type_partial_charge
C1    C     C_R   0.499490 0.262502 0.503224 0.793960
C2    C     C_2   0.504369 0.129568 0.516217 0.314647
C3    C     C_2   0.557459 0.573991 0.934277 0.581124
C4    C     C_R   0.298416 0.498298 0.472741 0.860290
C5    C     C_2   0.574066 0.548163 0.084698 -0.183350
C6    C     C_R   0.499015 0.736425 0.496851 0.897081
C7    C     C_R   0.701743 0.499495 0.527162 0.990796
C8    C     C_R   0.814524 0.501487 0.544705 -0.242951
C9    C     C_R   0.186326 0.488282 0.455180 -0.141464
C10   C     C_R   0.025998 0.383868 0.367891 -0.220775
C11   C     C_R   0.133028 0.404083 0.366140 0.443152
C12   C     C_R   0.028035 0.534405 0.543273 0.054277
C13   C     C_R   0.133972 0.554016 0.541228 -0.276679
C14   C     C_3   0.384894 0.087608 0.665209 0.109507
C15   C     C_3   0.363946 0.999714 0.780984 -0.800639
C16   C     C_3   0.593954 0.783343 0.942764 0.020672
C17   C     C_3   0.639245 0.892139 0.867562 -0.579565
C18   C     C_3   0.216021 0.225271 0.332576 0.095939
C19   C     C_3   0.275106 0.158297 0.235777 -0.755006
C20   C     C_R   0.973117 0.446417 0.458429 0.026324
C21   C     C_R   0.866478 0.425649 0.464452 0.295007
C22   C     C_R   0.869838 0.588802 0.628356 0.342650
C23   C     C_R   0.976954 0.602493 0.629416 -0.215800
C24   C     C_2   0.557429 0.935568 0.430169 -0.120309
C25   C     C_2   0.487318 0.865989 0.485121 -0.258906
C26   C     C_2   0.546216 0.069320 0.422154 -0.220171
Cl1   Cl    Cl    0.797991 0.303505 0.374665 -0.618420
Cl2   Cl    Cl    0.470428 0.351989 0.908290 -0.572346
Cl3   Cl    Cl    0.807672 0.690666 0.724715 -0.578019
H1    H     H_    0.647045 0.578067 0.142396 0.179231
H2    H     H_    0.372073 0.183687 0.695128 0.210118
H3    H     H_    0.418279 0.021351 0.872962 0.271738
H4    H     H_    0.281701 0.010705 0.801287 0.215555
H5    H     H_    0.375512 0.901846 0.755384 0.240891
H6    H     H_    0.634386 0.781530 0.047933 0.138711
H7    H     H_    0.508275 0.799762 0.942182 0.121235
H8    H     H_    0.607926 0.891070 0.759235 0.297590
H9    H     H_    0.617725 0.981165 0.908509 0.212194
H10   H     H_    0.726327 0.885831 0.879396 0.267427
H11   H     H_    0.146610 0.167276 0.351428 0.143733
H12   H     H_    0.427577 0.493854 0.093300 0.211024
H13   H     H_    0.269574 0.234973 0.428407 0.087874
H14   H     H_    0.344224 0.214499 0.213455 0.281573
H15   H     H_    0.302833 0.066729 0.281283 0.186585
H16   H     H_    0.222465 0.143197 0.140507 0.261251
H17   H     H_    0.985853 0.319353 0.298216 0.215088
H18   H     H_    0.019527 0.670303 0.693393 0.181054
H19   H     H_    0.176648 0.619548 0.608344 0.165263
H20   H     H_    0.622340 0.894000 0.389070 0.165318
H21   H     H_    0.416456 0.902069 0.515022 0.154945
H22   H     H_    0.574604 0.119001 0.337794 0.188711
H23   H     H_    0.326161 0.066748 0.576677 0.083655
N1    N     N_2   0.501130 0.501330 0.852280 0.003725
N2    N     N_2   0.501160 0.501360 0.147950 -0.178888
O1    O     O_R   0.499980 0.319060 0.613040 -0.558676
O2    O     O_3   0.610795 0.671912 0.879209 -0.548854
O3    O     O_3   0.184543 0.343260 0.275833 -0.581496
O4    O     O_R   0.500020 0.319100 0.386900 -0.610508
O5    O     O_R   0.346340 0.499960 0.594380 -0.621669
O6    O     O_R   0.346380 0.500000 0.368250 -0.579599
O7    O     O_R   0.499980 0.680900 0.613100 -0.574492
O8    O     O_R   0.500020 0.680940 0.386960 -0.638195
O9    O     O_R   0.653620 0.500000 0.631750 -0.541020
O10   O     O_R   0.653660 0.500040 0.405620 -0.588154
O11   O     O_3   0.489427 0.070661 0.638441 -0.593714
Zn1   Zn    Zn3+2 0.499980 0.499970 0.650990 1.089548
Zn2   Zn    Zn3+2 0.500020 0.500030 0.349010 1.000203

loop_
_geom_bond_atom_site_label_1
_geom_bond_atom_site_label_2
_ccdc_geom_bond_type
C4    C9    S    
C10   H17   S    
C13   H19   S    
C8    C22   A    
Cl2   N1    S    
C19   H16   S    
C25   H21   S    
C22   Cl3   S    
C19   H14   S    
C3    N1    D    
C3    O2    S    
O4    Zn2   S    
C18   O3    S    
C6    O8    A    
C2    O11   S    
C4    O6    A    
C16   O2    S    
C8    C21   A    
C1    O1    A    
O9    Zn1   S    
C15   H3    S    
C2    C26   D    
C17   H8    S    
C26   H22   S    
C16   H7    S    
N1    Zn1   S    
C9    C11   A    
C12   C23   A    
C7    O9    A    
C11   O3    S    
C12   C20   A    
O8    Zn2   S    
C6    O7    A    
C14   O11   S    
C24   C26   S    
C1    C2    S    
C17   H9    S    
C18   H13   S    
C16   H6    S    
C21   Cl1   S    
C7    O10   A    
H12   N2    S    
C6    C25   S    
C23   H18   S    
C10   C11   A    
O10   Zn2   S    
C19   H15   S    
C5    N2    D    
C7    C8    S    
O1    Zn1   S    
C24   C25   D    
C4    O5    A    
C18   C19   S    
C17   H10   S    
C24   H20   S    
C14   H2    S    
C18   H11   S    
C14   C15   S    
C16   C17   S    
C9    C13   A    
N2    Zn2   S    
C15   H5    S    
C12   C13   A    
C20   C21   A    
C1    O4    A    
C5    H1    S    
O7    Zn1   S    
C15   H4    S    
C22   C23   A    
C14   H23   S    
O6    Zn2   S    
C10   C20   A    
O5    Zn1   S    
C3    C5    S    
