data_mof_unit_29783.cif
_audit_creation_date              2012-12-10T16:57:41-0500
_audit_creation_method            fapswitch 2.2
_symmetry_space_group_name_H-M    P1
_symmetry_Int_Tables_number       1
_space_group_crystal_system       triclinic
_cell_length_a                    7.799018
_cell_length_b                    8.608774
_cell_length_c                    19.172153
_cell_angle_alpha                 91.889668
_cell_angle_beta                  85.069616
_cell_angle_gamma                 93.17874
_cell_volume                      1279.96701619

loop_
_atom_site_label
_atom_site_type_symbol
_atom_type_description
_atom_site_fract_x
_atom_site_fract_y
_atom_site_fract_z
_atom_type_partial_charge
C1    C     C_R   0.544615 0.793992 0.498362 0.923624
C2    C     C_R   0.579648 0.372641 0.178008 0.079948
C3    C     C_R   0.500041 0.509188 0.854283 0.037467
C4    C     C_R   0.499976 0.490801 0.145717 0.037471
C5    C     C_R   0.580856 0.391097 0.814210 -0.253024
C6    C     C_R   0.419185 0.608907 0.185788 -0.253022
C7    C     C_R   0.583049 0.387719 0.741611 0.060348
C8    C     C_R   0.416985 0.612288 0.258386 0.060337
C9    C     C_R   0.503241 0.505178 0.709236 -0.063847
C10   C     C_R   0.496760 0.494816 0.290765 -0.063821
C11   C     C_R   0.501160 0.495039 0.070009 0.321173
C12   C     C_R   0.455386 0.206008 0.501637 0.923622
C13   C     C_R   0.498866 0.504949 0.929990 0.321174
C14   C     C_2   0.565055 0.956209 0.507566 -0.105628
C15   C     C_2   0.434945 0.043790 0.492433 -0.105624
C16   C     C_R   0.501115 0.501327 0.633974 0.902530
C17   C     C_R   0.498885 0.498672 0.366026 0.902548
C18   C     C_R   0.422772 0.625520 0.748710 0.008847
C19   C     C_R   0.577198 0.374456 0.251294 0.008835
C20   C     C_R   0.420333 0.627332 0.821995 0.079952
H1    H     H_    0.642309 0.301037 0.839649 0.160134
H2    H     H_    0.610896 0.145753 0.150022 0.187996
H3    H     H_    0.564127 0.195795 0.678838 0.170060
H4    H     H_    0.722600 0.191174 0.732396 0.178031
H5    H     H_    0.435943 0.804221 0.321151 0.170053
H6    H     H_    0.277456 0.808843 0.267598 0.178035
H7    H     H_    0.716692 0.964425 0.588908 0.171769
H8    H     H_    0.824513 0.991066 0.509355 0.187709
H9    H     H_    0.283310 0.035575 0.411091 0.171775
H10   H     H_    0.175487 0.008933 0.490644 0.187707
H11   H     H_    0.999320 0.378229 0.385024 0.181796
H12   H     H_    0.357756 0.698977 0.160345 0.160136
H13   H     H_    0.977521 0.243086 0.446674 0.168482
H14   H     H_    0.000680 0.621770 0.614976 0.181798
H15   H     H_    0.022479 0.756914 0.553326 0.168482
H16   H     H_    0.215811 0.747260 0.730662 0.185692
H17   H     H_    0.406839 0.853337 0.726789 0.170426
H18   H     H_    0.784107 0.252653 0.269347 0.185694
H19   H     H_    0.593041 0.146635 0.273222 0.170423
H20   H     H_    0.203735 0.739915 0.853361 0.186048
H21   H     H_    0.389020 0.854213 0.849986 0.187997
H22   H     H_    0.796212 0.260009 0.146651 0.186052
N1    N     N_R   0.488842 0.366380 0.961980 -0.182988
N2    N     N_3   0.666667 0.254811 0.136194 -0.441721
N3    N     N_3   0.662376 0.263973 0.700544 -0.427617
N4    N     N_3   0.337680 0.736048 0.299451 -0.427630
N5    N     N_3   0.713817 0.018634 0.541019 -0.434035
N6    N     N_3   0.286184 0.981365 0.458980 -0.434028
N7    N     N_3   0.032427 0.353580 0.434985 -0.319491
N8    N     N_3   0.967573 0.646419 0.565015 -0.319490
N9    N     N_R   0.511186 0.633606 0.038019 -0.182991
N10   N     N_R   0.489427 0.361515 0.030991 -0.142843
N11   N     N_R   0.510600 0.638472 0.969008 -0.142847
N12   N     N_2   0.950330 0.457950 0.481240 0.003511
N13   N     N_2   0.049670 0.542050 0.518760 0.003511
N14   N     N_3   0.346689 0.746121 0.713651 -0.461582
N15   N     N_3   0.653232 0.253833 0.286357 -0.461594
N16   N     N_3   0.333287 0.745141 0.863813 -0.441719
O1    O     O_R   0.389250 0.738570 0.504600 -0.594421
O2    O     O_R   0.610750 0.261430 0.495400 -0.594421
O3    O     O_R   0.678400 0.711620 0.492580 -0.628818
O4    O     O_R   0.321600 0.288380 0.507420 -0.628818
O5    O     O_R   0.355380 0.513500 0.607880 -0.616298
O6    O     O_R   0.644620 0.486500 0.392120 -0.616307
O7    O     O_R   0.644530 0.486550 0.595850 -0.593848
O8    O     O_R   0.355470 0.513450 0.404150 -0.593849
Zn1   Zn    Zn3+2 0.306930 0.517990 0.508030 0.980564
Zn2   Zn    Zn3+2 0.693070 0.482010 0.491970 0.980561

loop_
_geom_bond_atom_site_label_1
_geom_bond_atom_site_label_2
_ccdc_geom_bond_type
C1    O3    A    
C2    C4    A    
H8    N5    S    
C14   N5    S    
H3    N3    S    
C16   O5    A    
H18   N15   S    
C12   O4    A    
C6    H12   S    
N8    N13   S    
C3    C13   S    
C12   C15   S    
C18   N14   S    
C10   C19   A    
O7    Zn2   S    
C7    C9    A    
H15   N8    S    
O8    Zn1   S    
C3    C20   A    
C7    N3    S    
C19   N15   S    
C4    C11   S    
O3    Zn2   S    
C17   O8    A    
H22   N2    S    
O4    Zn1   S    
H11   N7    S    
H16   N14   S    
H4    N3    S    
C15   N6    S    
H10   N6    S    
C16   O7    A    
C9    C16   S    
H21   N16   S    
N12   Zn2   S    
C13   N11   A    
C1    O1    A    
C17   O6    A    
O5    Zn1   S    
N1    N10   A    
H14   N8    S    
H20   N16   S    
C11   N9    A    
H6    N4    S    
C10   C17   S    
H13   N7    S    
N7    N12   S    
C12   O2    A    
O6    Zn2   S    
C9    C18   A    
C13   N1    A    
C5    H1    S    
N13   Zn1   S    
O2    Zn2   S    
C18   C20   A    
C4    C6    A    
H7    N5    S    
C5    C7    A    
C11   N10   A    
N12   N13   D    
C6    C8    A    
C1    C14   S    
H9    N6    S    
C8    N4    S    
O1    Zn1   S    
C2    C19   A    
C14   C15   D    
H17   N14   S    
C20   N16   S    
H5    N4    S    
C8    C10   A    
H2    N2    S    
N9    N11   A    
C2    N2    S    
C3    C5    A    
H19   N15   S    
