data_mof_unit_41244.cif
_audit_creation_date              2012-12-10T20:55:48-0500
_audit_creation_method            fapswitch 2.2
_symmetry_space_group_name_H-M    P1
_symmetry_Int_Tables_number       1
_space_group_crystal_system       triclinic
_cell_length_a                    15.788037
_cell_length_b                    15.024809
_cell_length_c                    10.638143
_cell_angle_alpha                 90.218714
_cell_angle_beta                  90.038071
_cell_angle_gamma                 89.825398
_cell_volume                      2523.46709421

loop_
_atom_site_label
_atom_site_type_symbol
_atom_type_description
_atom_site_fract_x
_atom_site_fract_y
_atom_site_fract_z
_atom_type_partial_charge
C1    C     C_1   0.250371 0.501126 0.485563 -0.191482
C2    C     C_R   0.424645 0.047475 0.487764 0.380157
C3    C     C_R   0.955381 0.586318 0.483968 0.386752
C4    C     C_R   0.044426 0.430827 0.414410 0.374113
C5    C     C_R   0.043720 0.587094 0.481647 0.394575
C6    C     C_R   0.956044 0.431819 0.409827 0.367863
C7    C     C_R   0.338589 0.500182 0.499934 0.896738
C8    C     C_R   0.661410 0.499915 0.499791 0.885597
C9    C     C_R   0.486462 0.499799 0.260012 0.885991
C10   C     C_R   0.513646 0.500206 0.739936 0.888184
C11   C     C_R   0.912560 0.507455 0.452787 -0.266170
C12   C     C_1   0.749699 0.500230 0.486528 -0.176427
C13   C     C_R   0.087425 0.508079 0.451749 -0.256402
C14   C     C_1   0.500081 0.807157 0.502102 0.238509
C15   C     C_1   0.500287 0.192849 0.502489 0.233435
C16   C     C_1   0.824099 0.502675 0.471412 0.140213
C17   C     C_1   0.176000 0.503854 0.469840 0.126441
C18   C     C_R   0.448653 0.662284 0.111601 -0.116501
C19   C     C_R   0.551624 0.337772 0.888255 -0.127289
C20   C     C_R   0.541956 0.665269 0.890602 -0.123537
C21   C     C_R   0.458242 0.334767 0.109183 -0.119283
C22   C     C_R   0.468069 0.743426 0.055611 -0.137996
C23   C     C_R   0.526563 0.500797 0.875726 -0.263081
C24   C     C_R   0.532082 0.256625 0.944103 -0.147438
C25   C     C_R   0.517576 0.745007 0.947656 -0.163822
C26   C     C_R   0.482522 0.255043 0.051991 -0.143399
C27   C     C_R   0.516543 0.582323 0.941023 0.090601
C28   C     C_R   0.483746 0.417715 0.058876 0.088425
C29   C     C_R   0.478858 0.581143 0.059832 0.082714
C30   C     C_R   0.521454 0.418903 0.940087 0.088646
C31   C     C_3   0.121840 0.706321 0.418818 -0.252237
C32   C     C_3   0.897012 0.358142 0.246164 -0.230755
C33   C     C_3   0.880043 0.709747 0.430547 -0.235047
C34   C     C_R   0.473705 0.499236 0.124186 -0.262435
C35   C     C_3   0.095086 0.297978 0.482927 -0.212683
C36   C     C_3   0.335169 0.104038 0.341676 -0.245590
C37   C     C_3   0.666206 0.879677 0.657380 -0.264023
C38   C     C_3   0.659119 0.128706 0.661036 -0.263562
C39   C     C_3   0.310163 0.896285 0.592765 -0.243906
C40   C     C_R   0.500269 0.905016 0.506262 -0.319242
C41   C     C_R   0.500618 0.095008 0.506607 -0.318159
C42   C     C_R   0.424013 0.953156 0.492379 0.368723
C43   C     C_R   0.576605 0.046769 0.527190 0.396784
C44   C     C_R   0.576462 0.952356 0.525398 0.395654
H1    H     H_    0.464213 0.192075 0.092732 0.123886
H2    H     H_    0.181481 0.673276 0.388733 0.165658
H3    H     H_    0.137981 0.775250 0.447500 0.193052
H4    H     H_    0.957286 0.358661 0.191901 0.174717
H5    H     H_    0.857045 0.416483 0.220379 0.139078
H6    H     H_    0.861837 0.297242 0.218936 0.190873
H7    H     H_    0.835258 0.670721 0.371525 0.146245
H8    H     H_    0.932024 0.736470 0.371501 0.149198
H9    H     H_    0.844478 0.767389 0.469395 0.206151
H10   H     H_    0.031670 0.274127 0.513115 0.189728
H11   H     H_    0.128328 0.330475 0.563121 0.146039
H12   H     H_    0.535767 0.807969 0.906744 0.122031
H13   H     H_    0.132930 0.238779 0.455094 0.186545
H14   H     H_    0.328537 0.038666 0.293141 0.180707
H15   H     H_    0.386459 0.143696 0.297331 0.131016
H16   H     H_    0.274972 0.141138 0.328545 0.185556
H17   H     H_    0.614967 0.835156 0.691199 0.126424
H18   H     H_    0.672852 0.937715 0.721545 0.156145
H19   H     H_    0.726326 0.841387 0.661413 0.197031
H20   H     H_    0.628182 0.088350 0.735705 0.107661
H21   H     H_    0.632109 0.196941 0.661092 0.157995
H22   H     H_    0.727047 0.134567 0.686315 0.194523
H23   H     H_    0.553830 0.194950 0.902115 0.121463
H24   H     H_    0.294151 0.961345 0.637307 0.182341
H25   H     H_    0.350909 0.856117 0.656646 0.142550
H26   H     H_    0.250137 0.859341 0.579138 0.188092
H27   H     H_    0.446228 0.805097 0.097581 0.139676
H28   H     H_    0.409262 0.663459 0.194828 0.149939
H29   H     H_    0.591018 0.336639 0.805045 0.139042
H30   H     H_    0.581686 0.669112 0.807967 0.146496
H31   H     H_    0.418474 0.330903 0.191777 0.150209
H32   H     H_    0.077507 0.711098 0.337634 0.125799
N1    N     N_1   0.500000 0.270550 0.500000 -0.107875
N2    N     N_1   0.500000 0.729450 0.500000 -0.106936
O1    O     O_R   0.378020 0.573650 0.500040 -0.611224
O2    O     O_3   0.912447 0.355585 0.376593 -0.571662
O3    O     O_3   0.912067 0.659267 0.531581 -0.557262
O4    O     O_3   0.088899 0.355338 0.378652 -0.583028
O5    O     O_3   0.349315 0.093229 0.471601 -0.580389
O6    O     O_3   0.652739 0.907005 0.532225 -0.555747
O7    O     O_3   0.653347 0.090315 0.539830 -0.545850
O8    O     O_3   0.348745 0.908059 0.474542 -0.587812
O9    O     O_R   0.621980 0.426350 0.499960 -0.605275
O10   O     O_R   0.621980 0.573650 0.499960 -0.608923
O11   O     O_R   0.378020 0.426350 0.500040 -0.604032
O12   O     O_R   0.499990 0.573670 0.316780 -0.611555
O13   O     O_R   0.500010 0.426330 0.683220 -0.613744
O14   O     O_R   0.500010 0.573670 0.683220 -0.616790
O15   O     O_R   0.499990 0.426330 0.316780 -0.613279
O16   O     O_3   0.085987 0.662362 0.523053 -0.554312
Zn1   Zn    Zn3+2 0.500000 0.598370 0.500000 0.972754
Zn2   Zn    Zn3+2 0.500000 0.401630 0.500000 0.977429

loop_
_geom_bond_atom_site_label_1
_geom_bond_atom_site_label_2
_ccdc_geom_bond_type
C21   C26   A    
C27   C29   A    
C41   C43   A    
C39   H24   S    
C25   H12   S    
C36   H15   S    
C37   H18   S    
O12   Zn1   S    
C33   H8    S    
C24   C26   A    
C36   H14   S    
C20   C25   A    
C2    C41   A    
C7    O11   A    
C4    C13   A    
C26   H1    S    
O13   Zn2   S    
C38   H22   S    
C22   C25   A    
C3    O3    S    
C37   O6    S    
C42   O8    S    
C23   C27   A    
C5    C13   A    
C24   H23   S    
C40   C42   A    
O10   Zn1   S    
C10   O14   A    
C31   H3    S    
C35   H10   S    
C33   H9    S    
C32   H4    S    
C2    O5    S    
C37   H19   S    
C35   O4    S    
C5    O16   S    
C38   H20   S    
C18   H28   S    
C38   O7    S    
C35   H11   S    
C43   O7    S    
C23   C30   A    
C12   C16   T    
C19   H29   S    
C15   C41   S    
C4    C6    A    
C6    C11   A    
C3    C5    A    
C14   C40   S    
C29   C34   A    
C31   H2    S    
O14   Zn1   S    
C8    O10   A    
C43   C44   A    
O1    Zn1   S    
C32   O2    S    
C11   C16   S    
C6    O2    S    
C38   H21   S    
N2    Zn1   S    
C8    C12   S    
O9    Zn2   S    
C39   H25   S    
C20   H30   S    
C18   C29   A    
C32   H6    S    
C21   C28   A    
C10   O13   A    
O15   Zn2   S    
C9    C34   S    
C9    O15   A    
C22   H27   S    
C7    O1    A    
C1    C7    S    
C44   O6    S    
C9    O12   A    
C37   H17   S    
C20   C27   A    
C10   C23   S    
C33   H7    S    
C31   O16   S    
C21   H31   S    
N1    Zn2   S    
C1    C17   T    
C13   C17   S    
C35   H13   S    
C8    O9    A    
O11   Zn2   S    
C18   C22   A    
C19   C24   A    
C31   H32   S    
C15   N1    T    
C2    C42   A    
C28   C30   A    
C39   H26   S    
C14   N2    T    
C32   H5    S    
C3    C11   A    
C28   C34   A    
C40   C44   A    
C4    O4    S    
C36   H16   S    
C36   O5    S    
C39   O8    S    
C19   C30   A    
C33   O3    S    
