data_mof_unit_20814.cif
_audit_creation_date              2012-12-10T17:31:17-0500
_audit_creation_method            fapswitch 2.2
_symmetry_space_group_name_H-M    P1
_symmetry_Int_Tables_number       1
_space_group_crystal_system       triclinic
_cell_length_a                    19.039783
_cell_length_b                    18.417991
_cell_length_c                    12.352057
_cell_angle_alpha                 90.083938
_cell_angle_beta                  129.157938
_cell_angle_gamma                 89.973169
_cell_volume                      3358.71707775

loop_
_atom_site_label
_atom_site_type_symbol
_atom_type_description
_atom_site_fract_x
_atom_site_fract_y
_atom_site_fract_z
_atom_type_partial_charge
C1    C     C_R   0.612281 0.898217 0.652956 0.781522
C2    C     C_R   0.612358 0.101742 0.653025 0.778824
C3    C     C_R   0.112280 0.398216 0.652954 0.781531
C4    C     C_R   0.112348 0.601749 0.653013 0.778846
C5    C     C_R   0.240749 0.781060 0.030531 0.073644
C6    C     C_R   0.243918 0.223130 0.037516 0.074310
C7    C     C_R   0.740773 0.281046 0.030554 0.073642
C8    C     C_R   0.743921 0.723133 0.037520 0.074286
C9    C     C_R   0.658170 0.282031 0.009094 0.165371
C10   C     C_R   0.662864 0.725017 0.020599 0.158696
C11   C     C_R   0.158178 0.781994 0.009154 0.165382
C12   C     C_R   0.162865 0.225020 0.020604 0.158683
C13   C     C_R   0.581195 0.249433 0.890856 -0.237129
C14   C     C_R   0.585744 0.757840 0.903607 -0.248335
C15   C     C_R   0.081206 0.749377 0.890950 -0.237167
C16   C     C_R   0.085746 0.257847 0.903616 -0.248349
C17   C     C_R   0.586238 0.212253 0.798328 -0.204381
C18   C     C_R   0.588929 0.791814 0.806882 -0.199104
C19   C     C_R   0.086227 0.712223 0.798377 -0.204369
C20   C     C_R   0.088927 0.291817 0.806886 -0.199094
C21   C     C_R   0.316459 0.814771 0.150277 -0.251425
C22   C     C_R   0.318914 0.187232 0.154229 -0.273222
C23   C     C_R   0.816484 0.314744 0.150327 -0.251397
C24   C     C_R   0.818918 0.687237 0.154237 -0.273200
C25   C     C_R   0.228528 0.852835 0.220064 -0.195540
C26   C     C_R   0.233378 0.153828 0.230492 -0.193377
C27   C     C_R   0.728493 0.352886 0.219981 -0.195519
C28   C     C_R   0.733374 0.653822 0.230483 -0.193385
C29   C     C_R   0.678224 0.159385 0.740435 -0.104909
C30   C     C_R   0.678128 0.840704 0.740863 -0.106381
C31   C     C_R   0.178182 0.659418 0.740382 -0.104921
C32   C     C_R   0.178124 0.340700 0.740856 -0.106385
C33   C     C_R   0.684015 0.979434 0.287685 -0.088449
C34   C     C_R   0.184009 0.479404 0.287679 -0.088463
C35   C     C_R   0.343773 0.002838 0.627783 0.069921
C36   C     C_R   0.843774 0.502845 0.627783 0.069929
C37   C     C_R   0.309775 0.004684 0.699904 -0.254043
C38   C     C_R   0.809775 0.504698 0.699903 -0.254042
C39   C     C_R   0.384766 0.099202 0.343303 0.792394
C40   C     C_R   0.383971 0.901479 0.342065 0.794349
C41   C     C_R   0.884766 0.599202 0.343303 0.792385
C42   C     C_R   0.883971 0.401480 0.342064 0.794340
C43   C     C_R   0.368687 0.003493 0.845542 -0.191747
C44   C     C_R   0.868687 0.503507 0.845542 -0.191732
C45   C     C_R   0.463168 0.000195 0.921806 0.002872
C46   C     C_R   0.963168 0.500199 0.921806 0.002873
C47   C     C_R   0.494813 0.998591 0.842900 0.286964
C48   C     C_R   0.994813 0.498590 0.842900 0.286950
C49   C     C_R   0.527167 0.997636 0.072677 -0.050546
C50   C     C_R   0.027166 0.497636 0.072677 -0.050548
C51   C     C_R   0.620675 0.988068 0.140614 0.117227
C52   C     C_R   0.120672 0.488051 0.140611 0.117220
C53   C     C_R   0.649706 0.989183 0.061142 -0.276695
C54   C     C_R   0.149704 0.489161 0.061142 -0.276674
C55   C     C_R   0.588739 0.995878 0.917116 -0.170634
C56   C     C_R   0.088738 0.495869 0.917117 -0.170637
C57   C     C_R   0.502582 0.003612 0.159799 0.008304
C58   C     C_R   0.002582 0.503621 0.159799 0.008317
C59   C     C_R   0.654648 0.987784 0.365887 0.021145
C60   C     C_R   0.154645 0.487764 0.365884 0.021135
C61   C     C_R   0.653087 0.316956 0.105008 -0.194559
C62   C     C_R   0.658954 0.691879 0.118847 -0.207247
C63   C     C_R   0.153124 0.816889 0.105118 -0.194566
C64   C     C_R   0.158958 0.191886 0.118857 -0.207281
C65   C     C_R   0.309710 0.853095 0.240619 -0.048768
C66   C     C_R   0.312501 0.149738 0.245474 -0.052507
C67   C     C_R   0.809706 0.353100 0.240612 -0.048756
C68   C     C_R   0.812501 0.649739 0.245475 -0.052463
C69   C     C_R   0.756175 0.163662 0.751613 -0.186294
C70   C     C_R   0.754806 0.834791 0.748998 -0.185421
C71   C     C_R   0.256092 0.663749 0.751474 -0.186344
C72   C     C_R   0.254798 0.334782 0.748983 -0.185431
C73   C     C_R   0.326388 0.709976 0.847876 -0.151317
C74   C     C_R   0.325611 0.289382 0.846456 -0.147704
C75   C     C_R   0.826502 0.209854 0.848073 -0.151306
C76   C     C_R   0.825623 0.789396 0.846478 -0.147707
C77   C     C_R   0.322221 0.749702 0.939369 -0.184485
C78   C     C_R   0.323127 0.251852 0.941457 -0.185622
C79   C     C_R   0.822318 0.249604 0.939530 -0.184448
C80   C     C_R   0.823137 0.751864 0.941476 -0.185637
C81   C     C_R   0.745219 0.245724 0.932764 0.081588
C82   C     C_R   0.747131 0.757002 0.937398 0.082021
C83   C     C_R   0.245167 0.745766 0.932694 0.081588
C84   C     C_R   0.247125 0.256996 0.937389 0.082021
C85   C     C_R   0.669215 0.205251 0.823134 0.076009
C86   C     C_R   0.670746 0.797042 0.827682 0.079059
C87   C     C_R   0.169179 0.705264 0.823109 0.076046
C88   C     C_R   0.170742 0.297040 0.827678 0.079053
Cu1   Cu    Cu3+1 0.526340 1.000000 0.421010 0.929773
Cu2   Cu    Cu3+1 0.026340 0.500000 0.421010 0.929772
Cu3   Cu    Cu3+1 0.473640 1.000000 0.578990 0.916274
Cu4   Cu    Cu3+1 0.973640 0.500000 0.578990 0.916268
H1    H     H_    0.222308 0.882838 0.289135 0.145773
H2    H     H_    0.227656 0.125012 0.300999 0.147816
H3    H     H_    0.722253 0.382917 0.289007 0.145749
H4    H     H_    0.727650 0.625003 0.300985 0.147807
H5    H     H_    0.721005 0.986623 0.110389 0.168496
H6    H     H_    0.221004 0.486588 0.110392 0.168495
H7    H     H_    0.433158 0.011012 0.116574 0.130002
H8    H     H_    0.933160 0.511034 0.116575 0.130004
H9    H     H_    0.297368 0.003916 0.514871 0.119619
H10   H     H_    0.797368 0.503925 0.514871 0.119616
H11   H     H_    0.338452 0.004205 0.895557 0.137358
H12   H     H_    0.838452 0.504223 0.895557 0.137361
H13   H     H_    0.237335 0.006906 0.642589 0.143452
H14   H     H_    0.737336 0.506927 0.642589 0.143456
H15   H     H_    0.618826 0.998692 0.868166 0.208519
H16   H     H_    0.118826 0.498686 0.868168 0.208522
H17   H     H_    0.516841 0.252252 0.870106 0.137853
H18   H     H_    0.522362 0.756848 0.886102 0.138104
H19   H     H_    0.016874 0.752159 0.870260 0.137862
H20   H     H_    0.022366 0.256860 0.886119 0.138123
H21   H     H_    0.590144 0.318146 0.088905 0.130857
H22   H     H_    0.597314 0.693252 0.106493 0.133304
H23   H     H_    0.090206 0.818042 0.089079 0.130863
H24   H     H_    0.097320 0.193264 0.106511 0.133290
H25   H     H_    0.381916 0.812940 0.175610 0.146427
H26   H     H_    0.383241 0.186162 0.175916 0.147813
H27   H     H_    0.881961 0.312881 0.175722 0.146397
H28   H     H_    0.883247 0.686171 0.175932 0.147799
H29   H     H_    0.763901 0.129834 0.687898 0.148969
H30   H     H_    0.761322 0.866884 0.682309 0.151434
H31   H     H_    0.263810 0.629942 0.687729 0.149009
H32   H     H_    0.261313 0.366872 0.682291 0.151434
H33   H     H_    0.379575 0.784154 0.011732 0.128319
H34   H     H_    0.381155 0.218312 0.014620 0.127933
H35   H     H_    0.879699 0.284025 0.011940 0.128305
H36   H     H_    0.881167 0.718328 0.014646 0.127923
H37   H     H_    0.385859 0.713308 0.854797 0.129498
H38   H     H_    0.384262 0.285035 0.851424 0.130867
H39   H     H_    0.886009 0.213140 0.855068 0.129465
H40   H     H_    0.884277 0.785054 0.851454 0.130871
H41   H     H_    0.523616 0.190564 0.705636 0.174266
H42   H     H_    0.525560 0.812295 0.714100 0.176211
H43   H     H_    0.023603 0.690522 0.705710 0.174305
H44   H     H_    0.025558 0.312300 0.714107 0.176220
H45   H     H_    0.701816 0.981220 0.478172 0.125944
H46   H     H_    0.201812 0.481190 0.478167 0.125956
N1    N     N_R   0.566260 1.000000 0.302220 -0.185223
N2    N     N_R   0.066260 0.500000 0.302220 -0.185224
N3    N     N_R   0.434410 1.000000 0.697680 -0.206503
N4    N     N_R   0.934410 0.500000 0.697680 -0.206507
O1    O     O_R   0.608610 0.924520 0.551740 -0.581798
O2    O     O_R   0.608610 0.075480 0.551740 -0.577135
O3    O     O_R   0.108610 0.424520 0.551740 -0.581802
O4    O     O_R   0.108610 0.575480 0.551740 -0.577137
O5    O     O_R   0.564110 0.924510 0.685150 -0.601378
O6    O     O_R   0.564110 0.075490 0.685150 -0.599307
O7    O     O_R   0.064110 0.424510 0.685150 -0.601375
O8    O     O_R   0.064110 0.575490 0.685150 -0.599327
O9    O     O_R   0.435880 0.075470 0.314850 -0.583770
O10   O     O_R   0.435880 0.924530 0.314850 -0.579936
O11   O     O_R   0.935880 0.575470 0.314850 -0.583780
O12   O     O_R   0.935880 0.424530 0.314850 -0.579921
O13   O     O_R   0.391380 0.075460 0.448260 -0.594563
O14   O     O_R   0.391380 0.924540 0.448260 -0.592358
O15   O     O_R   0.891380 0.575460 0.448260 -0.594573
O16   O     O_R   0.891380 0.424540 0.448260 -0.592350
C89   C     C_R   0.778797 0.955446 0.361626 0.086724
C90   C     C_R   0.796282 0.889653 0.324481 -0.140768
C91   C     C_R   0.885222 0.865059 0.398328 -0.133908
C92   C     C_R   0.957296 0.905584 0.510232 -0.114117
C93   C     C_R   0.940518 0.970792 0.548403 -0.128880
C94   C     C_R   0.851628 0.995598 0.474861 -0.158548
H47   H     H_    0.740996 0.857122 0.239314 0.146977
H48   H     H_    0.898214 0.814360 0.369350 0.135498
H49   H     H_    0.026106 0.886329 0.567695 0.128598
H50   H     H_    0.996399 0.001975 0.635428 0.130293
H51   H     H_    0.839529 0.045958 0.506112 0.120832
C95   C     C_R   0.278780 0.455376 0.361609 0.086679
C96   C     C_R   0.296222 0.389563 0.324461 -0.140718
C97   C     C_R   0.385150 0.364925 0.398311 -0.133899
C98   C     C_R   0.457253 0.405428 0.510217 -0.114160
C99   C     C_R   0.440517 0.470657 0.548386 -0.128863
C100  C     C_R   0.351639 0.495507 0.474843 -0.158552
H52   H     H_    0.240913 0.357048 0.239294 0.146983
H53   H     H_    0.398110 0.314210 0.369336 0.135519
H54   H     H_    0.526053 0.386138 0.567684 0.128610
H55   H     H_    0.496421 0.501822 0.635411 0.130292
H56   H     H_    0.339572 0.545882 0.506095 0.120841

loop_
_geom_bond_atom_site_label_1
_geom_bond_atom_site_label_2
_ccdc_geom_bond_type
C97   H53   S    
C26   H2    S    
C14   H18   S    
C83   C87   A    
C96   C97   A    
C25   H1    S    
C64   H24   S    
C2    O2    A    
C14   C18   A    
C53   C55   A    
C27   H3    S    
C93   C94   A    
C7    C81   A    
C48   C56   A    
Cu3   O5    S    
C91   C92   A    
C44   H12   S    
C32   C72   A    
C10   C62   A    
C98   C99   A    
C15   C19   A    
C40   O10   A    
C18   C86   A    
C2    C29   S    
C9    C61   A    
C71   H31   S    
C28   C68   A    
C5    C11   A    
Cu2   O3    S    
C19   C87   A    
C6    C12   A    
C5    C83   A    
C9    C13   A    
C95   C96   A    
C59   H45   S    
C19   H43   S    
C57   H7    S    
C39   O9    A    
C49   C57   A    
C57   N1    A    
C36   H10   S    
C25   C63   A    
C23   C67   A    
C29   C69   A    
C26   C64   A    
C99   C100  A    
C56   H16   S    
Cu4   O16   S    
C13   H17   S    
C27   C61   A    
C11   C15   A    
Cu1   O10   S    
C22   C66   A    
C12   C16   A    
C44   C46   A    
C49   C51   A    
C50   C52   A    
C69   C75   A    
C69   H29   S    
C30   C86   A    
Cu4   N4    S    
C47   N3    A    
C29   C85   A    
C91   H48   S    
C34   C95   S    
C63   H23   S    
C52   C54   A    
C31   C71   A    
C33   C59   A    
C55   H15   S    
C72   H32   S    
C34   C60   A    
C94   H51   S    
C42   O16   A    
C17   C85   A    
C21   C65   A    
Cu3   O6    S    
C30   C70   A    
C75   H39   S    
C41   C68   S    
C41   O11   A    
C95   C100  A    
C45   C47   A    
C54   C56   A    
C3    O7    A    
C6    C84   A    
C24   H28   S    
C48   N4    A    
C26   C66   A    
C15   H19   S    
C31   C87   A    
C72   C74   A    
C10   C14   A    
C79   C81   A    
C80   H36   S    
Cu1   N1    S    
C37   H13   S    
Cu1   O1    S    
C39   O13   A    
Cu4   O15   S    
C51   C53   A    
C50   C58   A    
C38   H14   S    
C38   C44   A    
C1    O1    A    
C21   H25   S    
C70   H30   S    
Cu2   Cu4   S    
C89   C90   A    
C59   N1    A    
C16   C20   A    
C4    O4    A    
C45   C49   A    
C58   H8    S    
C90   H47   S    
C20   H44   S    
Cu2   O11   S    
C43   C45   A    
C60   N2    A    
C41   O15   A    
C80   C82   A    
C42   O12   A    
C35   N3    A    
C3    O3    A    
C40   C65   S    
C74   H38   S    
Cu4   O8    S    
C42   C67   S    
C39   C66   S    
C8    C82   A    
C37   C43   A    
C1    O5    A    
C32   C88   A    
Cu1   Cu3   S    
Cu3   O13   S    
C70   C76   A    
C78   H34   S    
C77   H33   S    
C97   C98   A    
C16   H20   S    
C47   C55   A    
C92   C93   A    
C58   N2    A    
C7    C9    A    
C12   C64   A    
C22   H26   S    
C73   C77   A    
C35   C37   A    
C40   O14   A    
C76   C80   A    
C35   H9    S    
Cu2   N2    S    
C28   C62   A    
C62   H22   S    
C100  H56   S    
C33   C51   A    
Cu1   O2    S    
C4    O8    A    
C96   H52   S    
C46   C50   A    
C34   C52   A    
C13   C17   A    
C28   H4    S    
C53   H5    S    
C90   C91   A    
C36   N4    A    
C36   C38   A    
C93   H50   S    
C79   H35   S    
Cu3   O14   S    
Cu2   O4    S    
C82   C86   A    
C17   H41   S    
C76   H40   S    
Cu2   O12   S    
C84   C88   A    
C75   C79   A    
C98   H54   S    
C73   H37   S    
C7    C23   A    
C20   C88   A    
C1    C30   S    
C8    C24   A    
C18   H42   S    
C3    C32   S    
C43   H11   S    
C4    C31   S    
C27   C67   A    
C24   C68   A    
C61   H21   S    
C92   H49   S    
C46   C48   A    
C78   C84   A    
Cu1   O9    S    
C5    C21   A    
C8    C10   A    
C74   C78   A    
C71   C73   A    
Cu4   O7    S    
C25   C65   A    
C77   C83   A    
C89   C94   A    
C54   H6    S    
C23   H27   S    
C11   C63   A    
C2    O6    A    
C99   H55   S    
C81   C85   A    
C33   C89   S    
C60   H46   S    
Cu3   N3    S    
C6    C22   A    
