data_mof_unit_56385.cif
_audit_creation_date              2012-12-10T16:51:14-0500
_audit_creation_method            fapswitch 2.2
_symmetry_space_group_name_H-M    P1
_symmetry_Int_Tables_number       1
_space_group_crystal_system       triclinic
_cell_length_a                    27.709073
_cell_length_b                    8.719129
_cell_length_c                    7.501483
_cell_angle_alpha                 102.634331
_cell_angle_beta                  94.396669
_cell_angle_gamma                 92.971364
_cell_volume                      1758.87273589

loop_
_atom_site_label
_atom_site_type_symbol
_atom_type_description
_atom_site_fract_x
_atom_site_fract_y
_atom_site_fract_z
_atom_type_partial_charge
C1    C     C_R   0.498453 0.200072 0.453660 0.906560
C2    C     C_R   0.501547 0.799928 0.546340 0.906558
C3    C     C_R   0.102136 0.491324 0.518890 -0.108922
C4    C     C_R   0.897863 0.508653 0.481124 -0.108924
C5    C     C_R   0.123669 0.403767 0.368994 -0.079324
C6    C     C_R   0.876331 0.596215 0.631017 -0.079311
C7    C     C_R   0.094879 0.296731 0.231210 -0.190757
C8    C     C_R   0.905120 0.703249 0.768803 -0.190801
C9    C     C_R   0.131731 0.573276 0.676500 -0.105185
C10   C     C_R   0.868270 0.426703 0.323513 -0.105181
C11   C     C_R   0.355302 0.498213 0.506383 -0.298537
C12   C     C_R   0.644697 0.501784 0.493617 -0.298537
C13   C     C_R   0.970789 0.408397 0.345777 -0.003485
C14   C     C_R   0.029211 0.591575 0.654243 -0.003458
C15   C     C_R   0.978241 0.604223 0.638664 -0.035971
C16   C     C_R   0.021759 0.395747 0.361357 -0.035991
C17   C     C_R   0.949102 0.505625 0.489365 0.019379
C18   C     C_R   0.050897 0.494348 0.510654 0.019379
C19   C     C_R   0.941194 0.335897 0.184879 -0.200685
C20   C     C_R   0.058806 0.664072 0.815140 -0.200630
C21   C     C_R   0.890939 0.343510 0.172262 0.395322
C22   C     C_R   0.109061 0.656464 0.827754 0.395313
C23   C     C_R   0.407913 0.500073 0.501939 0.968888
C24   C     C_R   0.592087 0.499926 0.498061 0.968890
C25   C     C_R   0.044917 0.280292 0.239426 0.426601
C26   C     C_R   0.955084 0.719679 0.760594 0.426604
C27   C     C_2   0.497620 0.032314 0.427759 -0.239462
C28   C     C_2   0.502380 0.967686 0.572241 -0.239466
C29   C     C_R   0.174005 0.416670 0.366797 0.674843
C30   C     C_R   0.825995 0.583318 0.633209 0.674837
C31   C     C_R   0.182597 0.563472 0.676772 0.660772
C32   C     C_R   0.817403 0.436513 0.323235 0.660771
C33   C     C_R   0.281266 0.636521 0.519506 0.416524
C34   C     C_R   0.718733 0.363471 0.480491 0.416522
C35   C     C_R   0.331556 0.636046 0.504554 0.201196
C36   C     C_R   0.668443 0.363948 0.495441 0.201198
C37   C     C_R   0.328827 0.357970 0.511138 0.170253
C38   C     C_R   0.671174 0.642026 0.488865 0.170249
C39   C     C_R   0.278004 0.354160 0.510557 0.403272
C40   C     C_R   0.721997 0.645833 0.489446 0.403274
C41   C     C_R   0.254464 0.494651 0.518731 0.080369
C42   C     C_R   0.745536 0.505341 0.481270 0.080369
Cu1   Cu    Cu3+1 0.505380 0.517380 0.684380 1.084560
Cu2   Cu    Cu3+1 0.494620 0.482620 0.315620 1.084562
H1    H     H_    0.111401 0.213868 0.127984 0.208402
H2    H     H_    0.888599 0.786114 0.872028 0.208399
H3    H     H_    0.956731 0.277582 0.062601 0.217088
H4    H     H_    0.043270 0.722381 0.937422 0.217086
H5    H     H_    0.493058 0.961528 0.288178 0.196262
H6    H     H_    0.506942 0.038472 0.711822 0.196263
N1    N     N_R   0.202537 0.492427 0.520638 -0.414147
N2    N     N_R   0.797463 0.507562 0.479367 -0.414149
N3    N     N_2   0.486510 0.456430 0.038510 0.147828
N4    N     N_2   0.513490 0.543570 0.961490 0.147828
O1    O     O_R   0.503500 0.286120 0.619780 -0.528438
O2    O     O_R   0.496500 0.713880 0.380220 -0.528438
O3    O     O_R   0.494410 0.256780 0.308360 -0.600068
O4    O     O_R   0.505590 0.743220 0.691640 -0.600070
O5    O     O_R   0.434810 0.514700 0.655690 -0.563803
O6    O     O_R   0.565190 0.485300 0.344310 -0.563800
O7    O     O_R   0.425720 0.485350 0.344280 -0.602938
O8    O     O_R   0.574280 0.514650 0.655720 -0.602941
O9    O     O_2   0.194272 0.354591 0.211647 -0.533347
O10   O     O_2   0.805727 0.645399 0.788357 -0.533347
O11   O     O_2   0.787971 0.377862 0.169419 -0.476910
O12   O     O_2   0.212030 0.622124 0.830587 -0.476913
Cl1   Cl    Cl    0.359599 0.187115 0.515445 -0.629613
Cl2   Cl    Cl    0.640403 0.812884 0.484562 -0.629611
O13   O     O_3   0.470917 0.316404 0.928788 -0.489125
C43   C     C_3   0.423357 0.280306 0.967035 -0.051564
H7    H     H_    0.422777 0.242553 0.098287 0.171250
H8    H     H_    0.407477 0.178460 0.859286 0.191096
H9    H     H_    0.400035 0.380282 0.964958 0.154599
O14   O     O_3   0.529085 0.683593 0.071215 -0.489124
C44   C     C_3   0.576644 0.719690 0.032961 -0.051562
H10   H     H_    0.592526 0.821528 0.140715 0.191096
H11   H     H_    0.577223 0.757453 0.901715 0.171250
H12   H     H_    0.599966 0.619709 0.035023 0.154596
O15   O     O_3   0.250916 0.217143 0.515354 -0.578757
C45   C     C_3   0.249594 0.107343 0.344863 -0.076312
H13   H     H_    0.212154 0.051846 0.309007 0.209432
H14   H     H_    0.273851 0.012427 0.357164 0.246584
H15   H     H_    0.259780 0.158878 0.228141 0.158946
O16   O     O_3   0.749085 0.782849 0.484650 -0.578757
C46   C     C_3   0.750408 0.892650 0.655140 -0.076309
H16   H     H_    0.726151 0.987568 0.642837 0.246584
H17   H     H_    0.787848 0.948144 0.690998 0.209427
H18   H     H_    0.740221 0.841116 0.771861 0.158947
Cl3   Cl    Cl    0.635279 0.194196 0.523355 -0.572089
Cl4   Cl    Cl    0.364719 0.805798 0.476634 -0.572090
O17   O     O_3   0.743104 0.228628 0.479541 -0.553915
C47   C     C_3   0.732221 0.119660 0.309309 -0.120933
H19   H     H_    0.719596 0.173402 0.193540 0.165896
H20   H     H_    0.704403 0.027885 0.322683 0.234464
H21   H     H_    0.765534 0.059727 0.271480 0.201489
O18   O     O_3   0.256894 0.771362 0.520454 -0.553909
C48   C     C_3   0.267776 0.880332 0.690685 -0.120944
H22   H     H_    0.295596 0.972102 0.677313 0.234464
H23   H     H_    0.280400 0.826590 0.806456 0.165900
H24   H     H_    0.234465 0.940270 0.728509 0.201492
Cl5   Cl    Cl    0.859412 0.243312 0.961950 -0.578683
Cl6   Cl    Cl    0.140589 0.756660 0.038066 -0.578634
O19   O     O_3   0.020687 0.139927 0.145967 -0.578590
C49   C     C_3   0.015724 0.041463 0.271164 -0.221999
H25   H     H_    0.992992 0.093018 0.382156 0.135430
H26   H     H_    0.051766 0.016736 0.330884 0.164672
H27   H     H_    0.997145 0.926976 0.198149 0.221556
O20   O     O_3   0.979316 0.860038 0.854054 -0.578598
C50   C     C_3   0.984253 0.958538 0.728884 -0.222025
H28   H     H_    0.948199 0.983386 0.669399 0.164778
H29   H     H_    0.006929 0.906947 0.617718 0.135352
H30   H     H_    0.002878 0.072964 0.801861 0.221555

loop_
_geom_bond_atom_site_label_1
_geom_bond_atom_site_label_2
_ccdc_geom_bond_type
C36   Cl3   S    
C31   O12   S    
C29   O9    S    
C30   O10   S    
C8    C26   A    
C14   C18   A    
C34   C42   A    
C44   H10   S    
N3    O13   S    
C49   H26   S    
C48   H22   S    
C39   C41   A    
N3    N4    D    
C23   O5    A    
C7    H1    S    
C31   N1    A    
C19   C21   A    
C50   H29   S    
C19   H3    S    
C9    C22   A    
O20   C50   S    
C3    C18   A    
C11   C37   A    
C40   O16   S    
C34   O17   S    
C32   N2    A    
Cu1   O4    S    
N4    O14   S    
C28   H6    S    
Cu2   N3    S    
C43   H7    S    
C12   C36   A    
Cu1   O5    S    
C21   Cl5   S    
C40   C42   A    
C45   H15   S    
C49   H25   S    
C48   H23   S    
C5    C29   A    
C46   H17   S    
C10   C21   A    
O14   C44   S    
C13   C19   A    
C14   C20   A    
O16   C46   S    
C4    C6    A    
C50   H30   S    
C26   O20   S    
O17   C47   S    
C5    C7    A    
C25   O19   S    
C15   C26   A    
C6    C8    A    
C46   H16   S    
C47   H21   S    
C39   O15   S    
Cu1   Cu2   S    
C3    C9    A    
C1    O3    A    
Cu2   O2    S    
Cu1   N4    S    
Cu2   O3    S    
C24   O6    A    
O18   C48   S    
C43   H9    S    
C47   H20   S    
C44   H11   S    
C20   H4    S    
C4    C17   A    
Cu1   O1    S    
C6    C30   A    
C20   C22   A    
C4    C10   A    
C33   O18   S    
O19   C49   S    
C48   H24   S    
C29   N1    A    
C46   H18   S    
C16   C25   A    
C15   C17   A    
C30   N2    A    
C24   O8    A    
C38   Cl2   S    
C45   H13   S    
C3    C5    A    
C22   Cl6   S    
C2    C28   S    
C2    O4    A    
Cu2   O7    S    
C12   C24   S    
C7    C25   A    
C13   C17   A    
C33   C41   A    
C11   C35   A    
C1    O1    A    
C37   C39   A    
C2    O2    A    
C50   H28   S    
C38   C40   A    
Cu2   O6    S    
C37   Cl1   S    
C11   C23   S    
C47   H19   S    
C33   C35   A    
C45   H14   S    
C34   C36   A    
C12   C38   A    
O13   C43   S    
C44   H12   S    
C8    H2    S    
C9    C31   A    
O15   C45   S    
C35   Cl4   S    
C10   C32   A    
C23   O7    A    
C16   C18   A    
C13   C16   A    
C27   C28   D    
C1    C27   S    
C14   C15   A    
C43   H8    S    
C41   N1    S    
C49   H27   S    
C27   H5    S    
Cu1   O8    S    
C42   N2    S    
C32   O11   S    
