data_mof_unit_27685.cif
_audit_creation_date              2012-12-10T21:07:46-0500
_audit_creation_method            fapswitch 2.2
_symmetry_space_group_name_H-M    P1
_symmetry_Int_Tables_number       1
_space_group_crystal_system       triclinic
_cell_length_a                    8.691428
_cell_length_b                    17.62078
_cell_length_c                    16.736981
_cell_angle_alpha                 90.937817
_cell_angle_beta                  98.506072
_cell_angle_gamma                 90.942517
_cell_volume                      2534.26775877

loop_
_atom_site_label
_atom_site_type_symbol
_atom_type_description
_atom_site_fract_x
_atom_site_fract_y
_atom_site_fract_z
_atom_type_partial_charge
C1    C     C_R   0.501776 0.353138 0.499555 0.992512
C2    C     C_R   0.405407 0.449969 0.244437 0.468330
C3    C     C_R   0.602336 0.547608 0.841625 0.259472
C4    C     C_R   0.400240 0.449389 0.159534 0.236989
C5    C     C_R   0.495240 0.501446 0.875152 -0.271449
C6    C     C_R   0.493276 0.501371 0.123908 -0.283689
C7    C     C_1   0.492235 0.501736 0.962841 0.172644
C8    C     C_1   0.491844 0.501856 0.035911 0.159304
C9    C     C_R   0.200974 0.502220 0.479239 0.887973
C10   C     C_R   0.798518 0.505548 0.520898 0.878821
C11   C     C_2   0.037114 0.510882 0.467737 0.145293
C12   C     C_R   0.498580 0.646683 0.500426 0.980697
C13   C     C_2   0.962958 0.513251 0.533286 0.175134
C14   C     C_R   0.609538 0.850021 0.551419 0.412296
C15   C     C_R   0.601308 0.152987 0.446631 0.376740
C16   C     C_R   0.591779 0.771821 0.560865 0.281672
C17   C     C_R   0.590587 0.232396 0.443758 0.283908
C18   C     C_R   0.496489 0.729142 0.500235 -0.294174
C19   C     C_R   0.507449 0.270371 0.498592 -0.294911
C20   C     C_R   0.404990 0.765453 0.435833 0.425713
C21   C     C_R   0.431630 0.228798 0.553299 0.413158
C22   C     C_R   0.408388 0.844621 0.433647 -0.357950
C23   C     C_1   0.508195 0.965717 0.489553 0.041501
C24   C     C_R   0.427653 0.149782 0.547498 -0.377443
C25   C     C_R   0.510917 0.885853 0.490404 -0.103803
C26   C     C_R   0.511961 0.112894 0.494872 -0.078142
C27   C     C_3   0.955146 0.470220 0.335150 0.171430
C28   C     C_3   0.996597 0.499829 0.255522 -0.281131
C29   C     C_3   0.962175 0.441190 0.186956 -0.898111
C30   C     C_3   0.024083 0.577162 0.655911 0.173370
C31   C     C_3   0.162316 0.631396 0.652458 -0.374620
C32   C     C_3   0.159219 0.698785 0.710521 -1.010120
C33   C     C_3   0.845553 0.913387 0.571510 0.088193
C34   C     C_1   0.508735 0.032978 0.491545 0.065101
C35   C     C_3   0.976943 0.857397 0.594050 -0.338867
C36   C     C_3   0.123235 0.880402 0.559323 -0.942773
C37   C     C_3   0.846022 0.113907 0.436731 0.107285
C38   C     C_3   0.939569 0.063014 0.387789 -0.334420
C39   C     C_3   0.111374 0.063830 0.423531 -0.961527
C40   C     C_3   0.610021 0.755307 0.697335 0.228720
C41   C     C_3   0.740934 0.767945 0.768309 -0.317249
C42   C     C_3   0.676369 0.786458 0.846186 -0.904853
C43   C     C_3   0.612498 0.261613 0.312867 0.147090
C44   C     C_3   0.722522 0.296789 0.259297 -0.359624
C45   C     C_R   0.393008 0.454190 0.822803 0.362504
C46   C     C_3   0.738174 0.246807 0.185583 -0.969632
C47   C     C_3   0.322787 0.736727 0.301426 0.136457
C48   C     C_3   0.241875 0.673262 0.246911 -0.311806
C49   C     C_3   0.260014 0.684545 0.158601 -0.945626
C50   C     C_3   0.403639 0.247335 0.687404 0.174274
C51   C     C_3   0.265221 0.229780 0.731209 -0.287276
C52   C     C_3   0.317868 0.212826 0.820062 -0.932987
C53   C     C_3   0.853681 0.580024 0.897711 0.156739
C54   C     C_3   0.891539 0.513495 0.954697 -0.441501
C55   C     C_3   0.065090 0.497607 0.966502 -0.845065
C56   C     C_R   0.588911 0.552486 0.174911 0.394859
C57   C     C_3   0.359725 0.331240 0.103685 0.124385
C58   C     C_3   0.245408 0.281174 0.046957 -0.324596
C59   C     C_3   0.307959 0.201434 0.038930 -0.985388
C60   C     C_R   0.395388 0.455413 0.738952 0.542023
C61   C     C_R   0.589938 0.551176 0.259168 0.513928
C62   C     C_R   0.601764 0.545837 0.756682 0.463729
F1    F     F_    0.291083 0.407086 0.852488 -0.666256
F2    F     F_    0.679369 0.604145 0.143261 -0.634486
F3    F     F_    0.290537 0.412579 0.688967 -0.577533
F4    F     F_    0.680001 0.602170 0.307291 -0.593474
F5    F     F_    0.700761 0.590958 0.723113 -0.680597
F6    F     F_    0.313080 0.401139 0.278399 -0.667785
H1    H     H_    0.329974 0.874150 0.388715 0.171672
H2    H     H_    0.022013 0.561916 0.719839 0.183475
H3    H     H_    0.914242 0.607584 0.635390 0.188294
H4    H     H_    0.272878 0.601224 0.669457 0.250674
H5    H     H_    0.158323 0.652386 0.589922 0.216623
H6    H     H_    0.044650 0.726504 0.699508 0.280832
H7    H     H_    0.251159 0.740891 0.701521 0.260081
H8    H     H_    0.180374 0.679541 0.774019 0.265568
H9    H     H_    0.885313 0.970391 0.596409 0.155030
H10   H     H_    0.821695 0.919087 0.504480 0.128578
H11   H     H_    0.005328 0.855626 0.660891 0.223030
H12   H     H_    0.359791 0.117221 0.584805 0.177128
H13   H     H_    0.938419 0.799756 0.570599 0.249524
H14   H     H_    0.097905 0.883179 0.492418 0.278464
H15   H     H_    0.214693 0.837748 0.575656 0.267904
H16   H     H_    0.168029 0.936570 0.584457 0.256124
H17   H     H_    0.854282 0.091319 0.499094 0.114094
H18   H     H_    0.896871 0.172511 0.439613 0.185096
H19   H     H_    0.892793 0.003852 0.386909 0.220850
H20   H     H_    0.927685 0.082977 0.324533 0.233352
H21   H     H_    0.161928 0.121894 0.420958 0.279042
H22   H     H_    0.175048 0.024418 0.388243 0.268255
H23   H     H_    0.833619 0.447990 0.324702 0.152656
H24   H     H_    0.126219 0.045327 0.487264 0.261308
H25   H     H_    0.533952 0.707282 0.710521 0.176139
H26   H     H_    0.536706 0.807043 0.692455 0.104435
H27   H     H_    0.812783 0.716425 0.777131 0.259829
H28   H     H_    0.817309 0.815792 0.754895 0.224429
H29   H     H_    0.613452 0.840920 0.840518 0.253254
H30   H     H_    0.773572 0.791901 0.897185 0.270064
H31   H     H_    0.595253 0.740680 0.859667 0.297891
H32   H     H_    0.497636 0.289148 0.300546 0.163078
H33   H     H_    0.592797 0.200516 0.296429 0.184329
H34   H     H_    0.031431 0.421641 0.355046 0.132710
H35   H     H_    0.677817 0.352901 0.238740 0.167076
H36   H     H_    0.840630 0.305724 0.294351 0.249484
H37   H     H_    0.796867 0.193238 0.205062 0.280283
H38   H     H_    0.809128 0.277082 0.145713 0.266342
H39   H     H_    0.622295 0.232770 0.150753 0.255029
H40   H     H_    0.449039 0.737451 0.295352 0.172670
H41   H     H_    0.270512 0.791580 0.281033 0.129762
H42   H     H_    0.293300 0.618370 0.266943 0.215887
H43   H     H_    0.116014 0.671262 0.252479 0.252641
H44   H     H_    0.204122 0.737949 0.136318 0.270347
H45   H     H_    0.930354 0.551855 0.238331 0.276116
H46   H     H_    0.203187 0.636227 0.121502 0.267047
H47   H     H_    0.385045 0.686944 0.151570 0.294646
H48   H     H_    0.469693 0.297222 0.716999 0.173933
H49   H     H_    0.484696 0.198610 0.694945 0.088846
H50   H     H_    0.186186 0.278940 0.727017 0.295851
H51   H     H_    0.199230 0.179796 0.701573 0.191431
H52   H     H_    0.391511 0.161711 0.825783 0.249413
H53   H     H_    0.214271 0.202002 0.850131 0.272572
H54   H     H_    0.385008 0.261811 0.851018 0.300501
H55   H     H_    0.923725 0.630445 0.923171 0.164376
H56   H     H_    0.121848 0.515313 0.263922 0.238182
H57   H     H_    0.890605 0.567326 0.838234 0.154905
H58   H     H_    0.854918 0.526722 0.014176 0.267178
H59   H     H_    0.827237 0.461643 0.928695 0.216671
H60   H     H_    0.107310 0.494003 0.907237 0.301112
H61   H     H_    0.086099 0.442644 0.997033 0.305791
H62   H     H_    0.131019 0.543356 0.003921 0.255788
H63   H     H_    0.381699 0.303663 0.163479 0.159774
H64   H     H_    0.470501 0.336422 0.077828 0.137244
H65   H     H_    0.132826 0.277311 0.070847 0.227478
H66   H     H_    0.224311 0.307094 0.986293 0.262898
H67   H     H_    0.008944 0.462400 0.133244 0.294965
H68   H     H_    0.418169 0.203771 0.012786 0.272604
H69   H     H_    0.221419 0.166109 0.998450 0.272530
H70   H     H_    0.329340 0.174360 0.098935 0.266140
H71   H     H_    0.834797 0.432165 0.170394 0.232780
H72   H     H_    0.017771 0.386436 0.204448 0.305275
N1    N     N_R   0.500040 0.500030 0.707230 -0.239804
N2    N     N_R   0.499960 0.499970 0.292770 -0.244543
O1    O     O_R   0.500000 0.389130 0.566570 -0.571386
O2    O     O_3   0.039830 0.508767 0.612190 -0.586049
O3    O     O_3   0.713276 0.891733 0.606867 -0.644001
O4    O     O_3   0.690247 0.113737 0.398264 -0.651261
O5    O     O_3   0.674951 0.736819 0.626629 -0.612822
O6    O     O_3   0.676108 0.273481 0.395072 -0.636928
O7    O     O_3   0.299579 0.722989 0.381817 -0.621887
O8    O     O_3   0.347731 0.265659 0.606096 -0.585189
O9    O     O_3   0.695048 0.599280 0.891283 -0.597604
O10   O     O_3   0.293868 0.402995 0.111407 -0.612738
O11   O     O_R   0.500000 0.610870 0.433430 -0.556037
O12   O     O_R   0.499990 0.389100 0.433480 -0.568053
O13   O     O_R   0.500010 0.610900 0.566520 -0.602807
O14   O     O_R   0.271750 0.500010 0.550980 -0.550938
O15   O     O_R   0.728250 0.499990 0.449020 -0.578227
O16   O     O_R   0.271740 0.499980 0.417890 -0.598123
O17   O     O_R   0.728260 0.500020 0.582110 -0.581479
O18   O     O_3   0.964005 0.531569 0.391645 -0.593445
Zn1   Zn    Zn3+2 0.500010 0.500020 0.588860 1.051015
Zn2   Zn    Zn3+2 0.499990 0.499980 0.411140 1.049548

loop_
_geom_bond_atom_site_label_1
_geom_bond_atom_site_label_2
_ccdc_geom_bond_type
C48   H42   S    
C46   H37   S    
C45   C60   A    
N1    Zn1   S    
C50   H49   S    
C41   C42   S    
C57   H64   S    
C35   C36   S    
C12   O11   A    
C32   H7    S    
C30   H3    S    
C35   H13   S    
C7    C8    T    
C41   H27   S    
C53   C54   S    
C58   H66   S    
C54   H58   S    
C14   O3    S    
C62   F5    S    
C16   O5    S    
C37   H17   S    
C28   C29   S    
C19   C21   A    
C24   C26   A    
C2    F6    S    
C42   H30   S    
C32   H6    S    
C38   C39   S    
C33   H10   S    
C31   H5    S    
C41   H28   S    
C59   H69   S    
C36   H15   S    
C57   O10   S    
C59   H68   S    
C51   H50   S    
C30   O2    S    
C20   O7    S    
C13   O2    S    
C43   O6    S    
C33   C35   S    
C52   H54   S    
C61   F4    S    
C26   C34   S    
C47   O7    S    
C9    O14   A    
C44   C46   S    
C55   H61   S    
C22   C25   A    
C51   H51   S    
C56   F2    S    
C27   H23   S    
C40   H26   S    
C37   O4    S    
C40   H25   S    
C39   H22   S    
C50   H48   S    
C23   C34   T    
C49   H46   S    
C4    O10   S    
C30   H2    S    
C44   H35   S    
C24   H12   S    
C11   O18   S    
C58   H65   S    
C44   H36   S    
C29   H71   S    
C1    C19   S    
C51   C52   S    
C37   H18   S    
C17   O6    S    
C43   H32   S    
C4    C6    A    
C53   H55   S    
C42   H29   S    
C36   H14   S    
C5    C7    S    
C15   C26   A    
C6    C8    S    
O15   Zn2   S    
C59   H70   S    
C58   C59   S    
C47   H41   S    
C5    C45   A    
C45   F1    S    
O13   Zn1   S    
C38   H20   S    
C60   F3    S    
C2    C4    A    
C43   C44   S    
C43   H33   S    
C32   H8    S    
C37   C38   S    
C1    O1    A    
C60   N1    A    
C52   H53   S    
C50   O8    S    
C47   C48   S    
C55   H62   S    
C46   H39   S    
O17   Zn1   S    
C50   C51   S    
C21   O8    S    
C9    C11   S    
C10   O15   A    
C53   H57   S    
C49   H44   S    
C52   H52   S    
C31   H4    S    
C49   H47   S    
C20   C22   A    
O14   Zn1   S    
C2    N2    A    
C14   C16   A    
C62   N1    A    
O12   Zn2   S    
C39   H24   S    
C3    C62   A    
C15   C17   A    
C29   H72   S    
C54   C55   S    
C48   C49   S    
C22   H1    S    
C40   O5    S    
C29   H67   S    
C57   H63   S    
C31   C32   S    
C6    C56   A    
C3    C5    A    
C10   C13   S    
N2    Zn2   S    
C15   O4    S    
C28   H56   S    
C54   H59   S    
O11   Zn2   S    
C27   H34   S    
C3    O9    S    
C38   H19   S    
C27   O18   S    
C42   H31   S    
C11   C13   D    
C33   H9    S    
C57   C58   S    
C30   C31   S    
C9    O16   A    
C36   H16   S    
C46   H38   S    
C35   H11   S    
C17   C19   A    
O1    Zn1   S    
C18   C20   A    
C23   C25   S    
C14   C25   A    
C1    O12   A    
C28   H45   S    
O16   Zn2   S    
C61   N2    A    
C48   H43   S    
C55   H60   S    
C16   C18   A    
C47   H40   S    
C21   C24   A    
C12   C18   S    
C27   C28   S    
C53   O9    S    
C56   C61   A    
C40   C41   S    
C12   O13   A    
C10   O17   A    
C39   H21   S    
C33   O3    S    
