data_mof_unit_5528.cif
_audit_creation_date              2012-12-11T14:13:14-0500
_audit_creation_method            fapswitch 2.2
_symmetry_space_group_name_H-M    P1
_symmetry_Int_Tables_number       1
_space_group_crystal_system       triclinic
_cell_length_a                    11.719589
_cell_length_b                    18.460553
_cell_length_c                    10.052104
_cell_angle_alpha                 90.15595
_cell_angle_beta                  111.320218
_cell_angle_gamma                 89.726396
_cell_volume                      2025.91440284

loop_
_atom_site_label
_atom_site_type_symbol
_atom_type_description
_atom_site_fract_x
_atom_site_fract_y
_atom_site_fract_z
_atom_type_partial_charge
C1    C     C_R   0.070250 0.647573 0.138738 0.559381
C2    C     C_R   0.866487 0.361036 0.840678 0.584351
C3    C     C_R   0.925739 0.145669 0.859505 0.577287
C4    C     C_R   0.069817 0.852010 0.139760 0.580689
C5    C     C_R   0.408793 0.468117 0.524481 -0.043569
C6    C     C_R   0.613174 0.541905 0.511694 -0.010003
C7    C     C_R   0.599431 0.962750 0.494261 -0.027560
C8    C     C_R   0.394640 0.039768 0.500509 -0.001810
C9    C     C_2   0.364254 0.938355 0.018674 0.138645
C10   C     C_2   0.593550 0.068452 0.053478 0.219018
C11   C     C_2   0.593922 0.429130 0.060078 0.174981
C12   C     C_2   0.367917 0.557982 0.014108 0.160558
C13   C     C_2   0.443919 0.971010 0.969169 0.259878
C14   C     C_2   0.474705 0.047817 0.002416 0.277271
C15   C     C_2   0.495146 0.447947 0.092437 0.314815
C16   C     C_2   0.471365 0.525410 0.102981 0.271453
C17   C     C_2   0.006439 0.920661 0.118715 0.014056
C18   C     C_2   0.974759 0.072670 0.879815 -0.038996
C19   C     C_2   0.886071 0.438576 0.852153 0.010885
C20   C     C_2   0.002599 0.579976 0.109277 -0.024658
C21   C     C_2   0.978742 0.955917 0.995562 0.264122
C22   C     C_2   0.984776 0.035980 0.998249 0.241780
C23   C     C_2   0.965344 0.469627 0.969704 0.277303
C24   C     C_2   0.970031 0.549398 0.979629 0.241803
C25   C     C_R   0.474015 0.648793 0.446745 0.580234
C26   C     C_R   0.529928 0.353983 0.559077 0.568210
C27   C     C_R   0.528041 0.147685 0.555664 0.533276
C28   C     C_R   0.470849 0.852877 0.443438 0.580200
C29   C     C_R   0.352197 0.637907 0.013223 0.595717
C30   C     C_R   0.622755 0.354993 0.035748 0.561801
C31   C     C_R   0.624173 0.143379 0.032640 0.619307
C32   C     C_R   0.349873 0.860333 0.016018 0.598625
C33   C     C_R   0.504015 0.428499 0.500139 0.037507
C34   C     C_R   0.514966 0.580299 0.528730 0.038534
C35   C     C_R   0.500511 0.925088 0.511768 0.047113
C36   C     C_R   0.493467 0.076739 0.482643 -0.012908
C37   C     C_R   0.296369 0.436353 0.513279 -0.104956
C38   C     C_R   0.718544 0.578579 0.513652 -0.082580
C39   C     C_R   0.710322 0.927546 0.507935 -0.126564
C40   C     C_R   0.289174 0.077713 0.496599 -0.099230
C41   C     C_R   0.207557 0.476641 0.543297 -0.085593
C42   C     C_R   0.799795 0.545654 0.460974 -0.090030
C43   C     C_R   0.801798 0.963965 0.477705 -0.123654
C44   C     C_R   0.210708 0.047961 0.555637 -0.105389
C45   C     C_R   0.229611 0.548355 0.589089 0.195731
C46   C     C_R   0.783752 0.474277 0.414872 0.177751
C47   C     C_R   0.784226 0.035575 0.431652 0.261397
C48   C     C_R   0.225049 0.976760 0.601781 0.153332
C49   C     C_R   0.344489 0.578797 0.611951 0.307232
C50   C     C_R   0.683833 0.434240 0.421746 0.297746
C51   C     C_R   0.673480 0.070296 0.410505 0.299979
C52   C     C_R   0.320253 0.933743 0.588829 0.316328
C53   C     C_R   0.425859 0.541942 0.560871 0.018828
C54   C     C_R   0.600610 0.467212 0.478298 0.034662
C55   C     C_R   0.586470 0.036810 0.458469 -0.027772
C56   C     C_R   0.405196 0.965220 0.533952 0.061725
Cr1   Cr    Cr6+3 0.187610 0.750000 0.979860 1.152209
Cr2   Cr    Cr6+3 0.812390 0.250000 0.020140 1.178223
Cr3   Cr    Cr6+3 0.245810 0.750000 0.341640 1.076217
Cr4   Cr    Cr6+3 0.754190 0.250000 0.658360 1.104861
Cr5   Cr    Cr6+3 0.485760 0.750000 0.219910 1.070222
Cr6   Cr    Cr6+3 0.514240 0.250000 0.780090 1.077707
H1    H     H_    0.122400 0.451451 0.534022 0.209203
H2    H     H_    0.869736 0.577789 0.444839 0.199115
H3    H     H_    0.884468 0.935522 0.485405 0.200090
H4    H     H_    0.142744 0.082075 0.573159 0.196194
H5    H     H_    0.274048 0.381455 0.474860 0.175836
H6    H     H_    0.734092 0.634623 0.547455 0.170688
H7    H     H_    0.727781 0.872116 0.545074 0.171831
H8    H     H_    0.272283 0.132926 0.457841 0.169705
H9    H     H_    0.977484 0.045332 0.785571 0.123888
H10   H     H_    0.008944 0.948256 0.215280 0.128742
H11   H     H_    0.004584 0.548234 0.200921 0.131781
H12   H     H_    0.827071 0.470968 0.763700 0.047807
O1    O     O_R   0.267710 0.668200 0.902110 -0.447039
O2    O     O_R   0.732290 0.331800 0.097890 -0.458332
O3    O     O_R   0.732290 0.168200 0.097890 -0.417227
O4    O     O_R   0.267710 0.831800 0.902110 -0.453499
O5    O     O_R   0.099480 0.674460 0.038850 -0.443323
O6    O     O_R   0.900520 0.325540 0.961150 -0.409562
O7    O     O_R   0.900520 0.174460 0.961150 -0.421661
O8    O     O_R   0.099480 0.825540 0.038850 -0.430922
O9    O     O_R   0.116720 0.669210 0.267660 -0.509202
O10   O     O_R   0.883280 0.330790 0.732340 -0.495622
O11   O     O_R   0.883280 0.169210 0.732340 -0.498251
O12   O     O_R   0.116720 0.830790 0.267660 -0.518901
O13   O     O_R   0.366710 0.675440 0.427590 -0.473490
O14   O     O_R   0.633290 0.324560 0.572410 -0.475496
O15   O     O_R   0.633290 0.175440 0.572410 -0.457383
O16   O     O_R   0.366710 0.824560 0.427590 -0.445924
O17   O     O_R   0.534870 0.669390 0.371760 -0.497534
O18   O     O_R   0.465130 0.330610 0.628240 -0.518373
O19   O     O_R   0.465130 0.169390 0.628240 -0.513223
O20   O     O_R   0.534870 0.830610 0.371760 -0.525658
O21   O     O_R   0.453080 0.674480 0.075160 -0.477878
O22   O     O_R   0.546920 0.325520 0.924840 -0.505667
O23   O     O_R   0.546920 0.174480 0.924840 -0.473090
O24   O     O_R   0.453080 0.825520 0.075160 -0.497623
O25   O     O_3   0.306390 0.750000 0.180470 -0.346983
O26   O     O_3   0.693610 0.250000 0.819530 -0.338343
Br1   Br    Br    0.099513 0.604893 0.608688 -0.503704
Br2   Br    Br    0.894488 0.436476 0.331003 -0.504871
Br3   Br    Br    0.909665 0.086805 0.393257 -0.406460
Br4   Br    Br    0.116790 0.942932 0.690369 -0.538732
O27   O     O_3   0.380865 0.644573 0.680487 -0.648625
H13   H     H_    0.308562 0.672867 0.677988 0.378190
O28   O     O_3   0.656500 0.367310 0.356489 -0.679480
H14   H     H_    0.733125 0.343461 0.359543 0.369697
O29   O     O_3   0.652177 0.136166 0.340545 -0.641269
H15   H     H_    0.562746 0.145708 0.301677 0.324119
O30   O     O_3   0.340649 0.864668 0.645115 -0.662781
H16   H     H_    0.261989 0.843750 0.641253 0.370705
O31   O     O_3   0.382547 0.099594 0.970202 -0.677899
H17   H     H_    0.304212 0.076684 0.910455 0.354603
O32   O     O_3   0.502110 0.936122 0.888768 -0.661650
H18   H     H_    0.487059 0.883556 0.883517 0.388417
O33   O     O_3   0.562104 0.563665 0.204632 -0.694831
H19   H     H_    0.610475 0.588583 0.155901 0.371148
O34   O     O_3   0.420031 0.398752 0.124902 -0.648660
H20   H     H_    0.449054 0.348645 0.121264 0.348463
Br5   Br    Br    0.724189 0.998182 0.095870 -0.445113
Br6   Br    Br    0.296408 0.987675 0.141396 -0.603438
Br7   Br    Br    0.232490 0.498864 0.902544 -0.456003
Br8   Br    Br    0.677720 0.499044 0.986784 -0.546120
O35   O     O_3   0.001752 0.073684 0.123088 -0.617110
H21   H     H_    0.077132 0.054488 0.197191 0.341435
O36   O     O_3   0.948221 0.916537 0.870257 -0.640463
H22   H     H_    0.886715 0.944669 0.793591 0.321743
O37   O     O_3   0.950790 0.592174 0.860212 -0.642645
H23   H     H_    0.954523 0.561273 0.781381 0.351882
O38   O     O_3   0.044908 0.427047 0.077605 -0.615162
H24   H     H_    0.112286 0.457558 0.140718 0.332267

loop_
_geom_bond_atom_site_label_1
_geom_bond_atom_site_label_2
_ccdc_geom_bond_type
C44   C48   A    
C5    C37   A    
C12   C29   S    
C3    O11   A    
Cr3   O25   S    
Cr1   O5    S    
C44   H4    S    
C11   Br8   S    
C7    C55   A    
C10   Br5   S    
C8    C56   A    
Cr4   O14   S    
Cr2   O2    S    
Cr4   O15   S    
C46   Br2   S    
C50   C54   A    
C40   H8    S    
C5    C53   A    
Cr3   O9    S    
C38   C42   A    
Cr6   O22   S    
C42   C46   A    
C4    O12   A    
C26   O18   A    
C15   C16   S    
C48   Br4   S    
C33   C54   A    
C3    C18   S    
C28   O20   A    
C8    C36   A    
C9    C13   D    
C30   O22   A    
Cr2   O3    S    
C2    O10   A    
C24   O37   S    
C20   C24   D    
C11   C30   S    
C15   O34   S    
C5    C33   A    
C3    O7    A    
C23   C24   S    
C6    C38   A    
C21   O36   S    
C40   C44   A    
C9    C32   S    
Cr2   O6    S    
C25   C34   S    
C35   C56   A    
C51   O29   S    
C21   C22   S    
Cr5   O25   S    
C11   C15   D    
C6    C54   A    
C10   C31   S    
C31   O3    A    
C39   C43   A    
C25   O17   A    
C47   Br3   S    
C12   C16   D    
Cr2   O26   S    
C28   C35   S    
C10   C14   D    
Cr2   O7    S    
C29   O21   A    
Cr5   O20   S    
C22   O35   S    
C47   C51   A    
C52   O30   S    
C17   C21   D    
C6    C34   A    
Cr6   O18   S    
Cr3   O16   S    
C19   C23   D    
Cr6   O23   S    
C30   O2    A    
C26   C33   S    
C45   C49   A    
C43   H3    S    
C9    Br6   S    
C39   H7    S    
C23   O38   S    
C13   O32   S    
C45   Br1   S    
C17   H10   S    
Cr6   O26   S    
C4    C17   S    
C38   H6    S    
O35   H21   S    
C1    O5    A    
C27   O19   A    
C41   H1    S    
O28   H14   S    
O38   H24   S    
C42   H2    S    
O31   H17   S    
C18   H9    S    
C1    C20   S    
C7    C39   A    
O30   H16   S    
C2    C19   S    
C18   C22   D    
C7    C35   A    
Cr1   O4    S    
C19   H12   S    
Cr4   O26   S    
C49   O27   S    
O34   H20   S    
Cr5   O21   S    
O36   H22   S    
C29   O1    A    
C27   C36   S    
C1    O9    A    
C14   O31   S    
O27   H13   S    
C46   C50   A    
O33   H19   S    
Cr1   O1    S    
O37   H23   S    
Cr3   O12   S    
C36   C55   A    
C16   O33   S    
Cr4   O10   S    
Cr5   O24   S    
O32   H18   S    
C50   O28   S    
C12   Br7   S    
C49   C53   A    
C37   H5    S    
C32   O24   A    
C20   H11   S    
C27   O15   A    
C51   C55   A    
C31   O23   A    
C37   C41   A    
Cr3   O13   S    
C2    O6    A    
C32   O4    A    
C25   O13   A    
C52   C56   A    
C48   C52   A    
C4    O8    A    
C34   C53   A    
C26   O14   A    
Cr6   O19   S    
O29   H15   S    
C41   C45   A    
Cr1   O8    S    
Cr4   O11   S    
C28   O16   A    
C8    C40   A    
C13   C14   S    
C43   C47   A    
Cr5   O17   S    
Cr1   O25   S    
