data_mof_unit_30362.cif
_audit_creation_date              2012-12-10T16:33:53-0500
_audit_creation_method            fapswitch 2.2
_symmetry_space_group_name_H-M    P1
_symmetry_Int_Tables_number       1
_space_group_crystal_system       triclinic
_cell_length_a                    28.325949
_cell_length_b                    18.415901
_cell_length_c                    17.033608
_cell_angle_alpha                 89.816166
_cell_angle_beta                  61.028801
_cell_angle_gamma                 89.593975
_cell_volume                      7773.44207929

loop_
_atom_site_label
_atom_site_type_symbol
_atom_type_description
_atom_site_fract_x
_atom_site_fract_y
_atom_site_fract_z
_atom_type_partial_charge
C1    C     C_R   0.701661 0.268139 0.675957 0.885851
C2    C     C_R   0.934698 0.630331 0.552500 -0.241230
C3    C     C_R   0.074230 0.900469 0.933744 0.912651
C4    C     C_R   0.574173 0.599466 0.933702 0.908555
C5    C     C_R   0.425912 0.400404 0.066206 0.910604
C6    C     C_R   0.425808 0.599605 0.066115 0.912090
C7    C     C_R   0.574251 0.400486 0.933800 0.910148
C8    C     C_R   0.547775 0.998565 0.507703 0.014475
C9    C     C_R   0.452205 0.001371 0.492319 0.014497
C10   C     C_R   0.030274 0.500101 0.571908 0.014377
C11   C     C_R   0.938523 0.499694 0.546459 0.014421
C12   C     C_R   0.540413 0.051767 0.454247 0.031510
C13   C     C_R   0.934750 0.369233 0.555587 -0.242065
C14   C     C_R   0.459564 0.948161 0.545772 0.031525
C15   C     C_R   0.491857 0.054688 0.448213 0.034465
C16   C     C_R   0.508124 0.945243 0.551803 0.034532
C17   C     C_R   0.005734 0.566431 0.570096 0.042897
C18   C     C_R   0.960762 0.433471 0.555866 0.023769
C19   C     C_R   0.960741 0.566126 0.554233 0.024077
C20   C     C_R   0.005778 0.433636 0.571786 0.043217
C21   C     C_R   0.606820 0.939650 0.559022 0.075656
C22   C     C_R   0.393162 0.060314 0.441013 0.075655
C23   C     C_R   0.367350 0.943593 0.519467 0.025174
C24   C     C_R   0.022849 0.629488 0.596275 -0.273568
C25   C     C_R   0.632611 0.056394 0.480605 0.025153
C26   C     C_R   0.101958 0.434198 0.583914 0.073627
C27   C     C_R   0.867610 0.565744 0.529901 0.011259
C28   C     C_R   0.867881 0.433583 0.530023 0.014367
C29   C     C_R   0.101915 0.566438 0.582601 0.074849
C30   C     C_R   0.658759 0.936991 0.553093 -0.127473
C31   C     C_R   0.341222 0.062993 0.446951 -0.126630
C32   C     C_R   0.327352 0.938949 0.491063 -0.129015
C33   C     C_R   0.672609 0.061049 0.509021 -0.129381
C34   C     C_R   0.156794 0.434756 0.564429 -0.122247
C35   C     C_R   0.518367 0.890559 0.600548 -0.255280
C36   C     C_R   0.826857 0.564287 0.502077 -0.120924
C37   C     C_R   0.826844 0.435429 0.502423 -0.122395
C38   C     C_R   0.156766 0.565453 0.563906 -0.123475
C39   C     C_R   0.686415 0.000336 0.540913 -0.294699
C40   C     C_R   0.313550 0.999660 0.459166 -0.294526
C41   C     C_R   0.182609 0.499960 0.556479 -0.308123
C42   C     C_R   0.809254 0.499988 0.486207 -0.308318
C43   C     C_R   0.595638 0.998059 0.515624 0.002972
C44   C     C_R   0.404339 0.001901 0.484415 0.002866
C45   C     C_R   0.078415 0.500258 0.578190 -0.012445
C46   C     C_R   0.481619 0.109377 0.399468 -0.255166
C47   C     C_R   0.892602 0.499622 0.532123 0.014430
C48   C     C_R   0.067980 0.372335 0.613258 0.191896
C49   C     C_R   0.883898 0.629029 0.558478 0.170949
C50   C     C_R   0.884405 0.370378 0.559305 0.175028
C51   C     C_R   0.067706 0.628670 0.610422 0.189351
C52   C     C_R   0.565461 0.888912 0.608407 0.186677
C53   C     C_R   0.434526 0.111033 0.391613 0.187268
C54   C     C_R   0.372024 0.895894 0.581840 0.155312
C55   C     C_R   0.627906 0.104113 0.418272 0.155441
C56   C     C_3   0.069641 0.315623 0.677633 -0.410692
C57   C     C_R   0.416499 0.901750 0.595985 -0.231435
C58   C     C_3   0.076939 0.349153 0.753094 -0.864347
C59   C     C_3   0.843374 0.680204 0.628771 -0.331083
C60   C     C_3   0.858876 0.760705 0.608379 -0.775086
C61   C     C_3   0.844045 0.318581 0.627898 -0.338438
C62   C     C_3   0.860200 0.238208 0.606129 -0.781397
C63   C     C_3   0.068708 0.686123 0.674254 -0.406728
C64   C     C_3   0.075760 0.653417 0.750643 -0.857475
C65   C     C_3   0.565155 0.840769 0.681818 -0.419765
C66   C     C_3   0.563297 0.885913 0.758353 -0.873361
C67   C     C_3   0.434850 0.159126 0.318153 -0.420148
C68   C     C_R   0.583461 0.098201 0.404067 -0.231314
C69   C     C_3   0.436834 0.113915 0.241572 -0.875410
C70   C     C_3   0.328954 0.844445 0.645495 -0.351995
C71   C     C_3   0.350855 0.765947 0.631660 -0.771813
C72   C     C_3   0.670847 0.155800 0.354837 -0.353029
C73   C     C_3   0.648730 0.234211 0.369147 -0.771722
C74   C     C_R   0.721575 0.265948 0.953209 0.119578
C75   C     C_R   0.277264 0.731613 0.047689 0.116841
C76   C     C_R   0.279622 0.266114 0.045583 0.114989
C77   C     C_R   0.298065 0.731284 0.324174 0.917419
C78   C     C_R   0.720382 0.734027 0.954253 0.114026
C79   C     C_R   0.217601 0.758009 0.955685 0.117459
C80   C     C_R   0.781386 0.239973 0.045070 0.119193
C81   C     C_R   0.779509 0.766485 0.045512 0.114903
C82   C     C_R   0.220504 0.233670 0.954307 0.114828
C83   C     C_R   0.778357 0.264061 0.906487 -0.184649
C84   C     C_R   0.220448 0.731691 0.094047 -0.177741
C85   C     C_R   0.255976 0.197581 0.054288 -0.179718
C86   C     C_R   0.744027 0.802569 0.945549 -0.180859
C87   C     C_R   0.274366 0.757564 0.909295 -0.190136
C88   C     C_R   0.298073 0.268748 0.324250 0.887605
C89   C     C_R   0.724619 0.241830 0.091864 -0.191136
C90   C     C_R   0.755952 0.697911 0.054097 -0.179050
C91   C     C_R   0.244152 0.302201 0.945596 -0.178963
C92   C     C_R   0.807821 0.251335 0.951707 -0.180093
C93   C     C_R   0.191052 0.744855 0.048711 -0.180670
C94   C     C_R   0.226952 0.181551 0.009224 -0.175764
C95   C     C_R   0.773062 0.818597 0.990590 -0.178623
C96   C     C_R   0.303751 0.744715 0.954611 -0.181244
C97   C     C_R   0.695158 0.254535 0.046629 -0.180829
C98   C     C_R   0.726948 0.681863 0.009009 -0.180585
C99   C     C_R   0.701740 0.731641 0.675840 0.854733
C100  C     C_R   0.273174 0.318232 0.990661 -0.174577
C101  C     C_R   0.644240 0.327232 0.945539 -0.208149
C102  C     C_R   0.355256 0.671861 0.054771 -0.206138
C103  C     C_R   0.356542 0.327250 0.053855 -0.202821
C104  C     C_R   0.643582 0.672512 0.945960 -0.203180
C105  C     C_R   0.142060 0.823357 0.947028 -0.208005
C106  C     C_R   0.857183 0.175276 0.053616 -0.209726
C107  C     C_R   0.856406 0.827550 0.053874 -0.205022
C108  C     C_R   0.143563 0.172572 0.946062 -0.202377
C109  C     C_R   0.616832 0.347284 0.898145 -0.067963
C110  C     C_R   0.201020 0.766808 0.676205 0.862605
C111  C     C_R   0.383009 0.652509 0.101851 -0.066023
C112  C     C_R   0.383407 0.347472 0.101885 -0.066195
C113  C     C_R   0.616693 0.652327 0.897967 -0.068560
C114  C     C_R   0.115943 0.846023 0.898500 -0.067992
C115  C     C_R   0.883698 0.153394 0.101768 -0.068188
C116  C     C_R   0.883209 0.847821 0.101987 -0.065721
C117  C     C_R   0.116721 0.152313 0.898009 -0.066048
C118  C     C_R   0.633233 0.321861 0.813139 -0.259030
C119  C     C_R   0.366646 0.678122 0.186746 -0.261285
C120  C     C_R   0.366677 0.322160 0.187143 -0.266340
C121  C     C_R   0.798928 0.233101 0.323811 0.882813
C122  C     C_R   0.633341 0.677717 0.812759 -0.264820
C123  C     C_R   0.132682 0.821526 0.812915 -0.273321
C124  C     C_R   0.867150 0.178254 0.187123 -0.260366
C125  C     C_R   0.866315 0.822800 0.187377 -0.261438
C126  C     C_R   0.133551 0.177422 0.812661 -0.273552
C127  C     C_R   0.679369 0.280759 0.771088 -0.053882
C128  C     C_R   0.320045 0.718260 0.229232 -0.057891
C129  C     C_R   0.320572 0.281473 0.228984 -0.048443
C130  C     C_R   0.679206 0.718865 0.771126 -0.042957
C131  C     C_R   0.177477 0.777741 0.772003 -0.044597
C132  C     C_R   0.797963 0.768967 0.324301 0.913037
C133  C     C_R   0.822230 0.221788 0.228124 -0.054793
C134  C     C_R   0.820280 0.782006 0.229134 -0.058708
C135  C     C_R   0.179580 0.218238 0.770898 -0.047031
C136  C     C_R   0.707362 0.259012 0.817409 -0.215620
C137  C     C_R   0.291364 0.738751 0.183584 -0.199443
C138  C     C_R   0.292790 0.260384 0.182364 -0.198917
C139  C     C_R   0.706758 0.740291 0.817976 -0.218551
C140  C     C_R   0.203220 0.752055 0.820306 -0.206915
C141  C     C_R   0.796141 0.246843 0.180086 -0.206243
C142  C     C_R   0.792511 0.760905 0.182482 -0.198929
C143  C     C_R   0.201990 0.231123 0.675711 0.895224
C144  C     C_R   0.207339 0.239386 0.817528 -0.199980
C145  C     C_R   0.690115 0.282621 0.905520 0.076438
C146  C     C_R   0.308831 0.715434 0.095295 0.073702
C147  C     C_R   0.310549 0.283477 0.093826 0.072563
C148  C     C_R   0.689348 0.716678 0.906177 0.075268
C149  C     C_R   0.186440 0.776146 0.908039 0.074328
C150  C     C_R   0.812684 0.222275 0.092618 0.074484
C151  C     C_R   0.810352 0.783901 0.093874 0.073536
C152  C     C_R   0.189579 0.216302 0.906066 0.073014
C153  C     C_R   0.698079 0.127674 0.513504 0.910019
C154  C     C_R   0.023067 0.371111 0.599403 -0.271863
C155  C     C_R   0.301898 0.872321 0.486557 0.909666
C156  C     C_R   0.308947 0.129407 0.463469 0.895790
C157  C     C_R   0.691048 0.870586 0.536552 0.898690
C158  C     C_R   0.191211 0.629729 0.536979 0.910889
C159  C     C_R   0.802620 0.371689 0.486142 0.905857
C160  C     C_R   0.802841 0.628355 0.485509 0.905266
C161  C     C_R   0.191219 0.370184 0.537031 0.909849
C162  C     C_R   0.074122 0.099544 0.933766 0.910522
C163  C     C_R   0.925860 0.900492 0.066236 0.909168
C164  C     C_R   0.925661 0.099363 0.066354 0.912417
H1    H     H_    0.721240 0.000997 0.551432 0.197453
H2    H     H_    0.509988 0.152171 0.365696 0.131603
H3    H     H_    0.415403 0.870756 0.650424 0.145472
H4    H     H_    0.584552 0.129231 0.349657 0.145545
H5    H     H_    0.651522 0.254437 0.084863 0.126509
H6    H     H_    0.347383 0.746078 0.916758 0.126889
H7    H     H_    0.289797 0.372112 0.983622 0.132331
H8    H     H_    0.710401 0.627944 0.015959 0.131416
H9    H     H_    0.147402 0.744114 0.086453 0.131275
H10   H     H_    0.851465 0.251018 0.913508 0.127937
H11   H     H_    0.789666 0.872486 0.983585 0.131300
H12   H     H_    0.278721 0.999005 0.448659 0.197575
H13   H     H_    0.210327 0.127672 0.016262 0.131667
H14   H     H_    0.800236 0.273702 0.835025 0.126053
H15   H     H_    0.198559 0.720291 0.165265 0.132829
H16   H     H_    0.260649 0.155780 0.094892 0.130228
H17   H     H_    0.739316 0.844409 0.905031 0.129711
H18   H     H_    0.296216 0.768947 0.838137 0.133529
H19   H     H_    0.702786 0.231777 0.163325 0.133164
H20   H     H_    0.760665 0.656104 0.094654 0.131042
H21   H     H_    0.239479 0.344001 0.904990 0.130577
H22   H     H_    0.631436 0.349296 0.011740 0.146929
H23   H     H_    0.224807 0.499757 0.539196 0.202289
H24   H     H_    0.368187 0.649950 0.988452 0.147276
H25   H     H_    0.370837 0.346760 0.986066 0.147724
H26   H     H_    0.629426 0.652778 0.013618 0.148114
H27   H     H_    0.129440 0.845053 0.013354 0.148297
H28   H     H_    0.869649 0.153139 0.987551 0.147212
H29   H     H_    0.870804 0.846898 0.985990 0.145950
H30   H     H_    0.129229 0.153141 0.013893 0.147604
H31   H     H_    0.612085 0.338425 0.777236 0.177136
H32   H     H_    0.388192 0.662356 0.222271 0.176373
H33   H     H_    0.387584 0.338454 0.223294 0.174903
H34   H     H_    0.780109 0.500181 0.462097 0.194551
H35   H     H_    0.612514 0.661258 0.776539 0.175397
H36   H     H_    0.112879 0.840623 0.775814 0.178363
H37   H     H_    0.887193 0.159581 0.224010 0.178222
H38   H     H_    0.887141 0.839243 0.223603 0.176402
H39   H     H_    0.112673 0.161082 0.776479 0.176392
H40   H     H_    0.743136 0.225366 0.784375 0.147900
H41   H     H_    0.254895 0.771171 0.217341 0.149220
H42   H     H_    0.255922 0.229359 0.216287 0.151575
H43   H     H_    0.743157 0.772081 0.784601 0.147591
H44   H     H_    0.236890 0.714832 0.789382 0.142632
H45   H     H_    0.999485 0.322213 0.618819 0.129063
H46   H     H_    0.762427 0.283982 0.211018 0.143439
H47   H     H_    0.755649 0.729862 0.216375 0.151814
H48   H     H_    0.244180 0.270466 0.783624 0.151416
H49   H     H_    0.118483 0.369938 0.727307 0.246364
H50   H     H_    0.047495 0.394119 0.785701 0.265543
H51   H     H_    0.069967 0.307175 0.804473 0.249751
H52   H     H_    0.030810 0.285718 0.711034 0.189084
H53   H     H_    0.100017 0.272905 0.642973 0.246910
H54   H     H_    0.893423 0.773850 0.619236 0.199596
H55   H     H_    0.869738 0.774869 0.538362 0.267487
H56   H     H_    0.949831 0.682234 0.557823 0.152879
H57   H     H_    0.825241 0.796098 0.654956 0.238361
H58   H     H_    0.802303 0.669232 0.640369 0.211140
H59   H     H_    0.841306 0.667324 0.694218 0.179552
H60   H     H_    0.871396 0.224995 0.535771 0.270081
H61   H     H_    0.894705 0.224286 0.617109 0.199374
H62   H     H_    0.826669 0.202726 0.651896 0.238765
H63   H     H_    0.841596 0.330540 0.693646 0.168171
H64   H     H_    0.802944 0.329952 0.639334 0.210952
H65   H     H_    0.046568 0.608685 0.783552 0.264402
H66   H     H_    0.117391 0.632513 0.725715 0.245672
H67   H     H_    0.949639 0.317506 0.563285 0.153164
H68   H     H_    0.068230 0.695902 0.801570 0.249905
H69   H     H_    0.098786 0.728763 0.639447 0.245774
H70   H     H_    0.029650 0.716191 0.706865 0.189872
H71   H     H_    0.600718 0.918017 0.735099 0.257549
H72   H     H_    0.527940 0.923291 0.785734 0.268821
H73   H     H_    0.559588 0.849273 0.812957 0.251252
H74   H     H_    0.529074 0.805200 0.711434 0.194384
H75   H     H_    0.599649 0.802944 0.656813 0.235139
H76   H     H_    0.472253 0.076645 0.214233 0.269341
H77   H     H_    0.399472 0.081686 0.264773 0.257397
H78   H     H_    0.999049 0.678599 0.614637 0.130976
H79   H     H_    0.440516 0.150515 0.186952 0.250975
H80   H     H_    0.400311 0.196870 0.343079 0.233848
H81   H     H_    0.470889 0.194773 0.288615 0.194692
H82   H     H_    0.366135 0.747659 0.561534 0.273907
H83   H     H_    0.384241 0.760658 0.647763 0.205068
H84   H     H_    0.319414 0.728077 0.676902 0.234199
H85   H     H_    0.316910 0.860836 0.715503 0.175593
H86   H     H_    0.291454 0.848826 0.641416 0.203917
H87   H     H_    0.615529 0.239514 0.352589 0.204971
H88   H     H_    0.633100 0.252082 0.439515 0.273661
H89   H     H_    0.489998 0.847758 0.634301 0.131609
H90   H     H_    0.680116 0.272417 0.324539 0.234386
H91   H     H_    0.708370 0.151441 0.358830 0.202226
H92   H     H_    0.682905 0.139630 0.284755 0.175725
O1    O     O_R   0.746490 0.236330 0.638080 -0.649201
O2    O     O_R   0.325830 0.813840 0.483730 -0.621703
O3    O     O_R   0.325830 0.186160 0.483730 -0.635460
O4    O     O_R   0.674170 0.813840 0.516270 -0.635690
O5    O     O_R   0.174170 0.686160 0.516270 -0.639249
O6    O     O_R   0.825830 0.313840 0.483730 -0.625130
O7    O     O_R   0.825830 0.686160 0.483730 -0.625687
O8    O     O_R   0.174170 0.313840 0.516270 -0.636788
O9    O     O_R   0.739960 0.127620 0.525000 -0.630680
O10   O     O_R   0.260040 0.872380 0.475000 -0.631803
O11   O     O_R   0.260040 0.127620 0.475000 -0.623983
O12   O     O_R   0.253510 0.763670 0.361920 -0.633114
O13   O     O_R   0.739960 0.872380 0.525000 -0.623263
O14   O     O_R   0.239960 0.627620 0.525000 -0.629740
O15   O     O_R   0.760040 0.372380 0.475000 -0.627664
O16   O     O_R   0.760040 0.627620 0.475000 -0.627693
O17   O     O_R   0.239960 0.372380 0.525000 -0.629685
O18   O     O_R   0.680700 0.294870 0.629350 -0.626242
O19   O     O_R   0.319300 0.705130 0.370650 -0.622780
O20   O     O_R   0.319300 0.294870 0.370650 -0.640821
O21   O     O_R   0.680700 0.705130 0.629350 -0.643688
O22   O     O_R   0.180700 0.794870 0.629350 -0.648914
O23   O     O_R   0.253510 0.236330 0.361920 -0.633940
O24   O     O_R   0.819300 0.205130 0.370650 -0.630279
O25   O     O_R   0.819300 0.794870 0.370650 -0.624440
O26   O     O_R   0.180700 0.205130 0.629350 -0.644601
O27   O     O_R   0.062020 0.072840 0.007170 -0.627916
O28   O     O_R   0.937980 0.927160 0.992830 -0.629919
O29   O     O_R   0.937980 0.072840 0.992830 -0.629939
O30   O     O_R   0.062020 0.927160 0.007170 -0.628008
O31   O     O_R   0.562020 0.572840 0.007170 -0.628280
O32   O     O_R   0.437980 0.427160 0.992830 -0.628005
O33   O     O_R   0.437980 0.572840 0.992830 -0.629840
O34   O     O_R   0.746490 0.763670 0.638080 -0.651200
O35   O     O_R   0.562020 0.427160 0.007170 -0.629974
O36   O     O_R   0.947860 0.073950 0.109290 -0.623772
O37   O     O_R   0.052140 0.926050 0.890710 -0.625682
O38   O     O_R   0.052140 0.073950 0.890710 -0.624955
O39   O     O_R   0.947860 0.926050 0.109290 -0.623454
O40   O     O_R   0.447860 0.573950 0.109290 -0.622083
O41   O     O_R   0.552140 0.426050 0.890710 -0.623198
O42   O     O_R   0.552140 0.573950 0.890710 -0.624977
O43   O     O_R   0.447860 0.426050 0.109290 -0.624036
O44   O     O_R   0.246490 0.736330 0.638080 -0.647405
O45   O     O_R   0.753510 0.263670 0.361920 -0.643506
O46   O     O_R   0.753510 0.736330 0.361920 -0.629649
O47   O     O_R   0.246490 0.263670 0.638080 -0.634313
O48   O     O_R   0.674170 0.186160 0.516270 -0.620652
Zn1   Zn    Zn3+2 0.792340 0.208750 0.507670 0.915203
Zn2   Zn    Zn3+2 0.494040 0.500000 0.919480 0.930606
Zn3   Zn    Zn3+2 0.005960 0.000000 0.080520 0.932753
Zn4   Zn    Zn3+2 0.994040 0.000000 0.919480 0.923484
Zn5   Zn    Zn3+2 0.207660 0.791250 0.492330 0.924690
Zn6   Zn    Zn3+2 0.207660 0.208750 0.492330 0.929217
Zn7   Zn    Zn3+2 0.792340 0.791250 0.507670 0.915308
Zn8   Zn    Zn3+2 0.292340 0.708750 0.507670 0.924246
Zn9   Zn    Zn3+2 0.707660 0.291250 0.492330 0.925559
Zn10  Zn    Zn3+2 0.707660 0.708750 0.492330 0.938349
Zn11  Zn    Zn3+2 0.292340 0.291250 0.507670 0.937484
Zn12  Zn    Zn3+2 0.505960 0.500000 0.080520 0.931327

loop_
_geom_bond_atom_site_label_1
_geom_bond_atom_site_label_2
_ccdc_geom_bond_type
O14   Zn8   S    
C28   C47   A    
C82   C94   A    
C36   C42   A    
C71   H83   S    
C74   C83   A    
C34   C161  S    
C87   H18   S    
C79   C87   A    
C61   H63   S    
C164  O29   A    
C142  H47   S    
O5    Zn5   S    
C16   C35   A    
C64   H65   S    
C81   C95   A    
C157  O4    A    
O38   Zn4   S    
C41   H23   S    
C37   C42   A    
O10   Zn5   S    
C95   H11   S    
C131  C140  A    
C113  C122  A    
C10   C20   A    
C110  O44   A    
C160  O7    A    
C24   H78   S    
C91   C100  A    
C22   C53   A    
C117  C126  A    
C78   C148  S    
C79   C149  S    
C73   H88   S    
C119  C128  A    
C24   C51   A    
C132  O25   A    
O34   Zn7   S    
C8    C16   A    
C2    H56   S    
O15   Zn9   S    
C102  C111  A    
C4    O42   A    
C109  C118  A    
O22   Zn5   S    
C7    O41   A    
C159  O15   A    
C125  H38   S    
C160  O16   A    
C4    C113  S    
C42   H34   S    
C127  C136  A    
C60   H55   S    
C112  C120  A    
C155  O2    A    
C82   C91   A    
C29   C45   A    
C103  C112  A    
C142  C151  A    
C39   H1    S    
O44   Zn8   S    
O18   Zn9   S    
C54   C70   S    
C11   C19   A    
C120  H33   S    
C110  C131  S    
C118  H31   S    
C70   H85   S    
O32   Zn2   S    
C161  O17   A    
C81   C90   A    
C13   C18   A    
C72   H91   S    
O23   Zn6   S    
C40   H12   S    
C14   C57   A    
C83   H14   S    
C2    C19   A    
C25   C55   A    
C72   C73   S    
C67   H80   S    
C76   C100  A    
C62   H61   S    
C106  C115  A    
C124  H37   S    
C5    O32   A    
C9    C15   A    
C153  O48   A    
C159  O6    A    
C46   C53   A    
C93   H9    S    
C84   C93   A    
O6    Zn1   S    
C88   O23   A    
C121  O45   A    
C86   C95   A    
C73   H90   S    
C7    C109  S    
C132  C134  S    
C66   H72   S    
C76   C85   A    
C52   C65   S    
O29   Zn4   S    
C3    O30   A    
O30   Zn3   S    
C11   C18   A    
C106  C150  A    
C6    C111  S    
C105  H27   S    
C74   C145  S    
O7    Zn7   S    
C60   H57   S    
C25   C43   A    
C31   C156  S    
C103  C147  A    
C162  O27   A    
C12   C68   A    
C101  C145  A    
C89   H19   S    
C33   C153  S    
C75   C84   A    
C63   H69   S    
C111  C119  A    
C26   C45   A    
C29   C38   A    
C86   H17   S    
C62   H60   S    
C98   H8    S    
C135  C143  S    
C88   C129  S    
C141  C150  A    
C75   C146  S    
C139  C148  A    
C4    O31   A    
C120  C129  A    
C38   C41   A    
O8    Zn6   S    
C164  O36   A    
C92   H10   S    
C81   C151  S    
C59   H58   S    
C60   H54   S    
C8    C12   A    
C157  O13   A    
C10   C45   A    
O20   Zn11  S    
O11   Zn6   S    
C1    O18   A    
O36   Zn3   S    
C139  H43   S    
O43   Zn12  S    
O17   Zn11  S    
C114  C123  A    
C68   H4    S    
C99   O21   A    
C116  C125  A    
C65   H74   S    
C118  C127  A    
C108  H30   S    
C29   C51   A    
C27   C47   A    
O24   Zn1   S    
C48   C154  A    
C108  C117  A    
C3    C114  S    
C163  O39   A    
C5    C112  S    
C126  H39   S    
C49   C59   S    
C77   O12   A    
C66   H71   S    
C37   C159  S    
C144  C152  A    
C63   H70   S    
C64   H66   S    
O28   Zn4   S    
C69   H77   S    
C28   C37   A    
C85   H16   S    
C56   C58   S    
C30   C39   A    
C61   C62   S    
C53   C67   S    
C107  C116  A    
C56   H52   S    
O47   Zn11  S    
C13   C50   A    
C59   C60   S    
C163  O28   A    
O4    Zn10  S    
C35   H89   S    
C50   C61   S    
C15   C46   A    
O1    Zn1   S    
C140  C149  A    
C27   C49   A    
C25   C33   A    
C73   H87   S    
C54   C57   A    
O3    Zn11  S    
C125  C134  A    
C30   C157  S    
O39   Zn3   S    
O40   Zn12  S    
C104  C148  A    
C116  C163  S    
C11   C47   A    
C8    C43   A    
C107  H29   S    
C55   C68   A    
C138  H42   S    
O48   Zn9   S    
O45   Zn9   S    
C124  C133  A    
C101  C109  A    
C31   C40   A    
C80   C89   A    
C77   O19   A    
C108  C152  A    
C7    O35   A    
C143  O26   A    
C70   C71   S    
C103  H25   S    
C106  H28   S    
C99   O34   A    
C70   H86   S    
O12   Zn5   S    
C26   C48   A    
C156  O3    A    
C58   H51   S    
C91   H21   S    
C132  O46   A    
O46   Zn10  S    
C34   C41   A    
C71   H84   S    
C72   H92   S    
C130  C139  A    
C140  H44   S    
C56   H53   S    
C75   C96   A    
C1    O1    A    
C61   H64   S    
C51   C63   S    
C3    O37   A    
C64   H68   S    
O37   Zn4   S    
C69   H79   S    
O33   Zn2   S    
C62   H62   S    
C23   C44   A    
O35   Zn12  S    
C94   H13   S    
C84   H15   S    
C153  O9    A    
C9    C14   A    
C105  C114  A    
C134  C142  A    
C137  C146  A    
C55   C72   S    
C12   C15   A    
O16   Zn10  S    
C38   C158  S    
C59   H59   S    
C90   H20   S    
C126  C135  A    
C117  C162  S    
C144  H48   S    
C115  C124  A    
C46   H2    S    
C99   C130  S    
C123  C131  A    
O25   Zn7   S    
C57   H3    S    
C27   C36   A    
C21   C30   A    
C133  C141  A    
C158  O14   A    
C23   C32   A    
C5    O43   A    
O21   Zn10  S    
C104  C113  A    
C69   H76   S    
C155  O10   A    
C58   H49   S    
C35   C52   A    
C71   H82   S    
C141  H46   S    
C82   C152  S    
C110  O22   A    
O19   Zn8   S    
C80   C92   A    
C67   H81   S    
C121  O24   A    
C137  H41   S    
C80   C150  S    
C83   C92   A    
C33   C39   A    
C20   C154  A    
C79   C93   A    
C154  H45   S    
C6    O40   A    
C10   C17   A    
C97   H5    S    
C119  H32   S    
C115  C164  S    
C21   C43   A    
C28   C50   A    
C26   C34   A    
C22   C44   A    
C129  C138  A    
C76   C147  S    
C78   C98   A    
C122  H35   S    
C136  C145  A    
C6    O33   A    
C143  O47   A    
C78   C86   A    
C96   H6    S    
C100  H7    S    
O26   Zn6   S    
O27   Zn3   S    
C74   C97   A    
C17   C24   A    
C22   C31   A    
C123  H36   S    
O9    Zn1   S    
C102  H24   S    
C63   C64   S    
C89   C97   A    
C67   C69   S    
O31   Zn12  S    
C128  C137  A    
C2    C49   A    
C13   H67   S    
C32   C155  S    
C85   C94   A    
C138  C147  A    
C158  O5    A    
C104  H26   S    
C87   C96   A    
C77   C128  S    
O42   Zn2   S    
C135  C144  A    
C66   H73   S    
C14   C16   A    
C101  H22   S    
C58   H50   S    
O41   Zn2   S    
C136  H40   S    
C23   C54   A    
C48   C56   S    
C9    C44   A    
C1    C127  S    
C105  C149  A    
C88   O20   A    
C107  C151  A    
O2    Zn8   S    
C102  C146  A    
C161  O8    A    
C156  O11   A    
C17   C19   A    
C90   C98   A    
C18   C20   A    
C32   C40   A    
C36   C160  S    
C65   C66   S    
C65   H75   S    
C121  C133  S    
C162  O38   A    
C122  C130  A    
C21   C52   A    
O13   Zn7   S    
