data_mof_unit_48660.cif
_audit_creation_date              2012-12-10T18:05:51-0500
_audit_creation_method            fapswitch 2.2
_symmetry_space_group_name_H-M    P1
_symmetry_Int_Tables_number       1
_space_group_crystal_system       triclinic
_cell_length_a                    12.59385
_cell_length_b                    13.136289
_cell_length_c                    14.99116
_cell_angle_alpha                 90.590559
_cell_angle_beta                  102.634351
_cell_angle_gamma                 82.294777
_cell_volume                      2397.71664986

loop_
_atom_site_label
_atom_site_type_symbol
_atom_type_description
_atom_site_fract_x
_atom_site_fract_y
_atom_site_fract_z
_atom_type_partial_charge
C1    C     C_R   0.438756 0.691170 0.485761 0.853519
C2    C     C_R   0.399682 0.502061 0.074314 0.118661
C3    C     C_R   0.700321 0.485405 0.083496 -0.204549
C4    C     C_R   0.700562 0.487072 0.990841 -0.217282
C5    C     C_R   0.601225 0.493890 0.925892 0.118148
C6    C     C_R   0.500603 0.498641 0.953726 0.061844
C7    C     C_R   0.400189 0.505225 0.888787 0.118225
C8    C     C_R   0.300635 0.510019 0.916778 -0.217725
C9    C     C_R   0.300390 0.508402 0.009400 -0.215332
C10   C     C_R   0.600631 0.495633 0.833396 -0.258348
C11   C     C_R   0.500956 0.501481 0.769241 -0.075062
C12   C     C_R   0.500463 0.500653 0.673090 0.893583
C13   C     C_R   0.401120 0.506701 0.796751 -0.256064
C14   C     C_R   0.703048 0.063786 0.437360 -0.185209
C15   C     C_R   0.596747 0.200039 0.501991 -0.056915
C16   C     C_R   0.299310 0.838345 0.497416 -0.191269
C17   C     C_R   0.270472 0.943204 0.505220 -0.143359
C18   C     C_R   0.344265 0.010431 0.496683 -0.189313
C19   C     C_R   0.446861 0.973494 0.475537 0.085785
C20   C     C_R   0.467646 0.869416 0.453409 0.082976
C21   C     C_R   0.529627 0.036259 0.475679 0.078424
C22   C     C_R   0.622798 0.999884 0.439723 0.166316
C23   C     C_R   0.561113 0.308743 0.509464 0.868750
C24   C     C_R   0.633406 0.901058 0.405412 -0.246399
C25   C     C_R   0.556794 0.836427 0.412095 -0.195814
C26   C     C_R   0.523100 0.133859 0.512415 -0.254637
C27   C     C_R   0.689059 0.164582 0.467087 -0.191538
C28   C     C_R   0.399394 0.800743 0.474609 -0.112282
C29   C     C_R   0.088181 0.347817 0.370965 -0.299433
C30   C     C_R   0.800177 0.629872 0.608329 0.023702
C31   C     C_R   0.904972 0.658086 0.630217 -0.254369
C32   C     C_R   0.986029 0.608818 0.588842 -0.196149
C33   C     C_R   0.962433 0.530325 0.525041 0.018290
C34   C     C_R   0.499677 0.498990 0.326953 0.876652
C35   C     C_R   0.854389 0.504379 0.505474 0.220283
C36   C     C_R   0.041173 0.477046 0.480097 -0.030624
C37   C     C_R   0.010167 0.399864 0.415564 0.134175
C38   C     C_R   0.902268 0.376065 0.397442 -0.063210
C39   C     C_R   0.826976 0.427194 0.443088 -0.280665
C40   C     C_R   0.150463 0.497230 0.496709 -0.040941
C41   C     C_R   0.194359 0.371707 0.390647 0.002637
C42   C     C_R   0.400103 0.501536 0.166751 -0.257339
C43   C     C_R   0.499625 0.496663 0.230931 -0.071901
C44   C     C_R   0.599600 0.490526 0.203518 -0.248500
C45   C     C_R   0.600716 0.490702 0.111481 0.117346
C46   C     C_R   0.500348 0.496992 0.046510 0.059703
H1    H     H_    0.322970 0.506475 0.188580 0.162553
H2    H     H_    0.701985 0.873016 0.374901 0.152748
H3    H     H_    0.774005 0.037136 0.409358 0.145616
H4    H     H_    0.458390 0.162177 0.546690 0.151046
H5    H     H_    0.244948 0.786532 0.512055 0.151907
H6    H     H_    0.317776 0.090914 0.504676 0.135842
H7    H     H_    0.192661 0.972187 0.521849 0.144147
H8    H     H_    0.567435 0.760730 0.383550 0.174371
H9    H     H_    0.255283 0.332035 0.357036 0.139423
H10   H     H_    0.068165 0.288832 0.321534 0.159672
H11   H     H_    0.676646 0.485750 0.253655 0.166920
H12   H     H_    0.181624 0.553562 0.544426 0.119307
H13   H     H_    0.736639 0.668051 0.639952 0.140733
H14   H     H_    0.065644 0.634127 0.608058 0.131333
H15   H     H_    0.923319 0.718140 0.678918 0.150568
H16   H     H_    0.746762 0.404976 0.428448 0.217018
H17   H     H_    0.777706 0.480320 0.133184 0.152739
H18   H     H_    0.778128 0.483158 0.969975 0.147269
H19   H     H_    0.677677 0.491153 0.811482 0.162251
H20   H     H_    0.323954 0.512132 0.746633 0.158056
H21   H     H_    0.223238 0.515050 0.867123 0.147511
H22   H     H_    0.222820 0.512349 0.030269 0.146798
H23   H     H_    0.746910 0.215683 0.458728 0.158460
N1    N     N_R   0.222190 0.444670 0.452360 -0.102701
N2    N     N_R   0.776970 0.554790 0.547140 -0.126951
O1    O     O_R   0.366740 0.627160 0.477250 -0.616515
O2    O     O_R   0.544830 0.662520 0.507680 -0.617839
O3    O     O_R   0.410940 0.482340 0.616930 -0.624957
O4    O     O_R   0.589030 0.517700 0.647360 -0.623451
O5    O     O_R   0.455170 0.337480 0.492320 -0.614153
O6    O     O_R   0.633260 0.372840 0.522750 -0.636299
O7    O     O_R   0.410970 0.482300 0.352640 -0.620526
O8    O     O_R   0.589060 0.517660 0.383070 -0.648796
Zn1   Zn    Zn3+2 0.381090 0.476390 0.479680 0.939012
Zn2   Zn    Zn3+2 0.618910 0.523610 0.520320 0.927536
C47   C     C_1   0.865594 0.299344 0.332051 0.114973
N3    N     N_1   0.835998 0.238131 0.279770 -0.210411

loop_
_geom_bond_atom_site_label_1
_geom_bond_atom_site_label_2
_ccdc_geom_bond_type
C16   C28   A    
C21   C26   A    
C12   O3    A    
C31   H15   S    
C19   C20   A    
C16   H5    S    
C23   O5    A    
C30   N2    A    
C18   H6    S    
C7    C8    A    
C45   C46   A    
C2    C46   A    
C40   N1    A    
C36   C37   A    
C19   C21   A    
C26   H4    S    
C38   C39   A    
O7    Zn1   S    
C14   H3    S    
C16   C17   A    
C20   C25   A    
C33   C36   A    
C18   C19   A    
C41   H9    S    
C8    C9    A    
C1    C28   S    
C24   C25   A    
C14   C27   A    
C27   H23   S    
C15   C23   S    
C35   N2    A    
O3    Zn1   S    
C21   C22   A    
C38   C47   S    
O2    Zn2   S    
C13   H20   S    
C1    O1    A    
C40   H12   S    
N1    Zn1   S    
C24   H2    S    
C36   C40   A    
C25   H8    S    
O8    Zn2   S    
O4    Zn2   S    
C15   C26   A    
C20   C28   A    
C3    C45   A    
C35   C39   A    
C43   C44   A    
C37   C38   A    
C34   O8    A    
C15   C27   A    
C31   C32   A    
O6    Zn2   S    
C44   H11   S    
C30   H13   S    
C17   C18   A    
C23   O6    A    
C22   C24   A    
C42   C43   A    
C32   H14   S    
C3    C4    A    
C17   H7    S    
C44   C45   A    
C10   H19   S    
C39   H16   S    
C6    C46   A    
C29   C41   A    
C34   C43   S    
O5    Zn1   S    
C4    C5    A    
C11   C12   S    
C6    C7    A    
C29   H10   S    
C3    H17   S    
C4    H18   S    
C1    O2    A    
C32   C33   A    
C14   C22   A    
C9    H22   S    
C5    C10   A    
O1    Zn1   S    
C34   O7    A    
C11   C13   A    
C30   C31   A    
C5    C6    A    
C2    C42   A    
C33   C35   A    
C42   H1    S    
C10   C11   A    
C7    C13   A    
C8    H21   S    
C47   N3    T    
C12   O4    A    
C29   C37   A    
C2    C9    A    
C41   N1    A    
N2    Zn2   S    
