data_mof_unit_18478.cif
_audit_creation_date              2013-03-05T16:13:33-0500
_audit_creation_method            fapswitch 2.2
_symmetry_space_group_name_H-M    P1
_symmetry_Int_Tables_number       1
_space_group_crystal_system       triclinic
_cell_length_a                    10.827731
_cell_length_b                    10.015516
_cell_length_c                    10.821001
_cell_angle_alpha                 85.21189
_cell_angle_beta                  96.764617
_cell_angle_gamma                 84.885964
_cell_volume                      1155.42842853

loop_
_atom_site_label
_atom_site_type_symbol
_atom_site_description
_atom_site_fract_x
_atom_site_fract_y
_atom_site_fract_z
_atom_type_partial_charge
O1    O     O_R   0.316770 0.614620 0.499990 -0.561645
O2    O     O_R   0.683230 0.614620 0.500010 -0.587181
O3    O     O_R   0.316800 0.385290 0.500000 -0.582142
O4    O     O_R   0.683200 0.385290 0.500000 -0.549072
C1    C     C_R   0.260327 0.503796 0.504939 0.970524
C2    C     C_R   0.739506 0.494826 0.496418 0.990179
O5    O     O_R   0.500000 0.614690 0.316780 -0.545428
O6    O     O_R   0.500000 0.614690 0.683220 -0.618352
O7    O     O_R   0.500020 0.385360 0.316780 -0.628225
O8    O     O_R   0.499980 0.385360 0.683220 -0.567431
C3    C     C_R   0.500897 0.504857 0.260708 0.985856
C4    C     C_R   0.500254 0.495814 0.739928 0.952005
Zn1   Zn    Zn3+2 0.500000 0.653120 0.500000 1.142661
Zn2   Zn    Zn3+2 0.500000 0.346880 0.500000 1.111004
C5    C     C_R   0.450497 0.612969 0.045509 0.033369
C6    C     C_R   0.447540 0.604191 0.921049 -0.036490
C7    C     C_R   0.515306 0.512056 0.131055 -0.179451
C8    C     C_R   0.503080 0.492271 0.873164 -0.167455
C9    C     C_R   0.589137 0.407513 0.086277 0.218312
C10   C     C_R   0.578939 0.394996 0.957413 0.232469
C11   C     C_3   0.333056 0.702449 0.885102 -0.024098
C12   C     C_3   0.334616 0.712406 0.028667 -0.010194
C13   C     C_R   0.080765 0.387480 0.561139 0.257589
C14   C     C_R   0.953138 0.377146 0.545358 0.218365
C15   C     C_R   0.871529 0.486412 0.485423 -0.297237
C16   C     C_R   0.127187 0.506684 0.513103 -0.315275
C17   C     C_R   0.917650 0.600108 0.429450 0.229272
C18   C     C_R   0.044443 0.614243 0.451408 0.171193
C19   C     C_R   0.583989 0.053650 0.582203 -0.170733
C20   C     C_R   0.421055 0.088387 0.415022 -0.062126
C21   C     C_R   0.588235 0.910625 0.575716 0.277582
C22   C     C_R   0.413370 0.946139 0.421385 0.309623
N1    N     N_R   0.500000 0.857200 0.500000 -0.179343
N2    N     N_R   0.500000 0.142810 0.500000 -0.170545
N3    N     N_R   0.674654 0.314440 0.170883 0.258357
O9    O     O_R   0.666253 0.185461 0.174140 -0.199953
O10   O     O_R   0.763395 0.358905 0.243087 -0.328577
N4    N     N_R   0.645897 0.283155 0.915137 0.227848
O11   O     O_R   0.766622 0.281681 0.919386 -0.284975
O12   O     O_R   0.595678 0.169890 0.917714 -0.294899
C23   C     C_2   0.361642 0.827312 0.807469 1.033192
O13   O     O_2   0.297465 0.866679 0.708287 -0.515066
O14   O     O_R   0.462552 0.897031 0.848804 -0.680293
H1    H     H_    0.466828 0.982576 0.793252 0.356425
C24   C     C_2   0.222516 0.661124 0.082545 1.062824
O15   O     O_2   0.119984 0.725216 0.055583 -0.436654
O16   O     O_R   0.234644 0.540794 0.160340 -0.818023
H2    H     H_    0.152650 0.518758 0.189765 0.375651
N5    N     N_R   0.224566 0.639862 0.828000 0.186040
O17   O     O_R   0.220753 0.510107 0.844141 -0.347721
O18   O     O_R   0.121630 0.714859 0.784483 -0.225983
N6    N     N_R   0.359975 0.845793 0.066907 0.245706
O19   O     O_R   0.469040 0.865873 0.123072 -0.231165
O20   O     O_R   0.274614 0.947365 0.039235 -0.249029
N7    N     N_R   0.162576 0.273494 0.622182 0.266524
O21   O     O_R   0.239952 0.286158 0.720925 -0.291655
O22   O     O_R   0.161642 0.157052 0.577085 -0.240127
N8    N     N_R   0.908616 0.253794 0.589015 0.254397
O23   O     O_R   0.867919 0.174251 0.507572 -0.246982
O24   O     O_R   0.940985 0.205193 0.704809 -0.269538
N9    N     N_R   0.835641 0.699079 0.346628 0.266090
O25   O     O_R   0.764313 0.661303 0.253267 -0.310462
O26   O     O_R   0.830746 0.826245 0.364421 -0.205201
N10   N     N_R   0.087747 0.737645 0.408596 0.263403
O27   O     O_R   0.114400 0.822611 0.489973 -0.192497
O28   O     O_R   0.062534 0.780800 0.290805 -0.226626
C25   C     C_2   0.671915 0.102698 0.680134 1.097672
O29   O     O_2   0.684541 0.221278 0.679213 -0.534036
O30   O     O_R   0.740239 0.014374 0.776272 -0.651134
H3    H     H_    0.802351 0.058567 0.832790 0.431893
C26   C     C_2   0.352793 0.175780 0.307365 1.093034
O31   O     O_2   0.256379 0.244392 0.318319 -0.545026
O32   O     O_R   0.394837 0.171857 0.190373 -0.699925
H4    H     H_    0.340256 0.234276 0.122995 0.380582
N11   N     N_R   0.688665 0.821759 0.644573 0.255188
O33   O     O_R   0.801189 0.826244 0.614610 -0.257694
O34   O     O_R   0.674468 0.761542 0.752383 -0.282656
N12   N     N_R   0.311329 0.898639 0.345713 0.242931
O35   O     O_R   0.208386 0.976299 0.309196 -0.235682
O36   O     O_R   0.319270 0.778533 0.311013 -0.343761

loop_
_geom_bond_atom_site_label_1
_geom_bond_atom_site_label_2
_geom_bond_distance
_ccdc_geom_bond_type
C20   C22   1.430901 A    
N7    O21   1.300145 A    
C6    C11   1.503801 S    
C23   O13   1.222708 D    
N3    O9    1.300899 A    
O7    Zn2   1.987935 S    
C11   N5    1.476347 S    
C20   C26   1.476875 S    
C24   O15   1.222728 D    
O5    C3    1.299704 A    
O6    Zn1   1.987850 S    
O1    C1    1.314187 A    
N3    O10   1.299827 A    
O30   H3    1.011733 S    
N4    O11   1.301279 A    
N12   O36   1.288410 A    
C2    C15   1.443958 S    
N8    O24   1.301585 A    
C5    C6    1.353766 A    
N9    O26   1.301276 A    
O32   H4    1.014008 S    
C13   C16   1.418852 A    
N11   O34   1.299869 A    
O2    Zn1   1.987049 S    
C17   N9    1.442762 S    
C19   C25   1.484351 S    
C5    C12   1.514087 S    
C9    C10   1.402759 A    
N5    O18   1.302393 A    
C13   C14   1.386503 A    
C21   N1    1.360250 A    
C11   C12   1.563216 S    
C23   O14   1.398032 S    
O2    C2    1.302061 A    
N6    O20   1.301982 A    
C24   O16   1.398108 S    
C20   N2    1.361955 A    
C25   O29   1.206888 D    
C14   C15   1.404698 A    
O4    C2    1.301706 A    
O8    Zn2   2.051091 S    
C26   O32   1.397276 S    
N12   O35   1.301504 A    
N8    O23   1.301472 A    
C19   N2    1.395614 A    
C25   O30   1.400160 S    
N10   O28   1.300386 A    
N11   O33   1.300766 A    
Zn1   N1    2.043967 S    
C10   N4    1.417228 S    
C21   N11   1.433772 S    
O16   H2    1.013948 S    
O6    C4    1.292729 A    
O7    C3    1.297217 A    
O3    Zn2   1.986650 S    
O8    C4    1.309140 A    
C11   C23   1.523255 S    
C18   N10   1.421587 S    
C6    C8    1.391712 A    
N7    O22   1.301653 A    
O14   H1    1.012535 S    
O1    Zn1   2.054543 S    
N6    O19   1.303101 A    
C12   N6    1.470465 S    
C5    C7    1.391106 A    
C3    C7    1.426381 S    
O3    C1    1.293984 A    
Zn2   N2    2.043867 S    
C13   N7    1.442330 S    
C15   C17   1.403714 A    
C16   C18   1.405636 A    
N10   O27   1.300726 A    
C26   O31   1.221034 D    
C19   C21   1.436941 A    
C9    N3    1.438223 S    
C22   N1    1.390522 A    
N4    O12   1.300616 A    
C7    C9    1.413117 A    
C8    C10   1.409826 A    
O4    Zn2   2.053987 S    
N9    O25   1.300900 A    
C22   N12   1.436385 S    
C1    C16   1.452540 S    
O5    Zn1   2.050936 S    
C12   C24   1.518166 S    
C14   N8    1.429776 S    
N5    O17   1.301712 A    
C4    C8    1.435859 S    
C17   C18   1.387349 A    
