data_mof_unit_26569.cif
_audit_creation_date              2013-03-05T16:06:17-0500
_audit_creation_method            fapswitch 2.2
_symmetry_space_group_name_H-M    P1
_symmetry_Int_Tables_number       1
_space_group_crystal_system       triclinic
_cell_length_a                    10.83361
_cell_length_b                    9.631959
_cell_length_c                    27.78609
_cell_angle_alpha                 90.003049
_cell_angle_beta                  89.94231
_cell_angle_gamma                 90.000623
_cell_volume                      2899.44610107

loop_
_atom_site_label
_atom_site_type_symbol
_atom_site_description
_atom_site_fract_x
_atom_site_fract_y
_atom_site_fract_z
_atom_type_partial_charge
O1    O     O_R   0.319640 0.618740 0.500000 -0.576255
O2    O     O_R   0.680360 0.381260 0.500000 -0.573409
O3    O     O_R   0.680360 0.618740 0.500000 -0.576175
O4    O     O_R   0.319640 0.381260 0.500000 -0.573327
C1    C     C_R   0.262401 0.500065 0.500016 0.770083
C2    C     C_R   0.737599 0.500066 0.499983 0.770100
O5    O     O_R   0.500020 0.618770 0.430260 -0.526868
O6    O     O_R   0.499980 0.381230 0.569740 -0.529702
O7    O     O_R   0.499980 0.618770 0.569740 -0.527070
O8    O     O_R   0.500020 0.381230 0.430260 -0.529723
C3    C     C_R   0.494181 0.499494 0.407791 0.818479
C4    C     C_R   0.505814 0.499502 0.592210 0.818407
Cu1   Cu    Cu3+1 0.500000 0.640660 0.500000 1.011169
Cu2   Cu    Cu3+1 0.500000 0.359340 0.500000 1.006675
C5    C     C_R   0.370835 0.480449 0.175578 0.656134
C6    C     C_R   0.629070 0.480578 0.824423 0.655994
O9    O     O_2   0.265013 0.443951 0.197724 -0.524890
O10   O     O_2   0.734917 0.444230 0.802267 -0.524989
N1    N     N_R   0.476898 0.493566 0.201998 -0.445646
N2    N     N_R   0.522995 0.493611 0.798006 -0.445603
C7    C     C_R   0.588898 0.507305 0.179552 0.542622
C8    C     C_R   0.410989 0.507248 0.820454 0.542671
C9    C     C_R   0.543591 0.394749 0.279219 -0.177964
C10   C     C_R   0.456400 0.394732 0.720777 -0.177980
C11   C     C_R   0.550427 0.399348 0.329081 -0.213602
C12   C     C_R   0.449593 0.399313 0.670915 -0.213457
C13   C     C_R   0.396994 0.583443 0.330573 -0.186076
C14   C     C_R   0.602874 0.583575 0.669441 -0.185974
C15   C     C_R   0.395418 0.585069 0.279538 0.467119
C16   C     C_R   0.604398 0.585227 0.720476 0.467140
C17   C     C_R   0.471244 0.490819 0.253945 0.252607
C18   C     C_R   0.528648 0.490887 0.746059 0.252659
C19   C     C_R   0.487408 0.509631 0.101721 -0.128327
C20   C     C_R   0.512485 0.509635 0.898285 -0.128259
C21   C     C_R   0.372528 0.501450 0.125338 -0.203850
C22   C     C_R   0.627368 0.501527 0.874666 -0.203937
C23   C     C_R   0.263331 0.518768 0.098577 0.430781
C24   C     C_R   0.736557 0.518876 0.901432 0.430631
C25   C     C_R   0.596432 0.507065 0.129178 0.027297
C26   C     C_R   0.403462 0.507007 0.870828 0.027256
C27   C     C_R   0.481006 0.496250 0.355070 -0.128136
C28   C     C_R   0.518957 0.496281 0.644933 -0.128154
C29   C     C_R   0.389417 0.517534 0.972591 0.115724
C30   C     C_R   0.610475 0.517593 0.027417 0.115786
C31   C     C_R   0.616698 0.527160 0.976349 -0.149521
C32   C     C_R   0.383189 0.527104 0.023658 -0.149456
C33   C     C_R   0.506259 0.517869 0.949272 0.011904
C34   C     C_R   0.493632 0.517871 0.050735 0.011915
C35   C     C_R   0.282701 0.500965 0.943912 -0.175534
C36   C     C_R   0.717197 0.501079 0.056094 -0.175548
C37   C     C_R   0.289363 0.501950 0.894058 -0.182470
C38   C     C_R   0.710536 0.502066 0.105949 -0.182515
O11   O     O_2   0.306993 0.521253 0.794181 -0.549891
O12   O     O_2   0.692885 0.521407 0.205826 -0.549898
C39   C     C_R   0.270519 0.547598 0.049133 0.346776
C40   C     C_R   0.729359 0.547703 0.950876 0.346888
H1    H     H_    0.388524 0.327741 0.652533 0.164495
H2    H     H_    0.611570 0.327848 0.347456 0.164431
H3    H     H_    0.401461 0.318999 0.740059 0.173778
H4    H     H_    0.598588 0.319077 0.259932 0.173770
H5    H     H_    0.204587 0.493758 0.873714 0.181291
H6    H     H_    0.795319 0.493909 0.126293 0.181303
H7    H     H_    0.192569 0.482401 0.958956 0.200525
H8    H     H_    0.807333 0.482551 0.041051 0.200452
C41   C     C_R   0.063823 0.374379 0.500141 -0.195104
C42   C     C_R   0.936096 0.626536 0.500075 -0.167747
C43   C     C_R   0.936175 0.374380 0.499806 -0.195136
C44   C     C_R   0.063907 0.626536 0.499972 -0.167773
H9    H     H_    0.111585 0.275791 0.500529 0.143622
H10   H     H_    0.888108 0.725203 0.500185 0.152150
H11   H     H_    0.888412 0.275793 0.499376 0.143595
H12   H     H_    0.111896 0.725203 0.499903 0.152108
C45   C     C_R   0.871634 0.500351 0.499957 -0.009372
C46   C     C_R   0.128367 0.500350 0.500042 -0.009341
C47   C     C_R   0.447517 0.075142 0.463232 0.387528
C48   C     C_R   0.536775 0.928015 0.539601 0.381022
C49   C     C_R   0.552473 0.075149 0.536768 0.387542
C50   C     C_R   0.463202 0.927994 0.460400 0.381163
N3    N     N_R   0.500000 0.852070 0.500000 -0.278298
N4    N     N_R   0.500000 0.147930 0.500000 -0.278882
C51   C     C_1   0.306816 0.662355 0.357564 0.331076
N5    N     N_1   0.233257 0.723592 0.379106 -0.287353
C52   C     C_1   0.693048 0.662531 0.642463 0.331141
N6    N     N_1   0.766608 0.723805 0.620934 -0.287379
O13   O     O_3   0.388816 0.146912 0.426750 -0.532754
C53   C     C_3   0.263276 0.107980 0.424811 -0.233441
H13   H     H_    0.210693 0.193062 0.407385 0.171183
H14   H     H_    0.221882 0.091007 0.461095 0.108735
H15   H     H_    0.251511 0.013697 0.402334 0.206414
O14   O     O_3   0.558791 0.863484 0.582841 -0.532020
C54   C     C_3   0.459916 0.893964 0.614429 -0.239976
H16   H     H_    0.471780 0.833139 0.647953 0.187523
H17   H     H_    0.369317 0.863834 0.598591 0.137035
H18   H     H_    0.458928 0.005333 0.624922 0.172521
O15   O     O_3   0.611100 0.146911 0.573272 -0.532566
C55   C     C_3   0.736673 0.108111 0.575198 -0.232964
H19   H     H_    0.789182 0.193202 0.592659 0.171133
H20   H     H_    0.778088 0.091290 0.538909 0.108614
H21   H     H_    0.748514 0.013768 0.597637 0.206356
O16   O     O_3   0.441141 0.863397 0.417171 -0.532099
C56   C     C_3   0.539766 0.894214 0.385496 -0.239738
H22   H     H_    0.528414 0.832399 0.352150 0.187454
H23   H     H_    0.630723 0.865520 0.401406 0.136195
H24   H     H_    0.539675 0.005389 0.374675 0.173334
O17   O     O_3   0.335391 0.689281 0.254028 -0.586389
C57   C     C_3   0.205633 0.680052 0.258956 -0.190440
H25   H     H_    0.172113 0.765695 0.282248 0.159475
H26   H     H_    0.171934 0.578686 0.273301 0.161808
H27   H     H_    0.163201 0.695072 0.223003 0.220985
O18   O     O_3   0.664262 0.689542 0.745995 -0.586425
C58   C     C_3   0.794031 0.680540 0.741087 -0.190558
H28   H     H_    0.827456 0.766242 0.717805 0.159509
H29   H     H_    0.827882 0.579240 0.726743 0.161872
H30   H     H_    0.836400 0.695624 0.777048 0.220913
O19   O     O_3   0.150546 0.528828 0.121750 -0.526221
C59   C     C_3   0.080930 0.408701 0.111348 -0.205170
H31   H     H_    0.134587 0.311702 0.117754 0.142272
H32   H     H_    0.045713 0.411114 0.073798 0.165338
H33   H     H_    0.000239 0.405760 0.135856 0.181159
O20   O     O_3   0.849355 0.528948 0.878273 -0.526149
C60   C     C_3   0.918819 0.408651 0.888585 -0.205170
H34   H     H_    0.865173 0.311791 0.881918 0.142704
H35   H     H_    0.953639 0.410493 0.926196 0.164901
H36   H     H_    0.999762 0.406010 0.864202 0.181128
O21   O     O_3   0.168100 0.606396 0.027584 -0.572436
C61   C     C_3   0.187039 0.751086 0.024632 -0.245561
H37   H     H_    0.269380 0.777023 0.002390 0.152237
H38   H     H_    0.195531 0.798026 0.061096 0.166115
H39   H     H_    0.106156 0.798833 0.006845 0.177795
O22   O     O_3   0.831763 0.606536 0.972427 -0.572320
C62   C     C_3   0.812813 0.751222 0.975359 -0.245609
H40   H     H_    0.730391 0.777189 0.997548 0.152174
H41   H     H_    0.804460 0.798105 0.938886 0.166202
H42   H     H_    0.893623 0.798999 0.993191 0.177701

loop_
_geom_bond_atom_site_label_1
_geom_bond_atom_site_label_2
_geom_bond_distance
_ccdc_geom_bond_type
C42   C44   1.384648 A    
Cu1   N3    2.036292 S    
C61   H37   1.113097 S    
C35   H7    1.076724 S    
C13   C15   1.418270 A    
C36   H8    1.076712 S    
O15   C55   1.411877 S    
C37   H5    1.081819 S    
C48   N3    1.380354 A    
C62   H42   1.106590 S    
N1    C17   1.444885 S    
C51   N5    1.157683 T    
O13   C53   1.411874 S    
O20   C60   1.411203 S    
C5    N1    1.369998 A    
C56   H22   1.108276 S    
C16   O18   1.390604 S    
O1    C1    1.300438 A    
C6    N2    1.369992 A    
C21   C23   1.407833 A    
C10   C12   1.388215 A    
C7    O12   1.349889 S    
C53   H14   1.115058 S    
C57   H25   1.109354 S    
C44   C46   1.401766 A    
O19   C59   1.411214 S    
C55   H21   1.109573 S    
C59   H31   1.114778 S    
C14   C28   1.413639 A    
C1    C46   1.452076 S    
O7    Cu1   1.949250 S    
O18   C58   1.414989 S    
C60   H36   1.107885 S    
C4    C28   1.472360 S    
C47   O13   1.382482 S    
C39   O21   1.382668 S    
C31   C40   1.424109 A    
C41   C43   1.382928 A    
C55   H20   1.115072 S    
C32   C39   1.424131 A    
C36   C38   1.387085 A    
C43   C45   1.400408 A    
Cu2   N4    2.036293 S    
C47   N4    1.363685 A    
C20   C22   1.408603 A    
O3    Cu1   1.965326 S    
O6    C4    1.300600 A    
C24   O20   1.383917 S    
O3    C2    1.300443 A    
C25   C38   1.394793 A    
C56   H23   1.115219 S    
Cu1   Cu2   2.709663 S    
C14   C52   1.446792 S    
C15   O17   1.390647 S    
O2    C2    1.301540 A    
C5    C21   1.410656 A    
C47   C50   1.429628 A    
C8    O11   1.349881 S    
C31   C33   1.416819 A    
C9    H4    1.082956 S    
C32   C34   1.416816 A    
C13   C51   1.446766 S    
C48   C49   1.429517 A    
O8    Cu2   1.949250 S    
C11   C27   1.398971 A    
C54   H16   1.108027 S    
C50   N3    1.380368 A    
C29   C35   1.413823 A    
O6    Cu2   1.949227 S    
C61   H39   1.106558 S    
C35   C37   1.387087 A    
C42   C45   1.401762 A    
C49   O15   1.382463 S    
C41   C46   1.400403 A    
C9    C17   1.401755 A    
C12   H1    1.083728 S    
O5    C3    1.309065 A    
C10   C18   1.401743 A    
O7    C4    1.309066 A    
C54   H17   1.114501 S    
C13   C27   1.413629 A    
C52   N6    1.157719 T    
C7    C25   1.401971 A    
C44   H12   1.083264 S    
C8    C26   1.401979 A    
C55   H19   1.109607 S    
C58   H29   1.115814 S    
C19   C25   1.406964 A    
C60   H34   1.114756 S    
N2    C8    1.370106 A    
C56   H24   1.112260 S    
C50   O16   1.373871 S    
O21   C61   1.411040 S    
C20   C26   1.406963 A    
O1    Cu1   1.965321 S    
C11   H2    1.083730 S    
C62   H40   1.113061 S    
C30   C31   1.423492 A    
C12   C28   1.398992 A    
C2    C45   1.452080 S    
N2    C18   1.444872 S    
C49   N4    1.363672 A    
C30   C36   1.413827 A    
C5    O9    1.347273 S    
C61   H38   1.113371 S    
C58   H28   1.109338 S    
N1    C7    1.370139 A    
C53   H13   1.109593 S    
O4    C1    1.301545 A    
C62   H41   1.113285 S    
C53   H15   1.109546 S    
C23   O19   1.383959 S    
C26   C37   1.394775 A    
O17   C57   1.415065 S    
C59   H33   1.107932 S    
C22   C24   1.407848 A    
O22   C62   1.410996 S    
C15   C17   1.415416 A    
C38   H6    1.081852 S    
C6    C22   1.410668 A    
C54   H18   1.111651 S    
C16   C18   1.415389 A    
O14   C54   1.414951 S    
C42   H10   1.083264 S    
C57   H26   1.115865 S    
C10   H3    1.082952 S    
C41   H9    1.081487 S    
C14   C16   1.418267 A    
O16   C56   1.415102 S    
C19   C21   1.408604 A    
C59   H32   1.111525 S    
C3    C27   1.472335 S    
C58   H30   1.109571 S    
C43   H11   1.081486 S    
C9    C11   1.388208 A    
O4    Cu2   1.965326 S    
O2    Cu2   1.965321 S    
C29   C32   1.423496 A    
C60   H35   1.111569 S    
O8    C3    1.300585 A    
C23   C39   1.403758 A    
O5    Cu1   1.949227 S    
C24   C40   1.403712 A    
C6    O10   1.347246 S    
C19   C34   1.420461 A    
C20   C33   1.420481 A    
C29   C33   1.421433 A    
C40   O22   1.382674 S    
C30   C34   1.421430 A    
C48   O14   1.373837 S    
C57   H27   1.109583 S    
