data_mof_unit_50545.cif
_audit_creation_date              2012-12-10T18:09:56-0500
_audit_creation_method            fapswitch 2.2
_symmetry_space_group_name_H-M    P1
_symmetry_Int_Tables_number       1
_space_group_crystal_system       triclinic
_cell_length_a                    10.62981
_cell_length_b                    12.645988
_cell_length_c                    13.042536
_cell_angle_alpha                 83.150998
_cell_angle_beta                  91.355424
_cell_angle_gamma                 101.732882
_cell_volume                      1704.35387852

loop_
_atom_site_label
_atom_site_type_symbol
_atom_type_description
_atom_site_fract_x
_atom_site_fract_y
_atom_site_fract_z
_atom_type_partial_charge
C1    C     C_R   0.493693 0.439830 0.691446 0.937577
C2    C     C_R   0.554359 0.444751 0.976526 0.082180
C3    C     C_R   0.575761 0.469688 0.869399 0.061155
C4    C     C_R   0.741936 0.500320 0.499403 0.882452
C5    C     C_R   0.602978 0.526099 0.040812 -0.019089
C6    C     C_R   0.655414 0.632914 0.996772 -0.102495
C7    C     C_R   0.696997 0.649409 0.894505 -0.101988
C8    C     C_R   0.664420 0.565094 0.833258 -0.152594
C9    C     C_R   0.594109 0.506299 0.147347 0.261178
C10   C     C_R   0.615507 0.699784 0.157229 0.261115
C11   C     C_R   0.503108 0.401961 0.801426 -0.205543
C12   C     C_3   0.121644 0.499652 0.498084 -0.012507
C13   C     C_R   0.315765 0.086852 0.348859 -0.238178
C14   C     C_R   0.644445 0.797019 0.636666 0.039235
C15   C     C_R   0.646017 0.888946 0.685034 -0.220899
C16   C     C_R   0.527501 0.559548 0.309425 0.949891
C17   C     C_R   0.574902 0.964286 0.642995 -0.094872
C18   C     C_R   0.513440 0.954199 0.546369 0.023097
C19   C     C_R   0.500271 0.852089 0.508672 0.237536
C20   C     C_R   0.458989 0.037388 0.488637 -0.081931
C21   C     C_R   0.374013 0.008975 0.405822 0.125650
C22   C     C_R   0.350688 0.903665 0.378225 -0.195331
C23   C     C_3   0.093163 0.595341 0.421059 -0.524370
C24   C     C_R   0.415807 0.827425 0.427019 -0.137010
C25   C     C_R   0.490960 0.149106 0.503290 0.469085
C26   C     C_R   0.345839 0.193636 0.370599 -0.011401
C27   C     C_R   0.258358 0.500136 0.498447 0.902808
C28   C     C_3   0.901716 0.390954 0.467179 -0.432278
C29   C     C_3   0.044432 0.391559 0.464198 -0.383638
C30   C     C_3   0.948329 0.594182 0.419607 -0.343012
C31   C     C_3   0.935264 0.514799 0.608380 0.372690
C32   C     C_3   0.878917 0.500461 0.498755 -0.035335
C33   C     C_3   0.079417 0.512562 0.608269 0.411562
C34   C     C_R   0.664223 0.719654 0.056155 0.600860
C35   C     C_R   0.577634 0.590802 0.203577 -0.349678
C36   C     C_R   0.427584 0.301536 0.840669 -0.216462
C37   C     C_R   0.413896 0.272988 0.946588 0.692968
C38   C     C_R   0.472205 0.345546 0.014044 -0.222354
Cl1   Cl    Cl    0.610965 0.813294 0.222424 -0.499409
Cl2   Cl    Cl    0.648600 0.389959 0.207956 -0.584131
Cl3   Cl    Cl    0.615886 0.202581 0.584748 -0.642807
F1    F     F_    0.710116 0.823435 0.013604 -0.609662
F2    F     F_    0.335773 0.178171 0.983906 -0.626300
F3    F     F_    0.918825 0.612477 0.639118 -0.691926
F4    F     F_    0.103704 0.427625 0.678485 -0.671954
H1    H     H_    0.859197 0.376802 0.389885 0.254796
H2    H     H_    0.301238 0.254678 0.327402 0.151561
H3    H     H_    0.285809 0.881307 0.315417 0.171272
H4    H     H_    0.248997 0.065568 0.286964 0.186362
H5    H     H_    0.697718 0.737345 0.668999 0.155317
H6    H     H_    0.563481 0.025505 0.690559 0.214193
H7    H     H_    0.697748 0.899682 0.756770 0.197463
H8    H     H_    0.397852 0.749452 0.399535 0.209201
H9    H     H_    0.064525 0.320408 0.516222 0.240985
H10   H     H_    0.072323 0.382322 0.384439 0.195837
H11   H     H_    0.909454 0.583057 0.340705 0.195402
H12   H     H_    0.135279 0.589650 0.633223 0.149834
H13   H     H_    0.125960 0.588714 0.342064 0.199425
H14   H     H_    0.884030 0.447921 0.665023 0.139285
H15   H     H_    0.932293 0.674092 0.438148 0.237061
H16   H     H_    0.145770 0.674464 0.443961 0.199782
H17   H     H_    0.752123 0.727179 0.861536 0.187534
H18   H     H_    0.373380 0.247664 0.789408 0.204346
H19   H     H_    0.446670 0.325219 0.094671 0.206149
H20   H     H_    0.855782 0.322159 0.523921 0.249555
H21   H     H_    0.703232 0.576812 0.756168 0.190157
N1    N     N_R   0.433240 0.222190 0.444680 -0.115347
N2    N     N_R   0.566070 0.776970 0.554790 -0.130396
O1    O     O_R   0.468120 0.366740 0.627160 -0.566894
O2    O     O_R   0.510770 0.544830 0.662520 -0.628348
O3    O     O_R   0.663880 0.410950 0.482330 -0.558079
O4    O     O_R   0.706530 0.589040 0.517700 -0.590806
O5    O     O_R   0.489230 0.455170 0.337480 -0.577324
O6    O     O_R   0.531880 0.633260 0.372840 -0.601002
O7    O     O_R   0.293470 0.410960 0.482300 -0.621171
O8    O     O_R   0.336120 0.589050 0.517670 -0.660221
Zn1   Zn    Zn3+2 0.471520 0.381090 0.476390 1.032676
Zn2   Zn    Zn3+2 0.528480 0.618910 0.523610 0.977507

loop_
_geom_bond_atom_site_label_1
_geom_bond_atom_site_label_2
_ccdc_geom_bond_type
C23   H13   S    
C22   H3    S    
C8    H21   S    
C20   C25   A    
C12   C29   S    
O2    Zn2   S    
C33   F4    S    
O1    Zn1   S    
N1    Zn1   S    
C4    O4    A    
C17   H6    S    
C7    C8    A    
C12   C23   S    
C28   H1    S    
C16   O6    A    
C26   N1    A    
C11   C36   A    
O8    Zn2   S    
C16   C35   S    
C5    C6    A    
C29   H9    S    
C18   C19   A    
C31   H14   S    
O4    Zn2   S    
C34   F1    S    
C30   H15   S    
C31   C33   S    
C10   C35   A    
C36   H18   S    
C25   N1    A    
C21   C22   A    
C27   O7    A    
C38   H19   S    
N2    Zn2   S    
C31   F3    S    
C12   C27   S    
C16   O5    A    
C23   C30   S    
C28   C32   S    
C3    C8    A    
C25   Cl3   S    
C29   H10   S    
C24   H8    S    
C30   H11   S    
C9    Cl2   S    
C1    O1    A    
C6    C34   A    
C10   Cl1   S    
C37   F2    S    
C7    H17   S    
C5    C9    A    
C37   C38   A    
C2    C38   A    
C31   C32   S    
C17   C18   A    
C13   C21   A    
C19   N2    A    
C10   C34   A    
C15   H7    S    
O7    Zn1   S    
C4    C32   S    
C26   H2    S    
C13   H4    S    
C22   C24   A    
C13   C26   A    
C2    C5    A    
C27   O8    A    
C28   C29   S    
O3    Zn1   S    
C15   C17   A    
C36   C37   A    
C33   H12   S    
C19   C24   A    
C6    C7    A    
C1    O2    A    
C2    C3    A    
C30   C32   S    
C14   H5    S    
C28   H20   S    
C18   C20   A    
C14   N2    A    
C3    C11   A    
C23   H16   S    
C20   C21   A    
O6    Zn2   S    
C9    C35   A    
O5    Zn1   S    
C14   C15   A    
C1    C11   S    
C12   C33   S    
C4    O3    A    
