data_mof_unit_42028.cif
_audit_creation_date              2012-12-10T20:31:06-0500
_audit_creation_method            fapswitch 2.2
_symmetry_space_group_name_H-M    P1
_symmetry_Int_Tables_number       1
_space_group_crystal_system       triclinic
_cell_length_a                    15.005765
_cell_length_b                    10.689159
_cell_length_c                    9.847542
_cell_angle_alpha                 90.333254
_cell_angle_beta                  89.441525
_cell_angle_gamma                 90.402337
_cell_volume                      1579.39589785

loop_
_atom_site_label
_atom_site_type_symbol
_atom_type_description
_atom_site_fract_x
_atom_site_fract_y
_atom_site_fract_z
_atom_type_partial_charge
C1    C     C_R   0.500748 0.260368 0.499404 0.923661
C2    C     C_R   0.183647 0.467277 0.615813 -0.204859
C3    C     C_R   0.230830 0.504908 0.500952 -0.090069
C4    C     C_R   0.326634 0.500995 0.500513 0.888575
C5    C     C_R   0.187158 0.546151 0.385623 -0.181740
C6    C     C_R   0.550750 0.063435 0.591847 0.077162
C7    C     C_R   0.503333 0.128814 0.495382 -0.199693
C8    C     C_R   0.459323 0.065714 0.390478 -0.232457
C9    C     C_R   0.453459 0.936725 0.392280 0.377918
C10   C     C_R   0.493109 0.871772 0.500205 -0.181384
C11   C     C_R   0.543114 0.936315 0.596886 0.003184
C12   C     C_R   0.907873 0.542557 0.378357 -0.000843
C13   C     C_3   0.542853 0.936016 0.750006 -0.087855
C14   C     C_3   0.554617 0.077711 0.742520 0.215383
C15   C     C_R   0.453987 0.410112 0.071644 0.172796
C16   C     C_R   0.495393 0.739617 0.500419 0.948052
C17   C     C_R   0.551908 0.581449 0.071757 -0.045645
C18   C     C_R   0.551944 0.581417 0.927660 -0.114556
C19   C     C_R   0.454184 0.409666 0.928801 0.224388
C20   C     C_3   0.355886 0.386052 0.925647 -0.081088
C21   C     C_3   0.356163 0.386275 0.080179 -0.460647
C22   C     C_R   0.673331 0.500393 0.499343 0.903278
C23   C     C_R   0.950714 0.432332 0.731135 -0.179265
C24   C     C_R   0.814981 0.539003 0.380885 -0.158104
C25   C     C_R   0.769084 0.501889 0.497931 -0.101938
C26   C     C_R   0.814250 0.467122 0.614170 -0.160155
C27   C     C_R   0.906176 0.468789 0.614415 0.060816
C28   C     C_R   0.953618 0.506737 0.496694 0.005994
C29   C     C_3   0.453601 0.898777 0.816515 -0.865410
C30   C     C_3   0.331850 0.258966 0.863157 -0.810718
C31   C     C_3   0.101732 0.630837 0.139199 -0.723521
C32   C     C_R   0.042910 0.431461 0.733094 0.378991
C33   C     C_R   0.091337 0.468888 0.616747 0.048476
C34   C     C_R   0.046393 0.507821 0.497955 -0.018710
C35   C     C_R   0.094375 0.547195 0.381005 0.057959
C36   C     C_R   0.049199 0.585607 0.262418 0.095558
C37   C     C_R   0.955246 0.581247 0.261091 0.390061
Cl1   Cl    Cl    0.387871 0.863491 0.266305 -0.635671
Cl2   Cl    Cl    0.662058 0.130384 0.795071 -0.577717
Cl3   Cl    Cl    0.094006 0.382231 0.883957 -0.655993
Cl4   Cl    Cl    0.896575 0.623086 0.112367 -0.617696
H1    H     H_    0.777204 0.566577 0.293177 0.211261
H2    H     H_    0.913705 0.403583 0.820971 0.214014
H3    H     H_    0.219471 0.434995 0.703221 0.198025
H4    H     H_    0.226812 0.577315 0.299967 0.176170
H5    H     H_    0.424868 0.116668 0.312100 0.190836
H6    H     H_    0.445752 0.795738 0.818695 0.277383
H7    H     H_    0.451972 0.932996 0.923206 0.272209
H8    H     H_    0.396510 0.939764 0.761524 0.248061
H9    H     H_    0.259759 0.239878 0.878582 0.295162
H10   H     H_    0.346276 0.259705 0.752429 0.242809
H11   H     H_    0.369805 0.182297 0.910986 0.235978
H12   H     H_    0.601113 0.886366 0.792436 0.214773
H13   H     H_    0.142135 0.714257 0.167510 0.233832
H14   H     H_    0.146639 0.555634 0.102320 0.252538
H15   H     H_    0.060437 0.658334 0.052135 0.297104
H16   H     H_    0.498923 0.133227 0.785864 0.135910
H17   H     H_    0.592383 0.648879 0.126074 0.165002
H18   H     H_    0.592466 0.648763 0.872990 0.159471
H19   H     H_    0.318503 0.465705 0.882613 0.199715
H20   H     H_    0.319210 0.466527 0.124815 0.202927
H21   H     H_    0.777819 0.437466 0.704278 0.191368
H22   H     H_    0.340576 0.294428 0.127645 0.216800
N1    N     N_R   0.499390 0.499140 0.142800 -0.111538
N2    N     N_R   0.499390 0.499180 0.857150 -0.129294
O1    O     O_R   0.500010 0.316790 0.614690 -0.619803
O2    O     O_R   0.500000 0.316760 0.385350 -0.614772
O3    O     O_R   0.367850 0.499990 0.614680 -0.639556
O4    O     O_R   0.367840 0.499950 0.385340 -0.619366
O5    O     O_R   0.500000 0.683240 0.614650 -0.635893
O6    O     O_R   0.499990 0.683210 0.385310 -0.577920
O7    O     O_R   0.632160 0.500050 0.614660 -0.608465
O8    O     O_R   0.632150 0.500010 0.385320 -0.624324
Zn1   Zn    Zn3+2 0.500010 0.500020 0.653130 0.966131
Zn2   Zn    Zn3+2 0.499990 0.499980 0.346870 0.996935

loop_
_geom_bond_atom_site_label_1
_geom_bond_atom_site_label_2
_ccdc_geom_bond_type
C30   H10   S    
C24   H1    S    
C35   C36   A    
C7    C8    A    
C20   C30   S    
C18   N2    A    
C15   C19   A    
C26   C27   A    
C29   H6    S    
C13   C29   S    
C36   C37   A    
C17   N1    A    
O3    Zn1   S    
O1    Zn1   S    
C23   H2    S    
C34   C35   A    
C12   C37   A    
C14   Cl2   S    
C19   C20   S    
C2    H3    S    
C8    C9    A    
C22   C25   S    
O5    Zn1   S    
C15   N1    A    
C19   N2    A    
C23   C27   A    
C31   H15   S    
C20   H19   S    
C9    C10   A    
C21   H20   S    
C17   H17   S    
C30   H9    S    
C28   C34   A    
C13   C14   S    
O8    Zn2   S    
C16   O6    A    
C22   O7    A    
C4    O4    A    
C1    O1    A    
C13   H12   S    
C29   H7    S    
C16   O5    A    
C24   C25   A    
O7    Zn1   S    
C6    C11   A    
C4    O3    A    
C29   H8    S    
C25   C26   A    
C5    H4    S    
N2    Zn1   S    
C6    C14   S    
C17   C18   A    
C2    C33   A    
C12   C28   A    
O2    Zn2   S    
C3    C4    S    
C14   H16   S    
C30   H11   S    
C1    C7    S    
C3    C5    A    
C6    C7    A    
C12   C24   A    
C23   C32   A    
C2    C3    A    
C26   H21   S    
C10   C16   S    
C32   C33   A    
O6    Zn2   S    
C11   C13   S    
C5    C35   A    
C9    Cl1   S    
C1    O2    A    
N1    Zn2   S    
C33   C34   A    
O4    Zn2   S    
C32   Cl3   S    
C31   H13   S    
C37   Cl4   S    
C8    H5    S    
C21   H22   S    
C10   C11   A    
C18   H18   S    
C15   C21   S    
C20   C21   S    
C27   C28   A    
C31   C36   S    
C22   O8    A    
C31   H14   S    
