data_mof_unit_13352.cif
_audit_creation_date              2012-12-11T17:01:27-0500
_audit_creation_method            fapswitch 2.2
_symmetry_space_group_name_H-M    P1
_symmetry_Int_Tables_number       1
_space_group_crystal_system       triclinic
_cell_length_a                    15.109833
_cell_length_b                    14.928764
_cell_length_c                    14.860742
_cell_angle_alpha                 109.652016
_cell_angle_beta                  109.372996
_cell_angle_gamma                 110.141699
_cell_volume                      2556.13810911

loop_
_atom_site_label
_atom_site_type_symbol
_atom_type_description
_atom_site_fract_x
_atom_site_fract_y
_atom_site_fract_z
_atom_type_partial_charge
C1    C     C_R   0.931242 0.744650 0.024456 -0.027054
C2    C     C_R   0.208072 0.805581 0.300755 -0.137586
C3    C     C_R   0.972668 0.408787 0.223913 -0.123751
C4    C     C_R   0.776855 0.251562 0.684387 -0.151957
C5    C     C_R   0.315270 0.592657 0.038531 0.171339
C6    C     C_R   0.050332 0.502808 0.327743 0.072419
C7    C     C_R   0.324810 0.498733 0.017379 -0.048085
C8    C     C_R   0.299527 0.872288 0.302857 0.049995
C9    C     C_R   0.933211 0.131479 0.933839 0.121522
C10   C     C_3   0.512929 0.378648 0.028030 -0.386120
C11   C     C_3   0.408815 0.379902 0.016319 -0.387858
C12   C     C_R   0.674396 0.226971 0.673148 0.061412
C13   C     C_3   0.624231 0.582490 0.166434 -0.456373
C14   C     C_3   0.554335 0.517422 0.962024 0.070039
C15   C     C_3   0.599846 0.492754 0.056069 0.289569
C16   C     C_R   0.096790 0.592677 0.793484 -0.138929
C17   C     C_3   0.423150 0.493812 0.032634 0.340467
C18   C     C_3   0.519796 0.583827 0.152174 -0.369788
C19   C     C_3   0.446089 0.509028 0.943281 -0.419331
C20   C     C_R   0.556450 0.150103 0.466732 0.009071
C21   C     C_R   0.569288 0.176604 0.572143 0.021105
C22   C     C_R   0.471798 0.133773 0.575382 -0.100997
C23   C     C_R   0.067594 0.501931 0.699334 0.068956
C24   C     C_R   0.375918 0.040906 0.481059 -0.198285
C25   C     C_R   0.375954 0.991615 0.382145 0.048520
C26   C     C_R   0.461696 0.057460 0.373743 0.015832
C27   C     C_3   0.518312 0.036868 0.310764 0.035229
C28   C     C_R   0.703114 0.406360 0.007148 -0.077303
C29   C     C_3   0.623161 0.141090 0.411982 0.344280
C30   C     C_R   0.155837 0.606897 0.533517 0.163664
C31   C     C_R   0.099390 0.506986 0.432982 0.028281
C32   C     C_R   0.073629 0.408587 0.436499 -0.188518
C33   C     C_R   0.077105 0.407914 0.531569 -0.188901
C34   C     C_R   0.700167 0.496454 0.066666 0.018322
C35   C     C_R   0.107321 0.505886 0.622827 0.030024
C36   C     C_R   0.160156 0.606279 0.627412 0.182244
C37   C     C_3   0.150589 0.707164 0.666149 -0.507316
C38   C     C_3   0.145225 0.707645 0.563419 -0.523655
C39   C     C_R   0.861754 0.889835 0.970601 0.061981
C40   C     C_R   0.005230 0.409200 0.699754 -0.169270
C41   C     C_R   0.903607 0.836654 0.914235 0.000272
C42   C     C_R   0.913641 0.855719 0.830649 -0.309443
C43   C     C_R   0.905299 0.943359 0.821100 0.520280
C44   C     C_R   0.894024 0.015408 0.901526 -0.120193
C45   C     C_R   0.067343 0.593875 0.314923 -0.143561
C46   C     C_R   0.858301 0.978346 0.964384 0.048320
C47   C     C_3   0.890090 0.040708 0.083016 -0.612778
C48   C     C_3   0.891632 0.942862 0.090943 0.581832
C49   C     C_R   0.791790 0.589924 0.097143 -0.146263
C50   C     C_R   0.686661 0.252457 0.777152 -0.089515
C51   C     C_R   0.025977 0.751640 0.936110 -0.114667
C52   C     C_R   0.949513 0.776651 0.952743 0.120296
C53   C     C_3   0.764956 0.312706 0.470022 0.315735
C54   C     C_3   0.800949 0.398488 0.436406 -0.848303
C55   C     C_3   0.827375 0.944140 0.662056 0.243263
C56   C     C_R   0.221517 0.406275 0.956916 -0.165478
C57   C     C_3   0.849723 0.975113 0.581030 -0.886096
C58   C     C_3   0.027640 0.022704 0.273806 0.259411
C59   C     C_3   0.150508 0.076805 0.345454 -0.845627
C60   C     C_R   0.296373 0.808378 0.208673 -0.098535
C61   C     C_R   0.903327 0.195433 0.993595 -0.160607
C62   C     C_R   0.997393 0.195337 0.905926 -0.125520
H1    H     H_    0.873946 0.747011 0.051117 0.120877
H2    H     H_    0.340507 0.310716 0.932252 0.164170
H3    H     H_    0.799042 0.242298 0.621879 0.076674
H4    H     H_    0.390692 0.364175 0.078056 0.176057
H5    H     H_    0.655758 0.565201 0.233863 0.177997
H6    H     H_    0.500495 0.568048 0.213341 0.163386
H7    H     H_    0.613026 0.603530 0.988733 0.160499
H8    H     H_    0.377964 0.437213 0.860297 0.190860
H9    H     H_    0.448590 0.582931 0.941251 0.206300
H10   H     H_    0.687394 0.666323 0.192429 0.186996
H11   H     H_    0.535631 0.667989 0.172386 0.205438
H12   H     H_    0.196394 0.319748 0.918374 0.112163
H13   H     H_    0.471055 0.159353 0.652048 0.136474
H14   H     H_    0.160860 0.677066 0.830884 0.132785
H15   H     H_    0.308371 0.000757 0.491325 0.122416
H16   H     H_    0.522640 0.960953 0.297019 0.086084
H17   H     H_    0.685672 0.120426 0.446707 -0.025140
H18   H     H_    0.037446 0.330122 0.362734 0.128768
H19   H     H_    0.043117 0.328938 0.527310 0.127588
H20   H     H_    0.073059 0.690600 0.666417 0.194289
H21   H     H_    0.226127 0.779535 0.743490 0.215676
H22   H     H_    0.064392 0.691055 0.506176 0.202791
H23   H     H_    0.337520 0.841881 0.171687 0.160945
H24   H     H_    0.650291 0.320434 0.978681 0.089373
H25   H     H_    0.217370 0.780640 0.581665 0.198657
H26   H     H_    0.937255 0.809787 0.779527 0.156077
H27   H     H_    0.972067 0.117533 0.133640 0.211445
H28   H     H_    0.824263 0.052602 0.092141 0.201130
H29   H     H_    0.982441 0.324951 0.647962 0.090511
H30   H     H_    0.819943 0.675302 0.151762 0.113852
H31   H     H_    0.625661 0.245193 0.800808 0.110352
H32   H     H_    0.058098 0.764912 0.883771 0.106356
H33   H     H_    0.125539 0.679799 0.376477 0.111069
H34   H     H_    0.838941 0.166489 0.011659 0.120568
H35   H     H_    0.821507 0.280113 0.478029 0.075226
H36   H     H_    0.770133 0.354487 0.550803 0.098500
H37   H     H_    0.745060 0.431551 0.425260 0.254864
H38   H     H_    0.885116 0.468151 0.501679 0.206946
H39   H     H_    0.800080 0.360316 0.357532 0.256864
H40   H     H_    0.794344 0.993570 0.697822 0.093668
H41   H     H_    0.764573 0.854306 0.615464 0.103492
H42   H     H_    0.881367 0.926299 0.542142 0.261533
H43   H     H_    0.772992 0.957331 0.515123 0.213428
H44   H     H_    0.910954 0.064860 0.625070 0.243451
H45   H     H_    0.023738 0.167796 0.848282 0.152779
H46   H     H_    0.987259 0.960950 0.294120 0.121746
H47   H     H_    0.006091 0.088232 0.294756 0.106520
H48   H     H_    0.193840 0.140983 0.329201 0.266395
H49   H     H_    0.175005 0.116329 0.434416 0.211430
H50   H     H_    0.174256 0.013214 0.326116 0.258736
H51   H     H_    0.174152 0.833044 0.350397 0.089882
H52   H     H_    0.940198 0.323147 0.202300 0.099962
H53   H     H_    0.545255 0.359931 0.094027 0.177250
H54   H     H_    0.491048 0.310955 0.948442 0.178356
I1    I     I_    0.423639 0.746642 0.063120 -0.472544
I2    I     I_    0.533725 0.416654 0.803796 -0.487832
I3    I     I_    0.453646 0.047919 0.164302 -0.307291
I4    I     I_    0.760308 0.854708 0.113186 -0.534199
N1    N     N_R   0.995640 0.706130 0.053910 -0.054065
N2    N     N_R   0.054010 0.556790 0.847890 -0.039656
N3    N     N_R   0.789940 0.443190 0.997130 -0.032763
N4    N     N_R   0.997630 0.443170 0.791110 -0.036843
N5    N     N_R   0.846320 0.556810 0.053910 -0.035875
N6    N     N_R   0.791080 0.293860 0.847890 -0.047307
N7    N     N_R   0.052880 0.706130 0.997130 -0.045498
N8    N     N_R   0.002370 0.556830 0.208890 -0.042780
N9    N     N_R   0.153680 0.443190 0.946090 -0.045326
N10   N     N_R   0.208920 0.706140 0.152110 -0.042683
N11   N     N_R   0.947120 0.293870 0.002870 -0.043965
N12   N     N_R   0.004360 0.293870 0.946090 -0.048771
N13   N     N_R   0.151690 0.706140 0.208890 -0.042980
N14   N     N_R   0.945990 0.443210 0.152110 -0.043026
N15   N     N_R   0.210060 0.556810 0.002870 -0.051200
N16   N     N_R   0.848310 0.293860 0.791110 -0.039282
Ni1   Ni    Ni4+2 0.999010 0.630300 0.130220 0.218877
Ni2   Ni    Ni4+2 0.000990 0.369700 0.869780 0.208598
Ni3   Ni    Ni4+2 0.130280 0.630280 0.000000 0.247817
Ni4   Ni    Ni4+2 0.869720 0.369720 0.000000 0.213729
O1    O     O_3   0.656628 0.227248 0.388368 -0.566993
O2    O     O_3   0.925326 0.966225 0.744854 -0.638011
O3    O     O_3   0.998136 0.969122 0.161348 -0.620657

loop_
_geom_bond_atom_site_label_1
_geom_bond_atom_site_label_2
_ccdc_geom_bond_type
C57   H43   S    
N13   Ni1   S    
C6    C45   A    
C27   C29   S    
C58   H47   S    
C41   C42   A    
C54   H39   S    
C19   H9    S    
C35   C36   A    
C43   C44   A    
C27   H16   S    
C61   H34   S    
C48   I4    S    
C53   C54   S    
N15   Ni3   S    
C55   H40   S    
N6    Ni4   S    
C26   C27   S    
C13   C18   S    
C9    C61   A    
C7    C56   A    
N4    Ni2   S    
C36   C37   S    
N2    Ni3   S    
N1    N7    A    
C10   C15   S    
N14   Ni4   S    
C30   C31   A    
C2    H51   S    
N3    N5    A    
C45   N8    A    
C18   H6    S    
C23   C40   A    
C55   H41   S    
C59   H48   S    
C30   C38   S    
N1    Ni1   S    
C16   N2    A    
N11   Ni4   S    
C17   C19   S    
N9    N15   A    
C58   O3    S    
N9    Ni2   S    
C47   C48   S    
C14   I2    S    
C59   H49   S    
C50   N6    A    
C4    C12   A    
C15   C34   S    
C53   O1    S    
C56   N9    A    
C11   H4    S    
C4    N16   A    
C3    C6    A    
C6    C31   S    
C28   C34   A    
C55   O2    S    
C21   C22   A    
C8    C25   S    
C47   H27   S    
C54   H38   S    
N7    Ni3   S    
C22   H13   S    
N10   Ni3   S    
C1    H1    S    
C44   C46   A    
C59   H50   S    
C20   C29   S    
C40   N4    A    
C28   N3    A    
C2    N13   A    
C56   H12   S    
C51   C52   A    
C62   N12   A    
C24   C25   A    
C39   C41   A    
C11   H2    S    
C60   N10   A    
C5    C7    A    
C62   H45   S    
N5    Ni1   S    
C58   C59   S    
N3    Ni4   S    
C9    C62   A    
C48   O3    S    
C5    I1    S    
N8    Ni1   S    
C37   C38   S    
N8    N14   A    
C32   H18   S    
C31   C32   A    
C29   H17   S    
C29   O1    S    
C17   C18   S    
C9    C44   S    
C39   C46   A    
N16   Ni2   S    
C33   H19   S    
C18   H11   S    
C23   C35   S    
C13   C15   S    
C28   H24   S    
C14   H7    S    
C22   C24   A    
C54   H37   S    
N10   N13   A    
C42   H26   S    
C42   C43   A    
C49   H30   S    
N2    N4    A    
N11   N12   A    
C45   H33   S    
C10   H54   S    
C13   H5    S    
C5    N15   A    
C57   H42   S    
C46   C47   S    
C11   C17   S    
C34   C49   A    
C41   C52   S    
C38   H22   S    
C16   H14   S    
C14   C19   S    
C2    C8    A    
C19   H8    S    
C3    H52   S    
C7    C17   S    
C12   C50   A    
C60   H23   S    
C50   H31   S    
C13   H10   S    
C27   I3    S    
C53   H36   S    
C16   C23   A    
C49   N5    A    
C30   C36   A    
C38   H25   S    
C3    N14   A    
C51   N7    A    
C32   C33   A    
C55   C57   S    
C25   C26   A    
C8    C60   A    
C4    H3    S    
C20   C26   A    
C12   C21   S    
C33   C35   A    
C53   H35   S    
C57   H44   S    
C58   H46   S    
C40   H29   S    
C37   H20   S    
C1    C52   A    
C1    N1    A    
C47   H28   S    
C10   C11   S    
C61   N11   A    
C51   H32   S    
N6    N16   A    
C24   H15   S    
C20   C21   A    
C14   C15   S    
C37   H21   S    
C43   O2    S    
N12   Ni2   S    
C10   H53   S    
C39   C48   S    
