data_mof_unit_66515.cif
_audit_creation_date              2012-12-10T19:33:11-0500
_audit_creation_method            fapswitch 2.2
_symmetry_space_group_name_H-M    P1
_symmetry_Int_Tables_number       1
_space_group_crystal_system       triclinic
_cell_length_a                    21.635233
_cell_length_b                    21.626413
_cell_length_c                    22.130117
_cell_angle_alpha                 119.47119
_cell_angle_beta                  119.520267
_cell_angle_gamma                 89.551406
_cell_volume                      7458.84790363

loop_
_atom_site_label
_atom_site_type_symbol
_atom_type_description
_atom_site_fract_x
_atom_site_fract_y
_atom_site_fract_z
_atom_type_partial_charge
C1    C     C_R   0.498300 0.118272 0.496827 0.918343
C2    C     C_R   0.498075 0.182975 0.494901 -0.112290
C3    C     C_R   0.491745 0.182037 0.427835 0.143828
C4    C     C_R   0.581031 0.080845 0.662069 0.911928
C5    C     C_R   0.493750 0.248308 0.431533 -0.242122
C6    C     C_R   0.504360 0.314239 0.501636 -0.073205
C7    C     C_R   0.522004 0.316221 0.572744 -0.053491
C8    C     C_3   0.488228 0.344273 0.623323 0.588043
C9    C     C_3   0.478708 0.268867 0.612521 0.367780
C10   C     C_3   0.268140 0.705510 0.046955 0.682983
C11   C     C_3   0.325533 0.810132 0.050552 0.970928
C12   C     C_3   0.738215 0.331402 0.045802 0.593559
C13   C     C_3   0.281891 0.757629 0.953709 0.370129
C14   C     C_1   0.124764 0.625803 0.750832 -0.135879
C15   C     C_3   0.282055 0.791829 0.082565 -0.197361
C16   C     C_R   0.499782 0.879360 0.498907 0.868917
C17   C     C_3   0.215317 0.661125 0.949672 -0.502285
C18   C     C_3   0.202230 0.713092 0.917091 -0.080737
C19   C     C_3   0.160788 0.770840 0.948202 0.113315
C20   C     C_3   0.203476 0.808341 0.048053 0.526430
C21   C     C_1   0.160248 0.664925 0.825724 0.113619
C22   C     C_1   0.331927 0.837319 0.174117 0.170004
C23   C     C_3   0.792166 0.290838 0.082525 -0.235947
C24   C     C_1   0.373338 0.874742 0.249040 -0.168533
C25   C     C_R   0.495425 0.811439 0.558372 -0.093670
C26   C     C_R   0.502295 0.814349 0.500517 -0.007471
C27   C     C_R   0.519370 0.756778 0.449922 -0.181324
C28   C     C_R   0.418852 0.918902 0.337890 0.871319
C29   C     C_R   0.518824 0.692220 0.449515 -0.201779
C30   C     C_R   0.503446 0.686874 0.501591 0.013133
C31   C     C_R   0.496793 0.748469 0.559558 -0.109965
C32   C     C_3   0.437786 0.753474 0.577150 0.425472
C33   C     C_3   0.436311 0.823479 0.576102 0.673224
C34   C     C_3   0.746642 0.210742 0.048662 0.473092
C35   C     C_R   0.879506 0.499793 0.499091 0.975085
C36   C     C_R   0.919108 0.418960 0.337894 0.884535
C37   C     C_R   0.119726 0.499240 0.499208 0.940738
C38   C     C_R   0.081498 0.581052 0.662081 0.929246
C39   C     C_R   0.620205 0.497392 0.499923 0.907354
C40   C     C_3   0.694751 0.282272 0.948481 -0.522850
C41   C     C_R   0.499696 0.379684 0.500371 0.951742
C42   C     C_R   0.379566 0.499252 0.500085 0.993558
C43   C     C_R   0.499974 0.620382 0.500113 0.908929
C44   C     C_R   0.794523 0.563326 0.528292 -0.189724
C45   C     C_3   0.689292 0.167583 0.951613 1.071730
C46   C     C_R   0.810366 0.497184 0.492634 -0.168912
C47   C     C_R   0.758508 0.428222 0.450234 0.579006
C48   C     C_R   0.695265 0.426321 0.452959 0.028932
C49   C     C_R   0.685124 0.495090 0.498140 -0.061921
C50   C     C_R   0.732710 0.562140 0.531298 -0.207348
C51   C     C_3   0.772816 0.632661 0.617318 0.513161
C52   C     C_3   0.795732 0.222560 0.951480 -0.289182
C53   C     C_3   0.841722 0.634016 0.614374 0.684524
C54   C     C_R   0.252759 0.551403 0.570886 -0.060261
C55   C     C_R   0.185387 0.497460 0.499605 -0.165944
C56   C     C_1   0.837631 0.336929 0.174102 0.133651
C57   C     C_R   0.184079 0.435276 0.433912 -0.250906
C58   C     C_R   0.248465 0.434186 0.434038 0.674504
C59   C     C_R   0.314215 0.494812 0.501380 -0.208690
C60   C     C_R   0.316927 0.549682 0.572237 -0.084263
C61   C     C_3   0.346225 0.633262 0.621943 -0.208390
C62   C     C_3   0.274259 0.634684 0.619062 1.140816
C63   C     C_3   0.844654 0.276407 0.050007 1.084161
C64   C     C_1   0.874897 0.374536 0.249075 -0.128090
C65   C     C_3   0.710281 0.206208 0.917426 -0.186631
C66   C     C_3   0.778289 0.412628 0.081392 -0.323052
C67   C     C_1   0.663407 0.161070 0.825812 0.133099
C68   C     C_3   0.724029 0.457232 0.064878 -0.740142
C69   C     C_3   0.477206 0.111278 0.349814 -0.401647
C70   C     C_3   0.396029 0.062349 0.292665 -0.819364
C71   C     C_3   0.541466 0.410191 0.716216 -0.332605
C72   C     C_3   0.556352 0.485813 0.728873 -0.786964
C73   C     C_3   0.209669 0.893280 0.100384 -0.393670
C74   C     C_3   0.207084 0.918396 0.177108 -0.695668
C75   C     C_3   0.073695 0.735182 0.901406 -0.212268
C76   C     C_3   0.043371 0.660036 0.883138 -0.730115
C77   C     C_3   0.236338 0.671904 0.078308 -0.333123
C78   C     C_1   0.625482 0.124389 0.750859 -0.134188
C79   C     C_3   0.282583 0.707008 0.172766 -0.739265
C80   C     C_3   0.818494 0.150645 0.917786 -0.257414
C81   C     C_3   0.890981 0.166195 0.923998 -0.764613
C82   C     C_3   0.164404 0.833232 0.929787 -0.554322
C83   C     C_3   0.140914 0.808485 0.841121 -0.787217
C84   C     C_3   0.459932 0.897011 0.659396 -0.513084
C85   C     C_3   0.540667 0.921280 0.733045 -0.841437
C86   C     C_3   0.645612 0.351742 0.416795 -0.390124
C87   C     C_3   0.666531 0.339204 0.485712 -0.803710
C88   C     C_3   0.868934 0.699804 0.614834 -0.509666
C89   C     C_R   0.515785 0.249948 0.566988 -0.092085
C90   C     C_3   0.905963 0.773168 0.700994 -0.801731
C91   C     C_3   0.419837 0.670324 0.709830 -0.366349
C92   C     C_3   0.430763 0.630519 0.754062 -0.677226
C93   C     C_3   0.713477 0.205471 0.095642 -0.295189
C94   C     C_3   0.663569 0.252233 0.112085 -0.713545
F1    F     F_    0.686313 0.337698 0.065602 -0.662859
F2    F     F_    0.372444 0.694744 0.510051 -0.612837
F3    F     F_    0.369294 0.813241 0.508738 -0.580179
F4    F     F_    0.771525 0.363309 0.410239 -0.663769
F5    F     F_    0.781220 0.620686 0.676603 -0.596237
F6    F     F_    0.898758 0.622705 0.671014 -0.641000
F7    F     F_    0.245698 0.375715 0.367764 -0.622714
F8    F     F_    0.282755 0.666944 0.695492 -0.661259
F9    F     F_    0.228371 0.660321 0.572007 -0.634233
F10   F     F_    0.885791 0.342414 0.074240 -0.694514
F11   F     F_    0.897637 0.247637 0.086730 -0.582149
F12   F     F_    0.796670 0.170390 0.060503 -0.616242
F13   F     F_    0.617339 0.165852 0.931339 -0.669324
F14   F     F_    0.689153 0.093885 0.912949 -0.654580
F15   F     F_    0.420116 0.354448 0.581841 -0.668359
F16   F     F_    0.521665 0.271636 0.685894 -0.672965
F17   F     F_    0.335711 0.690595 0.066762 -0.581126
F18   F     F_    0.337402 0.883801 0.075277 -0.738373
F19   F     F_    0.396177 0.802024 0.085915 -0.513280
F20   F     F_    0.320160 0.708822 0.930751 -0.566011
F21   F     F_    0.160634 0.773693 0.059362 -0.685188
H1    H     H_    0.633802 0.273684 0.920163 0.286596
H2    H     H_    0.457607 0.761975 0.638302 0.019557
H3    H     H_    0.748898 0.678595 0.618397 0.014808
H4    H     H_    0.805438 0.253018 0.926843 0.205738
H5    H     H_    0.132701 0.389800 0.381079 0.190703
H6    H     H_    0.349147 0.652527 0.585049 0.207076
H7    H     H_    0.680115 0.427604 0.996781 0.258355
H8    H     H_    0.697317 0.466604 0.099246 0.297658
H9    H     H_    0.755105 0.512620 0.087231 0.233819
H10   H     H_    0.819764 0.444177 0.150242 0.217959
H11   H     H_    0.808281 0.412337 0.052645 0.228881
H12   H     H_    0.484764 0.247933 0.378614 0.168338
H13   H     H_    0.387731 0.010804 0.236836 0.289235
H14   H     H_    0.381406 0.046238 0.325583 0.241444
H15   H     H_    0.358102 0.092553 0.271468 0.270164
H16   H     H_    0.489271 0.125065 0.313707 0.218963
H17   H     H_    0.515032 0.079336 0.366704 0.232496
H18   H     H_    0.600080 0.492994 0.718327 0.264676
H19   H     H_    0.504543 0.491701 0.686556 0.298867
H20   H     H_    0.577691 0.531056 0.794666 0.231448
H21   H     H_    0.515528 0.413166 0.749833 0.237298
H22   H     H_    0.595947 0.400347 0.746038 0.211746
H23   H     H_    0.419676 0.233234 0.572204 0.136706
H24   H     H_    0.149698 0.894549 0.156428 0.285441
H25   H     H_    0.245629 0.901152 0.217305 0.259745
H26   H     H_    0.221891 0.980232 0.215684 0.223150
H27   H     H_    0.260305 0.930533 0.120836 0.223638
H28   H     H_    0.161247 0.905407 0.062394 0.193171
H29   H     H_    0.048277 0.613783 0.834222 0.240457
H30   H     H_    0.069565 0.659368 0.940001 0.276980
H31   H     H_    0.982722 0.649009 0.856970 0.271632
H32   H     H_    0.054254 0.776459 0.937588 0.213491
H33   H     H_    0.042066 0.727015 0.839347 0.216988
H34   H     H_    0.240448 0.619978 0.922274 0.271262
H35   H     H_    0.343148 0.717579 0.198744 0.278749
H36   H     H_    0.271253 0.759440 0.205268 0.258713
H37   H     H_    0.265963 0.668289 0.185160 0.250652
H38   H     H_    0.177695 0.669803 0.056526 0.232239
H39   H     H_    0.234441 0.612229 0.048245 0.206419
H40   H     H_    0.883914 0.187592 0.885230 0.243577
H41   H     H_    0.938061 0.207639 0.989803 0.320992
H42   H     H_    0.905269 0.113575 0.900213 0.240169
H43   H     H_    0.824789 0.124226 0.951737 0.312013
H44   H     H_    0.774710 0.108491 0.850582 0.208465
H45   H     H_    0.710253 0.310696 0.925208 0.180324
H46   H     H_    0.181676 0.786882 0.826740 0.269320
H47   H     H_    0.085069 0.766319 0.791105 0.254610
H48   H     H_    0.138106 0.857863 0.837298 0.258538
H49   H     H_    0.126016 0.865105 0.939409 0.218992
H50   H     H_    0.220334 0.875077 0.974579 0.258163
H51   H     H_    0.551145 0.877682 0.746319 0.248340
H52   H     H_    0.580574 0.933388 0.719666 0.267699
H53   H     H_    0.550999 0.973139 0.790043 0.326630
H54   H     H_    0.452793 0.942424 0.648683 0.261054
H55   H     H_    0.421523 0.891066 0.677154 0.240147
H56   H     H_    0.280252 0.791411 0.928668 0.132181
H57   H     H_    0.726789 0.344154 0.520001 0.288350
H58   H     H_    0.654662 0.380687 0.530741 0.246976
H59   H     H_    0.633656 0.282258 0.457416 0.244111
H60   H     H_    0.585717 0.347747 0.383623 0.209876
H61   H     H_    0.651342 0.305049 0.368856 0.261578
H62   H     H_    0.865315 0.787382 0.718509 0.253378
H63   H     H_    0.954054 0.769054 0.749385 0.277777
H64   H     H_    0.926655 0.818873 0.699484 0.251578
H65   H     H_    0.910378 0.688855 0.598146 0.249119
H66   H     H_    0.821528 0.705637 0.567377 0.179245
H67   H     H_    0.162458 0.624987 0.925724 0.157082
H68   H     H_    0.385763 0.627265 0.763982 0.307496
H69   H     H_    0.432087 0.573266 0.717016 0.249109
H70   H     H_    0.484927 0.661983 0.816282 0.235736
H71   H     H_    0.467195 0.672831 0.703076 0.213004
H72   H     H_    0.423263 0.728906 0.750519 0.241635
H73   H     H_    0.696755 0.312075 0.160574 0.283097
H74   H     H_    0.615411 0.243580 0.053783 0.338471
H75   H     H_    0.640377 0.234551 0.138100 0.227529
H76   H     H_    0.681434 0.145959 0.060296 0.242590
H77   H     H_    0.760583 0.219324 0.157809 0.227369
H78   H     H_    0.529164 0.760188 0.407962 0.162374
H79   H     H_    0.528567 0.646247 0.407654 0.153982
O1    O     O_R   0.448270 0.091610 0.500010 -0.617781
O2    O     O_R   0.557050 0.465350 0.430680 -0.655131
O3    O     O_R   0.534700 0.443070 0.569360 -0.637884
O4    O     O_R   0.551720 0.091610 0.499980 -0.625650
O5    O     O_R   0.465400 0.373710 0.430650 -0.624050
O6    O     O_R   0.443050 0.534650 0.569320 -0.641231
O7    O     O_R   0.373740 0.465290 0.430600 -0.552670
O8    O     O_R   0.534700 0.626290 0.569350 -0.638560
O9    O     O_R   0.465390 0.556930 0.430640 -0.609067
O10   O     O_R   0.509700 0.061430 0.622870 -0.591248
O11   O     O_R   0.613150 0.061430 0.622840 -0.624079
O12   O     O_R   0.908540 0.448310 0.500030 -0.560874
O13   O     O_R   0.448280 0.908390 0.500020 -0.570250
O14   O     O_R   0.551730 0.908390 0.499990 -0.635915
O15   O     O_R   0.386850 0.938570 0.377160 -0.626805
O16   O     O_R   0.490300 0.938570 0.377130 -0.593373
O17   O     O_R   0.908570 0.551750 0.500020 -0.654192
O18   O     O_R   0.938770 0.490290 0.377140 -0.621221
O19   O     O_R   0.938740 0.386860 0.377150 -0.596525
O20   O     O_R   0.091820 0.551690 0.499970 -0.561030
O21   O     O_R   0.091790 0.448250 0.499980 -0.624572
O22   O     O_R   0.061630 0.613140 0.622850 -0.606897
O23   O     O_R   0.061600 0.509710 0.622860 -0.618261
O24   O     O_R   0.626360 0.534710 0.569400 -0.568864
Zn1   Zn    Zn3+2 0.430930 0.000000 0.500020 1.046796
Zn2   Zn    Zn3+2 0.569070 0.000000 0.499980 0.998025
Zn3   Zn    Zn3+2 0.000200 0.569060 0.500000 1.041623
Zn4   Zn    Zn3+2 0.000160 0.430940 0.500000 1.063359
Zn5   Zn    Zn3+2 0.546320 0.546310 0.592620 0.984457
Zn6   Zn    Zn3+2 0.453780 0.453690 0.407380 1.039267

loop_
_geom_bond_atom_site_label_1
_geom_bond_atom_site_label_2
_ccdc_geom_bond_type
C25   C31   A    
C66   C68   S    
C90   H63   S    
O11   Zn2   S    
O14   Zn2   S    
C93   C94   S    
C27   C29   A    
C18   C21   S    
C73   C74   S    
C54   C55   A    
C39   O24   A    
C1    O4    A    
C34   C93   S    
C32   H2    S    
C41   O5    A    
C16   O13   A    
C68   H9    S    
O1    Zn1   S    
C72   H18   S    
O24   Zn5   S    
C71   H22   S    
C54   C60   A    
C12   C23   S    
C26   C27   A    
C47   F4    S    
C13   C18   S    
C85   H51   S    
C14   C21   T    
C3    C69   S    
C94   H73   S    
C1    C2    S    
C84   H55   S    
C10   C15   S    
C30   C31   A    
C77   H39   S    
C4    O10   A    
C10   C17   S    
C44   C50   A    
C29   H79   S    
C7    C89   A    
C70   H15   S    
C51   H3    S    
O16   Zn2   S    
C61   H6    S    
C86   H60   S    
O19   Zn4   S    
C35   O17   A    
C72   H19   S    
C91   H72   S    
C77   H38   S    
C90   H64   S    
C11   C15   S    
C17   H67   S    
C15   C22   S    
C47   C48   A    
C4    O11   A    
C8    C9    S    
C65   C67   S    
C6    C41   S    
C20   C73   S    
C56   C64   T    
C12   F1    S    
C12   C66   S    
C27   H78   S    
C63   F11   S    
C19   C82   S    
C86   H61   S    
C13   F20   S    
C45   F14   S    
O18   Zn3   S    
C22   C24   T    
C23   C63   S    
C83   H46   S    
C90   H62   S    
C76   H31   S    
C59   C60   A    
C16   C26   S    
C85   H53   S    
C38   O23   A    
C61   C62   S    
C67   C78   T    
C44   C53   S    
C68   H8    S    
C10   C77   S    
C44   C46   A    
C88   H65   S    
C57   C58   A    
C73   H27   S    
C93   H76   S    
C53   F6    S    
C51   F5    S    
C15   C20   S    
C87   H58   S    
C17   H34   S    
C81   H42   S    
O10   Zn1   S    
C34   F12   S    
C23   C56   S    
C84   C85   S    
C41   O3    A    
C84   H54   S    
C92   H69   S    
C68   H7    S    
C91   C92   S    
C58   F7    S    
C86   C87   S    
C63   F10   S    
C72   H20   S    
C54   C62   S    
C16   O14   A    
C28   O15   A    
C74   H25   S    
C92   H68   S    
C70   H14   S    
C66   H11   S    
C42   O6    A    
C60   C61   S    
C51   C53   S    
C85   H52   S    
C12   C40   S    
C2    C89   A    
C75   C76   S    
C94   H75   S    
C4    C78   S    
C29   C30   A    
O20   Zn3   S    
C36   O19   A    
C14   C38   S    
C9    H23   S    
C35   O12   A    
C80   H43   S    
C31   C32   S    
C69   H16   S    
C23   C34   S    
C5    H12   S    
C43   O8    A    
C17   C18   S    
C77   C79   S    
C10   F17   S    
C50   C51   S    
C34   C45   S    
O15   Zn1   S    
C81   H41   S    
O2    Zn6   S    
C36   O18   A    
C79   H35   S    
C76   H29   S    
C48   C49   A    
C39   C49   S    
C74   H26   S    
C88   C90   S    
C76   H30   S    
C82   C83   S    
C40   C65   S    
C57   H5    S    
C43   O9    A    
C48   C86   S    
C30   C43   S    
C58   C59   A    
C9    C89   S    
O21   Zn4   S    
C3    C5    A    
C37   O20   A    
C71   H21   S    
C79   H36   S    
C62   F9    S    
C73   H28   S    
C93   H77   S    
C70   H13   S    
O23   Zn4   S    
C87   H59   S    
C83   H48   S    
C46   C47   A    
C8    C71   S    
C1    O1    A    
C11   F18   S    
C92   H70   S    
O6    Zn5   S    
O13   Zn1   S    
O8    Zn5   S    
C40   H45   S    
O4    Zn2   S    
C24   C28   S    
C38   O22   A    
C80   C81   S    
O3    Zn5   S    
C52   C63   S    
C42   C59   S    
C40   H1    S    
C20   F21   S    
C6    C7    A    
C9    F16   S    
C75   H33   S    
C74   H24   S    
C39   O2    A    
C91   H71   S    
C81   H40   S    
C66   H10   S    
C75   H32   S    
C32   C33   S    
C19   C20   S    
C55   C57   A    
C2    C3    A    
C25   C26   A    
C94   H74   S    
C71   C72   S    
C32   F2    S    
C52   C80   S    
C8    F15   S    
C45   C65   S    
C11   C13   S    
C88   H66   S    
C5    C6    A    
C82   H49   S    
O12   Zn4   S    
C69   H17   S    
C87   H57   S    
C80   H44   S    
C19   C75   S    
O22   Zn3   S    
O9    Zn6   S    
C53   C88   S    
C33   F3    S    
C69   C70   S    
C11   F19   S    
C33   C84   S    
C7    C8    S    
C37   C55   S    
C52   H4    S    
C61   C91   S    
C13   H56   S    
C49   C50   A    
C83   H47   S    
C18   C19   S    
C42   O7    A    
O5    Zn6   S    
O7    Zn6   S    
C36   C64   S    
C35   C46   S    
C28   O16   A    
C37   O21   A    
C52   C65   S    
C45   F13   S    
C25   C33   S    
C79   H37   S    
C62   F8    S    
C82   H50   S    
O17   Zn3   S    
