data_mof_unit_25912.cif
_audit_creation_date              2012-12-11T15:26:58-0500
_audit_creation_method            fapswitch 2.2
_symmetry_space_group_name_H-M    P1
_symmetry_Int_Tables_number       1
_space_group_crystal_system       triclinic
_cell_length_a                    13.907143
_cell_length_b                    13.927458
_cell_length_c                    27.417412
_cell_angle_alpha                 89.976226
_cell_angle_beta                  90.028194
_cell_angle_gamma                 119.973957
_cell_volume                      4600.24240959

loop_
_atom_site_label
_atom_site_type_symbol
_atom_type_description
_atom_site_fract_x
_atom_site_fract_y
_atom_site_fract_z
_atom_type_partial_charge
C1    C     C_R   0.234139 0.787296 0.568526 0.544108
C2    C     C_R   0.212653 0.446772 0.568520 0.545043
C3    C     C_R   0.553187 0.765791 0.568513 0.545667
C4    C     C_3   0.695178 0.746981 0.783982 -0.212202
C5    C     C_3   0.253205 0.948179 0.783913 -0.212217
C6    C     C_3   0.051453 0.304504 0.783847 -0.212236
C7    C     C_3   0.664613 0.730980 0.729138 -0.213040
C8    C     C_3   0.269161 0.933432 0.729090 -0.212990
C9    C     C_3   0.066180 0.335184 0.729019 -0.212987
C10   C     C_1   0.757905 0.880743 0.852131 -0.075514
C11   C     C_1   0.119248 0.877461 0.852096 -0.075542
C12   C     C_1   0.122461 0.241626 0.852071 -0.075580
C13   C     C_1   0.637217 0.818853 0.656444 -0.075937
C14   C     C_1   0.180986 0.818131 0.656456 -0.075895
C15   C     C_1   0.181762 0.362661 0.656425 -0.075953
C16   C     C_1   0.604645 0.798647 0.615129 -0.016504
C17   C     C_1   0.201182 0.805744 0.615146 -0.016351
C18   C     C_1   0.194162 0.395299 0.615123 -0.016587
C19   C     C_R   0.072049 0.164570 0.941558 0.512265
C20   C     C_R   0.835246 0.907444 0.941582 0.512608
C21   C     C_R   0.092464 0.927851 0.941566 0.512171
C22   C     C_R   0.604514 0.797034 0.382487 -0.020024
C23   C     C_R   0.196481 0.813868 0.384777 -0.022074
C24   C     C_R   0.189821 0.387240 0.383890 -0.030263
C25   C     C_R   0.670174 0.909644 0.371245 -0.166567
C26   C     C_R   0.086126 0.746620 0.369634 -0.163321
C27   C     C_R   0.265757 0.356884 0.366380 -0.152547
C28   C     C_R   0.708752 0.942999 0.323916 0.062475
C29   C     C_R   0.055157 0.749700 0.321484 0.060400
C30   C     C_R   0.264567 0.328720 0.317566 0.084213
C31   C     C_R   0.682166 0.863048 0.287430 0.002100
C32   C     C_R   0.136240 0.817780 0.287563 0.003355
C33   C     C_R   0.191826 0.338089 0.285081 0.002323
C34   C     C_R   0.233822 0.788667 0.431192 0.545901
C35   C     C_R   0.211686 0.445469 0.431156 0.540522
C36   C     C_R   0.550985 0.764168 0.430389 0.545029
C37   C     C_R   0.619535 0.749654 0.298515 0.130233
C38   C     C_R   0.245688 0.890475 0.302718 0.122175
C39   C     C_R   0.114668 0.367440 0.301996 0.128793
C40   C     C_R   0.581779 0.716201 0.345919 0.138507
C41   C     C_R   0.274166 0.894157 0.351840 0.146412
C42   C     C_R   0.106542 0.381575 0.352032 0.152114
C43   C     C_R   0.805269 0.875688 0.221350 -0.092543
C44   C     C_R   0.104546 0.915249 0.220902 -0.092709
C45   C     C_R   0.091895 0.203650 0.220721 -0.084527
C46   C     C_R   0.819556 0.868078 0.171865 -0.108708
C47   C     C_R   0.111748 0.939043 0.171602 -0.106118
C48   C     C_R   0.066123 0.180772 0.171878 -0.103366
C49   C     C_R   0.674299 0.911445 0.154126 -0.115886
C50   C     C_R   0.112138 0.768909 0.152809 -0.119786
C51   C     C_R   0.231723 0.352952 0.149640 -0.118638
C52   C     C_R   0.656673 0.914584 0.204084 -0.064095
C53   C     C_R   0.109606 0.747067 0.202709 -0.062421
C54   C     C_R   0.255286 0.378289 0.199026 -0.059168
C55   C     C_R   0.720698 0.894108 0.237560 0.065620
C56   C     C_R   0.108089 0.821709 0.236692 0.069437
C57   C     C_R   0.184270 0.304027 0.234439 0.068146
C58   C     C_R   0.752654 0.883421 0.138078 0.034037
C59   C     C_R   0.117525 0.867328 0.137461 0.037650
C60   C     C_R   0.135092 0.255647 0.136276 0.039344
C61   C     C_R   0.107642 0.223177 0.085818 0.554537
C62   C     C_R   0.779171 0.885574 0.086779 0.555564
C63   C     C_R   0.115127 0.892736 0.086310 0.553288
C64   C     C_3   0.587065 0.859348 0.737684 -0.215069
C65   C     C_3   0.140360 0.727810 0.737793 -0.215055
C66   C     C_3   0.272163 0.412426 0.737764 -0.215072
C67   C     C_3   0.787215 0.935416 0.714410 -0.213535
C68   C     C_3   0.064455 0.851828 0.714348 -0.213534
C69   C     C_3   0.148302 0.212664 0.714350 -0.213539
C70   C     C_3   0.819203 0.951160 0.769034 -0.217364
C71   C     C_3   0.048789 0.868283 0.768945 -0.217364
C72   C     C_3   0.131846 0.180542 0.768954 -0.217364
C73   C     C_1   0.791546 0.893613 0.893350 -0.023217
C74   C     C_1   0.106357 0.898167 0.893316 -0.023194
C75   C     C_1   0.101744 0.208080 0.893299 -0.023114
C76   C     C_3   0.668525 0.836141 0.708017 0.072047
C77   C     C_3   0.163749 0.832298 0.708020 0.071993
C78   C     C_3   0.167603 0.331239 0.707987 0.072025
C79   C     C_3   0.620026 0.876987 0.792488 -0.212393
C80   C     C_3   0.122763 0.743302 0.792572 -0.212335
C81   C     C_3   0.256688 0.379342 0.792547 -0.212331
C82   C     C_3   0.723256 0.864357 0.800861 0.071267
C83   C     C_3   0.135616 0.859109 0.800836 0.071219
C84   C     C_3   0.140810 0.276310 0.800808 0.071237
Cr1   Cr    Cr6+3 0.164410 0.584450 0.499910 1.009176
Cr2   Cr    Cr6+3 0.415550 0.579960 0.499910 1.009807
Cr3   Cr    Cr6+3 0.420040 0.835590 0.499910 1.010107
Cr4   Cr    Cr6+3 0.156760 0.076070 0.017830 1.036351
Cr5   Cr    Cr6+3 0.923930 0.080690 0.017830 1.034204
Cr6   Cr    Cr6+3 0.919310 0.843240 0.017830 1.034429
H1    H     H_    0.638098 0.960980 0.804052 0.115308
H2    H     H_    0.038607 0.677546 0.804164 0.115342
H3    H     H_    0.322650 0.361172 0.804165 0.115385
H4    H     H_    0.500826 0.788594 0.733868 0.107950
H5    H     H_    0.211127 0.712249 0.734033 0.107948
H6    H     H_    0.287560 0.498575 0.733980 0.107962
H7    H     H_    0.549354 0.815445 0.814956 0.115993
H8    H     H_    0.184327 0.734160 0.815082 0.115990
H9    H     H_    0.265686 0.449877 0.815037 0.115998
H10   H     H_    0.767110 0.734430 0.790360 0.106451
H11   H     H_    0.265893 0.032615 0.790194 0.106460
H12   H     H_    0.966957 0.232699 0.790132 0.106425
H13   H     H_    0.689242 0.971861 0.399055 0.142250
H14   H     H_    0.024188 0.690162 0.395081 0.137922
H15   H     H_    0.327545 0.356982 0.390461 0.146749
H16   H     H_    0.854059 0.858556 0.247041 0.152627
H17   H     H_    0.104586 0.973844 0.246926 0.137441
H18   H     H_    0.036215 0.146451 0.247943 0.147208
H19   H     H_    0.883003 0.850103 0.159830 0.139442
H20   H     H_    0.112607 0.013552 0.159843 0.125220
H21   H     H_    0.992459 0.104105 0.161707 0.123069
H22   H     H_    0.590041 0.927362 0.216617 0.155054
H23   H     H_    0.113762 0.675232 0.214888 0.153851
H24   H     H_    0.325673 0.456866 0.209641 0.164634
H25   H     H_    0.625038 0.927230 0.128199 0.121260
H26   H     H_    0.113271 0.711510 0.126499 0.117186
H27   H     H_    0.286329 0.409957 0.122147 0.117867
H28   H     H_    0.587784 0.934341 0.723157 0.112503
H29   H     H_    0.065188 0.653619 0.723311 0.112491
H30   H     H_    0.346560 0.411686 0.723305 0.112480
H31   H     H_    0.847568 0.921131 0.693508 0.109604
H32   H     H_    0.078849 0.926328 0.693358 0.109580
H33   H     H_    0.073762 0.152505 0.693354 0.109580
H34   H     H_    0.791975 0.012327 0.699891 0.112627
H35   H     H_    0.987357 0.779749 0.699883 0.112605
H36   H     H_    0.220595 0.207892 0.699914 0.112608
H37   H     H_    0.841587 0.036305 0.780656 0.107498
H38   H     H_    0.963487 0.805719 0.780600 0.107497
H39   H     H_    0.194609 0.158023 0.780642 0.107503
H40   H     H_    0.892600 0.941430 0.774275 0.099646
H41   H     H_    0.058735 0.951397 0.774080 0.099681
H42   H     H_    0.048678 0.107317 0.774087 0.099684
H43   H     H_    0.580047 0.657875 0.724438 0.111173
H44   H     H_    0.342282 0.921877 0.724445 0.111145
H45   H     H_    0.077559 0.419669 0.724341 0.111203
H46   H     H_    0.723637 0.713351 0.709041 0.113348
H47   H     H_    0.286939 0.009965 0.708913 0.113370
H48   H     H_    0.989594 0.276352 0.708841 0.113368
H49   H     H_    0.624422 0.683032 0.805660 0.117884
H50   H     H_    0.317195 0.941385 0.805635 0.117826
H51   H     H_    0.058104 0.375121 0.805541 0.117821
O1    O     O_R   0.137310 0.468260 0.552980 -0.509942
O2    O     O_R   0.531740 0.669050 0.552980 -0.508633
O3    O     O_R   0.330950 0.862690 0.552980 -0.509675
O4    O     O_R   0.180530 0.983530 0.965090 -0.494566
O5    O     O_R   0.016470 0.197000 0.965090 -0.495007
O6    O     O_R   0.803000 0.819470 0.965090 -0.493373
O7    O     O_R   0.174120 0.688790 0.549730 -0.498352
O8    O     O_R   0.311210 0.485330 0.549730 -0.497354
O9    O     O_R   0.514670 0.825880 0.549730 -0.497269
O10   O     O_R   0.139940 0.470480 0.446230 -0.513508
O11   O     O_R   0.529520 0.669460 0.446230 -0.512553
O12   O     O_R   0.330540 0.860060 0.446230 -0.514830
O13   O     O_R   0.176560 0.690850 0.450770 -0.511294
O14   O     O_R   0.309150 0.485710 0.450770 -0.517056
O15   O     O_R   0.514290 0.823440 0.450770 -0.515435
O16   O     O_3   0.333333 0.666667 0.499990 -0.262985
O17   O     O_3   0.000000 0.000000 0.017910 -0.288487
O18   O     O_R   0.149710 0.171070 0.967700 -0.498884
O19   O     O_R   0.828930 0.978640 0.967700 -0.498489
O20   O     O_R   0.021360 0.850290 0.967700 -0.498315
O21   O     O_R   0.178510 0.985930 0.071830 -0.490589
O22   O     O_R   0.014070 0.192580 0.071830 -0.493099
O23   O     O_R   0.807420 0.821490 0.071830 -0.494706
O24   O     O_R   0.147830 0.173300 0.066650 -0.486814
O25   O     O_R   0.826700 0.974530 0.066650 -0.487889
O26   O     O_R   0.025470 0.852170 0.066650 -0.489324
I1    I     I_    0.803522 0.114461 0.309509 -0.370727
I2    I     I_    0.885834 0.649672 0.301607 -0.402049
I3    I     I_    0.374707 0.274027 0.294606 -0.312552
I4    I     I_    0.572543 0.625057 0.243196 -0.332665
I5    I     I_    0.371013 0.995009 0.251194 -0.327028
I6    I     I_    0.012238 0.394132 0.251390 -0.322197
N1    N     N_2   0.515776 0.600570 0.355095 -0.482049
H52   H     H_    0.439772 0.574564 0.371137 0.273408
C85   C     C_3   0.575141 0.545117 0.370982 -0.217667
H53   H     H_    0.541740 0.502984 0.406450 0.139587
H54   H     H_    0.665621 0.603986 0.375242 0.174884
H55   H     H_    0.564102 0.481896 0.343636 0.211164
N2    N     N_2   0.377738 0.983924 0.367789 -0.472916
H56   H     H_    0.376207 0.025009 0.398801 0.272604
C86   C     C_3   0.475287 0.973242 0.361469 -0.226841
H57   H     H_    0.514300 0.978962 0.397404 0.160936
H58   H     H_    0.536523 0.042529 0.338554 0.202500
H59   H     H_    0.454922 0.893318 0.343847 0.155953
N3    N     N_2   0.009126 0.378811 0.370085 -0.464781
H60   H     H_    0.974774 0.332560 0.401211 0.273700
C87   C     C_3   0.003387 0.479424 0.366557 -0.222573
H61   H     H_    0.997820 0.508453 0.403563 0.149870
H62   H     H_    0.927352 0.461725 0.346223 0.208017
H63   H     H_    0.077103 0.546238 0.347516 0.167004

loop_
_geom_bond_atom_site_label_1
_geom_bond_atom_site_label_2
_ccdc_geom_bond_type
C70   H37   S    
C58   C62   S    
C63   O21   A    
C52   H22   S    
C80   H2    S    
Cr6   O26   S    
C2    C18   S    
C24   C42   A    
C15   C18   T    
C24   C27   A    
C39   I6    S    
C67   H34   S    
C6    C9    S    
C72   H39   S    
C25   C28   A    
C45   C57   A    
C33   C39   A    
Cr1   O16   S    
C5    H50   S    
C87   H63   S    
C50   C59   A    
C61   O24   A    
C35   O14   A    
C7    H43   S    
C37   C40   A    
C4    C7    S    
C5    C83   S    
C10   C73   T    
C23   C26   A    
C15   C78   S    
C69   H33   S    
C70   H40   S    
C64   H28   S    
C12   C84   S    
C45   H18   S    
C87   H62   S    
Cr4   O18   S    
N1    H52   S    
C30   I3    S    
C41   N2    S    
C26   H14   S    
C86   H57   S    
C85   H55   S    
C62   O23   A    
Cr1   O7    S    
N2    C86   S    
C3    O9    A    
Cr3   O9    S    
Cr4   O4    S    
Cr3   O12   S    
C72   H42   S    
C32   C38   A    
Cr3   O3    S    
C79   H1    S    
C52   C55   A    
Cr1   O13   S    
C80   H8    S    
C42   N3    S    
C2    O8    A    
C85   H54   S    
C87   H61   S    
C65   C80   S    
C66   H30   S    
C46   C58   A    
C27   C30   A    
C32   C56   S    
C14   C17   T    
C69   C78   S    
C35   O10   A    
C80   C83   S    
C67   H31   S    
C43   C46   A    
C53   H23   S    
Cr2   O2    S    
C48   C60   A    
C39   C42   A    
C86   H58   S    
C34   O13   A    
C65   H29   S    
Cr5   O5    S    
C66   C78   S    
C5    H11   S    
C24   C35   S    
C6    C84   S    
Cr6   O20   S    
C8    H44   S    
C50   C53   A    
Cr5   O17   S    
C21   O20   A    
C38   C41   A    
Cr2   O8    S    
C68   H32   S    
C14   C77   S    
C36   O11   A    
C81   H9    S    
C11   C83   S    
C47   C59   A    
C21   C74   S    
C10   C82   S    
C49   C58   A    
C31   C37   A    
Cr6   O23   S    
C8    H47   S    
C45   C48   A    
C86   H59   S    
C21   O4    A    
Cr6   O17   S    
C69   C72   S    
Cr2   O14   S    
Cr1   O10   S    
C37   I4    S    
Cr6   O6    S    
Cr2   O11   S    
C5    C8    S    
C65   C77   S    
C81   H3    S    
C9    H48   S    
C44   C56   A    
C13   C76   S    
C49   C52   A    
C22   C40   A    
C64   C76   S    
C20   O6    A    
C3    O2    A    
C6    H51   S    
C72   C84   S    
C9    H45   S    
C43   C55   A    
C85   H53   S    
C62   O25   A    
C22   C25   A    
C19   O5    A    
Cr4   O17   S    
C4    H10   S    
C8    C77   S    
C2    O1    A    
C64   C79   S    
C71   H38   S    
C12   C75   T    
N3    C87   S    
C81   C84   S    
N2    H56   S    
C36   O15   A    
Cr5   O19   S    
C66   H6    S    
C44   H17   S    
C68   C77   S    
C23   C34   S    
C33   C57   S    
C30   C33   A    
C49   H25   S    
C61   O22   A    
C59   C63   S    
C79   H7    S    
C28   C31   A    
C25   H13   S    
C11   C74   T    
Cr1   O1    S    
C69   H36   S    
C79   C82   S    
C44   C47   A    
C38   I5    S    
C7    C76   S    
C51   C60   A    
C29   C32   A    
C47   H20   S    
C22   C36   S    
C1    C17   S    
C23   C41   A    
C29   I2    S    
C67   C70   S    
C19   O18   A    
C51   C54   A    
C19   C75   S    
C13   C16   T    
C64   H4    S    
C7    H46   S    
C1    O3    A    
C4    H49   S    
C40   N1    S    
C68   C71   S    
Cr4   O21   S    
C54   H24   S    
C63   O26   A    
C51   H27   S    
Cr5   O22   S    
C20   C73   S    
C50   H26   S    
C9    C78   S    
C6    H12   S    
C70   C82   S    
Cr2   O16   S    
N1    C85   S    
Cr5   O25   S    
C34   O12   A    
C28   I1    S    
C71   H41   S    
Cr3   O16   S    
C65   H5    S    
C48   H21   S    
C4    C82   S    
C26   C29   A    
Cr4   O24   S    
C20   O19   A    
C46   H19   S    
C53   C56   A    
C27   H15   S    
Cr3   O15   S    
C60   C61   S    
C1    O7    A    
C71   C83   S    
C67   C76   S    
C31   C55   S    
N3    H60   S    
C68   H35   S    
C43   H16   S    
C3    C16   S    
C66   C81   S    
C54   C57   A    
