data_mof_unit_13383.cif
_audit_creation_date              2012-12-11T16:22:17-0500
_audit_creation_method            fapswitch 2.2
_symmetry_space_group_name_H-M    P1
_symmetry_Int_Tables_number       1
_space_group_crystal_system       triclinic
_cell_length_a                    19.617693
_cell_length_b                    6.928608
_cell_length_c                    17.790896
_cell_angle_alpha                 89.990717
_cell_angle_beta                  108.123512
_cell_angle_gamma                 90.0122
_cell_volume                      2298.22609656

loop_
_atom_site_label
_atom_site_type_symbol
_atom_type_description
_atom_site_fract_x
_atom_site_fract_y
_atom_site_fract_z
_atom_type_partial_charge
O1    O     O_R   0.561700 0.369960 0.440190 -0.539551
O2    O     O_R   0.061700 0.630040 0.940190 -0.539604
O3    O     O_R   0.413790 0.033680 0.407460 -0.538698
O4    O     O_R   0.913790 0.966320 0.907460 -0.538621
O5    O     O_R   0.438300 0.869760 0.559810 -0.540992
O6    O     O_R   0.938300 0.130240 0.059810 -0.541396
C1    C     C_R   0.386663 0.203837 0.384770 0.744937
C2    C     C_R   0.886667 0.796154 0.884762 0.745406
O7    O     O_R   0.559630 0.039830 0.430710 -0.543128
O8    O     O_R   0.059630 0.960170 0.930710 -0.542972
O9    O     O_R   0.585190 0.875950 0.583220 -0.537366
O10   O     O_R   0.085190 0.124050 0.083220 -0.537456
C3    C     C_R   0.580833 0.209045 0.415366 0.689767
C4    C     C_R   0.080874 0.791011 0.915411 0.689173
O11   O     O_R   0.414810 0.363770 0.416780 -0.542291
O12   O     O_R   0.914810 0.636230 0.916780 -0.542161
O13   O     O_3   0.508210 0.205480 0.550010 -0.371651
O14   O     O_3   0.008210 0.794520 0.050010 -0.371674
V1    V     V_3+5 0.498480 0.928140 0.490720 1.402908
V2    V     V_3+5 0.998480 0.071860 0.990720 1.402936
O15   O     O_R   0.586210 0.546600 0.592540 -0.544715
O16   O     O_R   0.086210 0.453400 0.092540 -0.544924
C5    C     C_R   0.613529 0.715994 0.615403 0.744496
C6    C     C_R   0.113524 0.284012 0.115412 0.743465
O17   O     O_R   0.440370 0.540460 0.569290 -0.544150
O18   O     O_R   0.940370 0.459540 0.069290 -0.543483
C7    C     C_R   0.418957 0.709186 0.584644 0.712552
C8    C     C_R   0.918970 0.290767 0.084656 0.712848
V3    V     V_3+5 0.501520 0.428910 0.509280 1.397010
V4    V     V_3+5 0.001520 0.571090 0.009280 1.397267
O19   O     O_3   0.491790 0.701440 0.449990 -0.370394
O20   O     O_3   0.991790 0.298560 0.949990 -0.370256
C9    C     C_R   0.288882 0.902169 0.686636 -0.211933
C10   C     C_R   0.787631 0.098803 0.185212 -0.213365
H1    H     H_    0.261645 0.037104 0.688496 0.167706
H2    H     H_    0.759705 0.964544 0.186299 0.163465
C11   C     C_R   0.335789 0.893099 0.641441 -0.165056
C12   C     C_R   0.834801 0.107625 0.140318 -0.164025
H3    H     H_    0.343922 0.021961 0.610830 0.138069
H4    H     H_    0.842356 0.979345 0.109040 0.137156
C13   C     C_R   0.370377 0.719517 0.634366 -0.113868
C14   C     C_R   0.870338 0.280346 0.134317 -0.106401
C15   C     C_R   0.357699 0.555903 0.674816 -0.227210
C16   C     C_R   0.858436 0.443164 0.175648 -0.252093
H5    H     H_    0.383558 0.420107 0.670484 0.133370
H6    H     H_    0.885001 0.578392 0.172088 0.134096
C17   C     C_R   0.312687 0.565402 0.722625 0.428971
C18   C     C_R   0.813041 0.433835 0.223276 0.432581
C19   C     C_R   0.276076 0.739166 0.727552 -0.019233
C20   C     C_R   0.775333 0.261285 0.226729 -0.000705
C21   C     C_R   0.177159 0.601907 0.775247 -0.104791
C22   C     C_R   0.676612 0.398541 0.274738 -0.098075
H7    H     H_    0.174793 0.474435 0.739399 0.146366
H8    H     H_    0.674301 0.526322 0.239063 0.147420
C23   C     C_R   0.130815 0.613979 0.821107 -0.189815
C24   C     C_R   0.630582 0.386512 0.320965 -0.195382
H9    H     H_    0.095248 0.494012 0.820558 0.126258
H10   H     H_    0.595257 0.506755 0.320799 0.126566
C25   C     C_R   0.129370 0.780130 0.865924 -0.046070
C26   C     C_R   0.629131 0.220074 0.365654 -0.045480
C27   C     C_R   0.175511 0.933860 0.863939 -0.165005
C28   C     C_R   0.674955 0.066029 0.363181 -0.162898
H11   H     H_    0.175921 0.063504 0.898099 0.118979
H12   H     H_    0.675365 0.936145 0.397221 0.119141
C29   C     C_R   0.223207 0.919708 0.819666 -0.162417
C30   C     C_R   0.722335 0.080117 0.318541 -0.170863
H13   H     H_    0.259377 0.038569 0.821345 0.135388
H14   H     H_    0.758290 0.961004 0.319877 0.137738
C31   C     C_R   0.225056 0.753104 0.774946 0.099609
C32   C     C_R   0.724218 0.247034 0.273979 0.099962
C33   C     C_2   0.712954 0.897095 0.710381 -0.123482
C34   C     C_2   0.212915 0.102908 0.210422 -0.124876
C35   C     C_2   0.680426 0.726841 0.683344 -0.316061
C36   C     C_2   0.180412 0.273166 0.183367 -0.317400
H15   H     H_    0.688920 0.030079 0.681897 0.138172
H16   H     H_    0.188864 0.969925 0.181949 0.138091
H17   H     H_    0.702298 0.591446 0.710741 0.125851
H18   H     H_    0.202297 0.408559 0.210758 0.125752
C37   C     C_2   0.780337 0.921136 0.778060 -0.141215
C38   C     C_2   0.280298 0.078854 0.278100 -0.142227
C39   C     C_2   0.820312 0.773692 0.817172 -0.307835
C40   C     C_2   0.320302 0.226293 0.317190 -0.308285
H19   H     H_    0.797478 0.067934 0.795611 0.133313
H20   H     H_    0.297418 0.932056 0.295665 0.133213
H21   H     H_    0.804322 0.626452 0.800053 0.132298
H22   H     H_    0.304328 0.373533 0.300060 0.132214
O21   O     O_3   0.303489 0.401166 0.762508 -0.596337
C41   C     C_3   0.351199 0.404033 0.840772 0.049798
H23   H     H_    0.320851 0.355161 0.880634 0.141873
H24   H     H_    0.372800 0.550290 0.862157 0.112452
C42   C     C_3   0.413101 0.263520 0.847951 -0.311938
H25   H     H_    0.391256 0.118404 0.826828 0.204517
H26   H     H_    0.445393 0.314299 0.810422 0.188695
C43   C     C_3   0.461726 0.247271 0.933309 -0.831191
H27   H     H_    0.485099 0.390289 0.955361 0.232688
H28   H     H_    0.506116 0.145089 0.936414 0.233133
H29   H     H_    0.430957 0.192423 0.971782 0.229283
O22   O     O_3   0.802991 0.597430 0.263126 -0.595162
C44   C     C_3   0.863693 0.631176 0.329943 0.035542
H30   H     H_    0.874875 0.788674 0.332767 0.144273
H31   H     H_    0.913804 0.558258 0.327634 0.110142
C45   C     C_3   0.847058 0.570360 0.405085 -0.297339
H32   H     H_    0.796783 0.641533 0.406840 0.200788
H33   H     H_    0.839055 0.411551 0.404519 0.196819
C46   C     C_3   0.907821 0.625268 0.479225 -0.837418
H34   H     H_    0.958483 0.553609 0.479266 0.232052
H35   H     H_    0.894241 0.578109 0.532499 0.232931
H36   H     H_    0.915723 0.784196 0.482085 0.231438

loop_
_geom_bond_atom_site_label_1
_geom_bond_atom_site_label_2
_ccdc_geom_bond_type
C30   H14   S    
O21   C41   S    
C23   C25   A    
O13   V3    S    
C34   H16   S    
V1    O19   S    
C33   C37   S    
C17   C19   A    
C3    C26   S    
C4    C25   S    
C46   H35   S    
O9    V1    S    
C12   H4    S    
C12   C14   A    
O3    C1    A    
C9    C19   A    
C34   C38   S    
C45   C46   S    
C26   C28   A    
C8    C14   S    
C2    C39   S    
C27   H11   S    
O7    C3    A    
C28   H12   S    
O13   V1    S    
O5    C7    A    
O7    V1    S    
O6    C8    A    
O8    V2    S    
C29   H13   S    
O3    V1    S    
O14   V4    S    
V4    O20   S    
C21   C23   A    
O4    C2    A    
C22   H8    S    
C18   C20   A    
C2    O12   A    
C19   C31   S    
C13   C15   A    
C43   H27   S    
C14   C16   A    
C5    C35   S    
C16   H6    S    
O11   V3    S    
O17   V3    S    
C46   H36   S    
C10   C20   A    
C25   C27   A    
C28   C30   A    
C38   H20   S    
C34   C36   D    
O8    C4    A    
C42   H25   S    
C37   C39   D    
C1    O11   A    
C43   H29   S    
C40   H22   S    
O15   V3    S    
C9    C11   A    
C24   C26   A    
C21   H7    S    
C17   O21   S    
C43   H28   S    
C42   H26   S    
C7    C13   S    
C44   H30   S    
C41   C42   S    
O10   V2    S    
O1    V3    S    
C45   H33   S    
C15   H5    S    
C38   C40   D    
C44   H31   S    
C41   H24   S    
O18   V4    S    
O15   C5    A    
O16   C6    A    
O1    C3    A    
C1    C40   S    
O12   V4    S    
O6    V2    S    
C33   C35   D    
V2    O20   S    
O16   V4    S    
C10   C12   A    
O5    V1    S    
O4    V2    S    
O17   C7    A    
C18   O22   S    
C46   H34   S    
O10   C6    A    
O18   C8    A    
O2    V4    S    
C23   H9    S    
C20   C32   S    
C11   H3    S    
C42   C43   S    
C33   H15   S    
C6    C36   S    
C30   C32   A    
C22   C24   A    
C29   C31   A    
O9    C5    A    
C9    H1    S    
C10   H2    S    
C24   H10   S    
O14   V2    S    
C11   C13   A    
C45   H32   S    
O2    C4    A    
C22   C32   A    
C37   H19   S    
C27   C29   A    
C44   C45   S    
C41   H23   S    
V3    O19   S    
O22   C44   S    
C36   H18   S    
C35   H17   S    
C21   C31   A    
C15   C17   A    
C39   H21   S    
C16   C18   A    
