data_mof_unit_45096.cif
_audit_creation_date              2012-12-10T16:52:40-0500
_audit_creation_method            fapswitch 2.2
_symmetry_space_group_name_H-M    P1
_symmetry_Int_Tables_number       1
_space_group_crystal_system       triclinic
_cell_length_a                    13.006462
_cell_length_b                    10.940911
_cell_length_c                    9.710283
_cell_angle_alpha                 88.862312
_cell_angle_beta                  97.378842
_cell_angle_gamma                 90.556826
_cell_volume                      1370.0488752

loop_
_atom_site_label
_atom_site_type_symbol
_atom_type_description
_atom_site_fract_x
_atom_site_fract_y
_atom_site_fract_z
_atom_type_partial_charge
C1    C     C_R   0.496048 0.265647 0.500702 0.838674
C2    C     C_R   0.029324 0.527673 0.561057 0.156767
C3    C     C_R   0.970642 0.479795 0.442411 0.121705
C4    C     C_R   0.863660 0.470189 0.436073 -0.235688
C5    C     C_R   0.872155 0.558095 0.665650 -0.030610
C6    C     C_R   0.979919 0.566495 0.672172 -0.237638
C7    C     C_2   0.464111 0.936686 0.392147 -0.107182
C8    C     C_2   0.514105 0.866681 0.496256 0.258207
C9    C     C_2   0.478423 0.069352 0.388352 -0.178186
C10   C     C_2   0.482455 0.134540 0.503736 -0.247101
C11   C     C_2   0.452011 0.417396 0.916380 0.028684
C12   C     C_R   0.300132 0.499306 0.472678 0.842079
C13   C     C_2   0.458515 0.413238 0.072853 -0.099391
C14   C     C_R   0.500613 0.734491 0.498563 0.729910
C15   C     C_R   0.699649 0.503162 0.527545 0.781082
C16   C     C_R   0.813225 0.509655 0.545822 -0.108367
C17   C     C_R   0.186283 0.496935 0.455540 -0.125376
C18   C     C_R   0.019045 0.442646 0.330433 -0.317897
C19   C     C_R   0.127199 0.454652 0.332813 0.457261
C20   C     C_R   0.136572 0.535135 0.567214 -0.325174
Cu1   Cu    Cu3+1 0.500020 0.500020 0.638640 0.980665
Cu2   Cu    Cu3+1 0.499980 0.499980 0.361360 0.975634
H1    H     H_    0.819313 0.432385 0.344207 0.163728
H2    H     H_    0.471005 0.091705 0.602496 0.209842
H3    H     H_    0.547279 0.560713 0.900727 0.204820
H4    H     H_    0.424164 0.334910 0.120467 0.170311
H5    H     H_    0.526224 0.576252 0.108507 0.202860
H6    H     H_    0.971765 0.403502 0.242207 0.131541
H7    H     H_    0.025091 0.604600 0.763235 0.137162
H8    H     H_    0.181602 0.570808 0.659707 0.175719
H9    H     H_    0.480853 0.114178 0.287868 0.165648
N1    N     N_2   0.498860 0.498660 0.846770 -0.298103
N2    N     N_2   0.498840 0.498630 0.152900 -0.276383
O1    O     O_R   0.500020 0.321960 0.617050 -0.571747
O2    O     O_R   0.499980 0.321920 0.382890 -0.580065
O3    O     O_R   0.349010 0.500000 0.598060 -0.586835
O4    O     O_R   0.348980 0.499950 0.363910 -0.519178
O5    O     O_R   0.500020 0.678080 0.617110 -0.549983
O6    O     O_R   0.499980 0.678040 0.382950 -0.597665
O7    O     O_R   0.651020 0.500050 0.636090 -0.568564
O8    O     O_R   0.650990 0.500000 0.401940 -0.576638
C21   C     C_1   0.390065 0.323552 0.843074 0.320684
N3    N     N_1   0.339840 0.247988 0.785125 -0.306389
C22   C     C_1   0.824985 0.603629 0.781134 0.240698
N4    N     N_1   0.787381 0.640211 0.873772 -0.299502
O9    O     O_3   0.178016 0.416361 0.223545 -0.566709
C23   C     C_3   0.120759 0.442815 0.092466 0.065460
H10   H     H_    0.085893 0.535795 0.087940 0.145772
H11   H     H_    0.059443 0.372355 0.067263 0.151149
C24   C     C_3   0.192306 0.437386 0.981645 -0.757815
H12   H     H_    0.229271 0.346289 0.987313 0.250919
H13   H     H_    0.147452 0.450112 0.877373 0.199863
H14   H     H_    0.252445 0.510184 0.997957 0.251943
C25   C     C_1   0.395896 0.885346 0.277563 0.231920
N5    N     N_1   0.341387 0.844457 0.186081 -0.265348
O10   O     O_3   0.580664 0.918965 0.602662 -0.578460
C26   C     C_3   0.683805 0.888003 0.587862 0.083091
H15   H     H_    0.703157 0.915778 0.483060 0.137501
H16   H     H_    0.696628 0.788079 0.604425 0.140651
C27   C     C_3   0.757233 0.954851 0.696126 -0.740380
H17   H     H_    0.740693 0.928013 0.802033 0.258797
H18   H     H_    0.838624 0.930895 0.685732 0.198996
H19   H     H_    0.747518 0.055207 0.681262 0.242631

loop_
_geom_bond_atom_site_label_1
_geom_bond_atom_site_label_2
_ccdc_geom_bond_type
C12   C17   S    
C4    C16   A    
C22   N4    T    
C24   H13   S    
C13   N2    D    
C14   O5    A    
C9    C10   D    
C23   H10   S    
C8    O10   S    
H3    N1    S    
C2    C3    A    
C14   O6    A    
C19   O9    S    
C7    C8    D    
C23   H11   S    
Cu1   O3    S    
C20   H8    S    
Cu1   Cu2   S    
H5    N2    S    
Cu2   O2    S    
C11   C13   S    
C15   O8    A    
C26   H15   S    
C2    C6    A    
Cu1   O7    S    
C11   C21   S    
C27   H19   S    
Cu2   O6    S    
C17   C19   A    
C5    C22   S    
C1    O1    A    
C24   H12   S    
C23   C24   S    
C5    C6    A    
C15   O7    A    
Cu1   N1    S    
C13   H4    S    
C26   H16   S    
C24   H14   S    
C12   O3    A    
C21   N3    T    
C9    H9    S    
C2    C20   A    
C15   C16   S    
Cu2   O8    S    
C26   C27   S    
C17   C20   A    
C18   H6    S    
O10   C26   S    
C1    O2    A    
C3    C18   A    
C27   H18   S    
C18   C19   A    
C6    H7    S    
C12   O4    A    
C7    C9    S    
Cu2   N2    S    
O9    C23   S    
Cu1   O5    S    
C5    C16   A    
C8    C14   S    
Cu1   O1    S    
C7    C25   S    
C10   H2    S    
C4    H1    S    
C25   N5    T    
Cu2   O4    S    
C1    C10   S    
C3    C4    A    
C27   H17   S    
C11   N1    D    
