data_mof_unit_50928.cif
_audit_creation_date              2012-12-10T19:01:18-0500
_audit_creation_method            fapswitch 2.2
_symmetry_space_group_name_H-M    P1
_symmetry_Int_Tables_number       1
_space_group_crystal_system       triclinic
_cell_length_a                    9.540598
_cell_length_b                    10.81898
_cell_length_c                    15.393251
_cell_angle_alpha                 89.474516
_cell_angle_beta                  74.764524
_cell_angle_gamma                 90.268069
_cell_volume                      1532.93544225

loop_
_atom_site_label
_atom_site_type_symbol
_atom_type_description
_atom_site_fract_x
_atom_site_fract_y
_atom_site_fract_z
_atom_type_partial_charge
C1    C     C_R   0.998699 0.262322 0.502416 0.835706
C2    C     C_R   0.678051 0.479634 0.909958 0.087582
C3    C     C_R   0.778291 0.511927 0.959641 0.157565
C4    C     C_R   0.530238 0.455061 0.955759 0.064718
C5    C     C_R   0.480449 0.479664 0.049499 0.080488
C6    C     C_R   0.583802 0.512528 0.096640 -0.205127
C7    C     C_R   0.730253 0.526008 0.052583 -0.209756
C8    C     C_R   0.431854 0.403055 0.911426 -0.210643
C9    C     C_R   0.288287 0.379538 0.956834 -0.213044
C10   C     C_R   0.236292 0.409971 0.047152 0.075615
C11   C     C_R   0.329889 0.464794 0.093672 0.099340
C12   C     C_R   0.918598 0.499698 0.672454 0.779930
C13   C     C_R   0.091606 0.383492 0.091769 -0.213364
C14   C     C_R   0.035622 0.412735 0.182128 0.380662
C15   C     C_R   0.269402 0.502296 0.182890 -0.302750
C16   C     C_R   0.121526 0.064335 0.507385 0.110316
C17   C     C_R   0.993826 0.129471 0.514277 -0.183704
C18   C     C_R   0.860787 0.065326 0.540327 -0.202188
C19   C     C_R   0.857984 0.936163 0.546954 0.384250
C20   C     C_R   0.991364 0.870454 0.520980 -0.215818
C21   C     C_R   0.120525 0.937395 0.509820 0.092085
C22   C     C_3   0.261694 0.930649 0.439459 -0.452056
C23   C     C_R   0.997564 0.737584 0.505656 0.804580
C24   C     C_3   0.262603 0.070884 0.436906 -0.425308
C25   C     C_R   0.588129 0.599996 0.467561 0.301053
C26   C     C_R   0.556444 0.408056 0.541326 -0.073412
C27   C     C_R   0.407448 0.408272 0.541604 -0.086129
C28   C     C_R   0.441409 0.598672 0.465805 0.271948
C29   C     C_3   0.479841 0.644726 0.370807 -0.523920
C30   C     C_3   0.636374 0.653105 0.374939 -0.493899
C31   C     C_R   0.081092 0.494328 0.327460 0.825550
C32   C     C_R   0.874249 0.499238 0.771467 -0.049900
C33   C     C_R   0.125209 0.473994 0.228925 -0.157683
C34   C     C_R   0.925607 0.531068 0.915519 -0.206469
C35   C     C_R   0.973609 0.523624 0.821985 -0.192875
C36   C     C_R   0.728238 0.476982 0.815626 -0.248318
Cu1   Cu    Cu3+1 0.140670 0.499980 0.500000 0.946213
Cu2   Cu    Cu3+1 0.859330 0.500020 0.500000 0.953932
H1    H     H_    0.806076 0.549710 0.091447 0.150005
H2    H     H_    0.021500 0.337754 0.056632 0.164904
H3    H     H_    0.758909 0.114787 0.554602 0.173922
H4    H     H_    0.349094 0.892061 0.467006 0.208955
H5    H     H_    0.250100 0.888808 0.375971 0.190891
H6    H     H_    0.350442 0.112462 0.462660 0.201209
H7    H     H_    0.251650 0.110380 0.372061 0.202500
H8    H     H_    0.598081 0.332482 0.573420 0.136558
H9    H     H_    0.337667 0.332954 0.574040 0.141877
H10   H     H_    0.462761 0.572745 0.323817 0.208420
H11   H     H_    0.332898 0.554454 0.218172 0.154694
H12   H     H_    0.432737 0.735701 0.362295 0.196327
H13   H     H_    0.709247 0.591959 0.326545 0.197275
H14   H     H_    0.676298 0.749800 0.375047 0.214360
H15   H     H_    0.217296 0.337124 0.920799 0.147373
H16   H     H_    0.003255 0.553837 0.953281 0.142917
H17   H     H_    0.087255 0.540571 0.789167 0.158271
H18   H     H_    0.654169 0.462350 0.774611 0.151425
H19   H     H_    0.555718 0.523309 0.168578 0.143618
H20   H     H_    0.464027 0.373550 0.842396 0.137887
N1    N     N_R   0.648210 0.500930 0.499430 -0.189543
N2    N     N_R   0.352300 0.500890 0.499430 -0.187016
O1    O     O_R   0.118810 0.319640 0.500000 -0.582762
O2    O     O_R   0.881230 0.319680 0.499990 -0.581214
O3    O     O_R   0.055580 0.499970 0.629840 -0.584444
O4    O     O_R   0.818000 0.500010 0.629830 -0.592511
O5    O     O_R   0.118770 0.680320 0.500010 -0.573539
O6    O     O_R   0.881190 0.680360 0.500000 -0.568147
O7    O     O_R   0.182000 0.499990 0.370170 -0.576059
O8    O     O_R   0.944420 0.500030 0.370160 -0.577670
O9    O     O_3   0.724270 0.878960 0.575988 -0.729358
H21   H     H_    0.735698 0.805669 0.612484 0.331465
O10   O     O_3   0.897057 0.372455 0.223063 -0.721379
H22   H     H_    0.843408 0.444346 0.253323 0.323617

loop_
_geom_bond_atom_site_label_1
_geom_bond_atom_site_label_2
_ccdc_geom_bond_type
C8    C9    A    
C30   H13   S    
C16   C21   A    
C14   O10   S    
C19   C20   A    
C4    C8    A    
C1    O2    A    
C14   C33   A    
C25   C28   A    
C31   O7    A    
C26   C27   A    
Cu1   Cu2   S    
C24   H7    S    
C32   C36   A    
C23   O6    A    
C28   C29   S    
C5    C11   A    
C3    C7    A    
C27   N2    A    
C5    C6    A    
C12   O4    A    
C27   H9    S    
C34   C35   A    
C13   H2    S    
C8    H20   S    
C11   C15   A    
Cu2   O6    S    
C16   C17   A    
Cu1   O5    S    
C31   C33   S    
C26   N1    A    
C16   C24   S    
C21   C22   S    
C12   C32   S    
C6    H19   S    
Cu1   O3    S    
Cu2   O4    S    
C29   H12   S    
C28   N2    A    
C31   O8    A    
C29   H10   S    
C35   H17   S    
C32   C35   A    
C18   H3    S    
C12   O3    A    
C18   C19   A    
C3    C34   A    
C2    C4    A    
C29   C30   S    
C36   H18   S    
C22   H5    S    
C20   C23   S    
C17   C18   A    
Cu2   O8    S    
C34   H16   S    
C24   H6    S    
C22   C24   S    
C19   O9    S    
C9    H15   S    
C9    C10   A    
C2    C36   A    
C25   C30   S    
C30   H14   S    
C4    C5    A    
C10   C13   A    
C1    O1    A    
Cu1   O1    S    
C6    C7    A    
C1    C17   S    
C23   O5    A    
C2    C3    A    
O10   H22   S    
C22   H4    S    
Cu1   O7    S    
C15   H11   S    
O9    H21   S    
Cu1   N2    S    
C10   C11   A    
C26   H8    S    
Cu2   N1    S    
C20   C21   A    
C7    H1    S    
C25   N1    A    
C13   C14   A    
C15   C33   A    
Cu2   O2    S    
