data_mof_unit_27145.cif
_audit_creation_date              2012-12-10T17:24:15-0500
_audit_creation_method            fapswitch 2.2
_symmetry_space_group_name_H-M    P1
_symmetry_Int_Tables_number       1
_space_group_crystal_system       triclinic
_cell_length_a                    19.350735
_cell_length_b                    10.882209
_cell_length_c                    9.569917
_cell_angle_alpha                 91.019138
_cell_angle_beta                  90.241855
_cell_angle_gamma                 92.770126
_cell_volume                      2012.52178507

loop_
_atom_site_label
_atom_site_type_symbol
_atom_type_description
_atom_site_fract_x
_atom_site_fract_y
_atom_site_fract_z
_atom_type_partial_charge
C1    C     C_R   0.505031 0.263311 0.499286 0.812993
C2    C     C_R   0.291756 0.500622 0.499659 -0.078685
C3    C     C_R   0.930467 0.509974 0.507874 0.398189
C4    C     C_R   0.070215 0.502374 0.503059 0.438816
C5    C     C_R   0.816459 0.522901 0.634896 -0.006325
C6    C     C_R   0.744269 0.518990 0.630474 -0.217756
C7    C     C_R   0.708603 0.505812 0.502695 -0.052250
C8    C     C_R   0.746107 0.498341 0.378163 -0.179006
C9    C     C_R   0.818146 0.501476 0.381513 -0.155707
C10   C     C_R   0.854241 0.512161 0.509265 0.008158
C11   C     C_R   0.563290 0.129389 0.735148 -0.188390
C12   C     C_R   0.367576 0.499939 0.499786 0.813971
C13   C     C_R   0.564627 0.076146 0.866418 0.032282
C14   C     C_R   0.532796 0.960414 0.884528 -0.176803
C15   C     C_R   0.505018 0.894159 0.769715 -0.180329
C16   C     C_R   0.508567 0.942527 0.632899 0.077970
C17   C     C_R   0.528397 0.068184 0.621382 0.077093
C18   C     C_R   0.510052 0.129957 0.498939 -0.118160
C19   C     C_R   0.484998 0.063481 0.381847 -0.236678
C20   C     C_R   0.477056 0.936451 0.383845 -0.034709
C21   C     C_R   0.491372 0.873063 0.507945 -0.163713
C22   C     C_R   0.594570 0.659670 0.147575 -0.212666
C23   C     C_R   0.495826 0.737800 0.502077 0.780956
C24   C     C_R   0.642930 0.733595 0.077398 -0.241209
C25   C     C_R   0.643518 0.734383 0.931948 0.275603
C26   C     C_R   0.594543 0.659110 0.859478 -0.251510
C27   C     C_R   0.546462 0.578481 0.927145 0.166670
C28   C     C_R   0.546454 0.578548 0.076602 0.237384
C29   C     C_R   0.456040 0.424793 0.072110 -0.044684
C30   C     C_R   0.456053 0.424833 0.923995 -0.050706
C31   C     C_R   0.632540 0.501540 0.500430 0.770488
C32   C     C_R   0.257116 0.541830 0.618368 -0.243230
C33   C     C_R   0.184866 0.541560 0.620809 0.250308
C34   C     C_R   0.146322 0.500031 0.501892 -0.024884
C35   C     C_R   0.181461 0.458021 0.382217 -0.047113
C36   C     C_R   0.253689 0.459424 0.381704 -0.219263
Cu1   Cu    Cu3+1 0.500000 0.499990 0.640660 0.926519
Cu2   Cu    Cu3+1 0.500000 0.500010 0.359340 0.957001
H1    H     H_    0.286149 0.575692 0.709394 0.158803
H2    H     H_    0.589143 0.219025 0.723373 0.161555
H3    H     H_    0.530017 0.920602 0.987362 0.163342
H4    H     H_    0.477181 0.809135 0.793454 0.187980
H5    H     H_    0.420091 0.363181 0.126057 0.126985
H6    H     H_    0.597569 0.670559 0.257781 0.209788
H7    H     H_    0.679002 0.791375 0.138849 0.162995
H8    H     H_    0.595819 0.668645 0.749650 0.204658
H9    H     H_    0.420108 0.363218 0.866956 0.140840
H10   H     H_    0.280217 0.426016 0.289982 0.152448
H11   H     H_    0.715944 0.527207 0.727452 0.165975
H12   H     H_    0.719847 0.488992 0.278081 0.170466
H13   H     H_    0.845683 0.493333 0.283725 0.170619
H14   H     H_    0.469839 0.111058 0.288664 0.166555
N1    N     N_R   0.035467 0.547442 0.393263 -0.220759
N2    N     N_R   0.966834 0.550853 0.395469 -0.223731
N3    N     N_R   0.965328 0.463852 0.616846 -0.215996
N4    N     N_R   0.033878 0.460425 0.614668 -0.198221
N5    N     N_R   0.500660 0.501210 0.147910 -0.186040
N6    N     N_R   0.500680 0.501290 0.852040 -0.193985
O1    O     O_R   0.499990 0.319640 0.618810 -0.585713
O2    O     O_R   0.500000 0.319660 0.381240 -0.573060
O3    O     O_R   0.400140 0.499970 0.618820 -0.582584
O4    O     O_R   0.400150 0.500000 0.381250 -0.576499
O5    O     O_R   0.500000 0.680340 0.618760 -0.613924
O6    O     O_R   0.500010 0.680360 0.381190 -0.583371
O7    O     O_R   0.599850 0.500000 0.618750 -0.603903
O8    O     O_R   0.599860 0.500030 0.381180 -0.592374
C37   C     C_1   0.594591 0.143854 0.984301 0.196031
N7    N     N_1   0.618519 0.198356 0.079073 -0.280407
C38   C     C_1   0.448567 0.875423 0.259340 0.267149
N8    N     N_1   0.425561 0.826679 0.159944 -0.298362
N9    N     N_2   0.692521 0.808574 0.854519 -0.428366
H15   H     H_    0.677994 0.828984 0.754006 0.247144
C39   C     C_3   0.734784 0.904033 0.925309 -0.637493
H16   H     H_    0.767492 0.954325 0.847932 0.228563
H17   H     H_    0.769820 0.862829 0.001746 0.236565
H18   H     H_    0.701585 0.970452 0.978745 0.229043
N10   N     N_2   0.151362 0.589709 0.740405 -0.428043
H19   H     H_    0.170487 0.676733 0.768863 0.253203
C40   C     C_3   0.148629 0.508177 0.858200 -0.584466
H20   H     H_    0.201493 0.496096 0.900066 0.201916
H21   H     H_    0.124649 0.416916 0.827087 0.252664
H22   H     H_    0.116779 0.548315 0.942068 0.248160
C41   C     C_1   0.144641 0.407708 0.260930 0.255440
N11   N     N_1   0.115118 0.366989 0.164030 -0.275139
C42   C     C_1   0.849772 0.542491 0.769397 0.273455
N12   N     N_1   0.876247 0.558332 0.877320 -0.250535

loop_
_geom_bond_atom_site_label_1
_geom_bond_atom_site_label_2
_ccdc_geom_bond_type
C31   O8    A    
N3    N4    A    
C16   C21   A    
C4    N1    A    
C39   H16   S    
C19   C20   A    
C9    H13   S    
C2    C12   S    
C7    C8    A    
N1    N2    A    
C26   C27   A    
Cu1   Cu2   S    
C24   H7    S    
C34   C35   A    
C1    O1    A    
C42   N12   T    
C5    C6    A    
C3    N2    A    
C15   C16   A    
C2    C32   A    
C18   C19   A    
C32   H1    S    
C3    N3    A    
C19   H14   S    
C22   H6    S    
Cu2   O8    S    
C8    C9    A    
Cu1   O7    S    
C25   N9    S    
C9    C10   A    
Cu1   N6    S    
N10   H19   S    
C5    C42   S    
C23   O5    A    
C22   C28   A    
C13   C14   A    
C29   H5    S    
C39   H17   S    
C11   H2    S    
Cu1   O5    S    
C33   C34   A    
Cu2   O6    S    
N10   C40   S    
C4    C34   S    
C7    C31   S    
C37   N7    T    
C30   H9    S    
C24   C25   A    
C1    O2    A    
N9    C39   S    
C35   C41   S    
C16   C17   A    
C25   C26   A    
C28   N5    A    
C35   C36   A    
C29   C30   A    
Cu2   N5    S    
C12   O4    A    
C41   N11   T    
C17   C18   A    
C1    C18   S    
Cu1   O1    S    
C14   H3    S    
Cu2   O2    S    
C23   O6    A    
C29   N5    A    
C21   C23   S    
C39   H18   S    
C22   C24   A    
C20   C38   S    
C8    H12   S    
C40   H21   S    
C13   C37   S    
C2    C36   A    
C31   O7    A    
C11   C17   A    
C15   H4    S    
C27   N6    A    
C40   H22   S    
Cu1   O3    S    
C6    C7    A    
C32   C33   A    
C5    C10   A    
C3    C10   S    
C12   O3    A    
C11   C13   A    
C33   N10   S    
C30   N6    A    
C36   H10   S    
C6    H11   S    
C38   N8    T    
C26   H8    S    
C40   H20   S    
N9    H15   S    
C20   C21   A    
C27   C28   A    
C14   C15   A    
C4    N4    A    
Cu2   O4    S    
