data_mof_unit_13889.cif
_audit_creation_date              2012-12-10T17:19:57-0500
_audit_creation_method            fapswitch 2.2
_symmetry_space_group_name_H-M    P1
_symmetry_Int_Tables_number       1
_space_group_crystal_system       triclinic
_cell_length_a                    9.617738
_cell_length_b                    10.858453
_cell_length_c                    15.519592
_cell_angle_alpha                 87.383441
_cell_angle_beta                  73.830064
_cell_angle_gamma                 91.160177
_cell_volume                      1554.11071205

loop_
_atom_site_label
_atom_site_type_symbol
_atom_type_description
_atom_site_fract_x
_atom_site_fract_y
_atom_site_fract_z
_atom_type_partial_charge
C1    C     C_R   0.002843 0.263569 0.492314 0.801487
C2    C     C_R   0.679664 0.530206 0.908221 0.095141
C3    C     C_R   0.778291 0.498956 0.958140 0.165970
C4    C     C_R   0.532724 0.552887 0.954093 0.066682
C5    C     C_R   0.484225 0.532731 0.049183 0.064994
C6    C     C_R   0.587690 0.507169 0.096443 -0.221496
C7    C     C_R   0.731726 0.490781 0.051525 -0.242478
C8    C     C_R   0.432674 0.594983 0.908348 -0.224108
C9    C     C_R   0.288236 0.610057 0.953589 -0.239376
C10   C     C_R   0.237183 0.581366 0.045460 0.168302
C11   C     C_R   0.334000 0.540419 0.093990 0.091342
C12   C     C_R   0.917991 0.500833 0.671947 0.806266
C13   C     C_R   0.089758 0.593265 0.089468 -0.216557
C14   C     C_R   0.036466 0.563220 0.181171 -0.211676
C15   C     C_R   0.276377 0.506340 0.185636 -0.253620
C16   C     C_R   0.277045 0.130979 0.423451 -0.153316
C17   C     C_R   0.406023 0.076300 0.425006 -0.150874
C18   C     C_R   0.402021 0.960517 0.467432 -0.147628
C19   C     C_R   0.270555 0.894295 0.499911 -0.173374
C20   C     C_R   0.139656 0.943089 0.489843 0.094348
C21   C     C_R   0.141623 0.069483 0.464287 0.100152
C22   C     C_R   0.008274 0.130363 0.482146 -0.120255
C23   C     C_R   0.000954 0.737846 0.503211 0.782280
C24   C     C_R   0.877865 0.061490 0.502636 -0.216009
C25   C     C_R   0.877977 0.934252 0.509782 -0.204005
C26   C     C_R   0.006922 0.873039 0.504359 -0.115178
C27   C     C_R   0.702873 0.660010 0.376954 -0.165909
C28   C     C_R   0.660282 0.737997 0.315645 0.163385
C29   C     C_R   0.516072 0.737768 0.316491 -0.207974
C30   C     C_R   0.415011 0.661342 0.378041 -0.198202
C31   C     C_R   0.454426 0.578784 0.439678 0.176153
C32   C     C_R   0.603877 0.578297 0.439287 0.123629
C33   C     C_R   0.542932 0.425456 0.559036 0.253682
C34   C     C_R   0.082365 0.503204 0.328006 0.772069
C35   C     C_R   0.396273 0.425671 0.557338 -0.065544
C36   C     C_R   0.873139 0.504088 0.770291 -0.052973
C37   C     C_R   0.130151 0.520713 0.229786 -0.044500
C38   C     C_R   0.922735 0.474786 0.914064 -0.213443
C39   C     C_R   0.970005 0.477580 0.820701 -0.192862
C40   C     C_R   0.730386 0.532250 0.813975 -0.258195
Cu1   Cu    Cu3+1 0.140660 0.499990 0.500010 0.917933
Cu2   Cu    Cu3+1 0.859340 0.500010 0.499990 0.926573
H1    H     H_    0.016037 0.627352 0.053060 0.141413
H2    H     H_    0.774926 0.105848 0.513929 0.160068
H3    H     H_    0.508659 0.125524 0.395950 0.137915
H4    H     H_    0.501282 0.920809 0.473856 0.143529
H5    H     H_    0.274617 0.808160 0.536149 0.174009
H6    H     H_    0.775384 0.883834 0.521875 0.165427
H7    H     H_    0.814234 0.667551 0.373574 0.205500
H8    H     H_    0.342866 0.466860 0.224477 0.151433
H9    H     H_    0.480749 0.799166 0.270301 0.166806
H10   H     H_    0.315262 0.366564 0.604389 0.147299
H11   H     H_    0.923054 0.575600 0.214146 0.163310
H12   H     H_    0.998488 0.451007 0.951880 0.143903
H13   H     H_    0.081246 0.456234 0.788144 0.153243
H14   H     H_    0.659975 0.552383 0.772646 0.144108
H15   H     H_    0.462760 0.620275 0.837547 0.143018
N1    N     N_R   0.648320 0.501210 0.499140 -0.192276
N2    N     N_R   0.352470 0.501290 0.499110 -0.215839
O1    O     O_R   0.118810 0.319640 0.500010 -0.583194
O2    O     O_R   0.881240 0.319660 0.500000 -0.583738
O3    O     O_R   0.055570 0.499980 0.629840 -0.582285
O4    O     O_R   0.818000 0.500010 0.629830 -0.577501
O5    O     O_R   0.118760 0.680340 0.500000 -0.610871
O6    O     O_R   0.881190 0.680360 0.499990 -0.597353
O7    O     O_R   0.182000 0.499990 0.370170 -0.603907
O8    O     O_R   0.944430 0.500020 0.370160 -0.597363
H16   H     H_    0.806574 0.468907 0.090388 0.150707
H17   H     H_    0.284833 0.220910 0.389195 0.157027
C41   C     C_3   0.573428 0.344346 0.632691 -0.791874
H18   H     H_    0.481503 0.278190 0.663642 0.177004
H19   H     H_    0.667128 0.286608 0.608484 0.256079
H20   H     H_    0.585639 0.400887 0.687703 0.231967
C42   C     C_3   0.767679 0.823420 0.249811 -0.881781
H21   H     H_    0.878718 0.815200 0.257304 0.227136
H22   H     H_    0.770419 0.801189 0.180225 0.240438
H23   H     H_    0.735117 0.920307 0.260669 0.240337
H24   H     H_    0.306892 0.673000 0.375536 0.215054
H25   H     H_    0.215432 0.642760 0.915974 0.148851
H26   H     H_    0.561682 0.501569 0.168698 0.151565

loop_
_geom_bond_atom_site_label_1
_geom_bond_atom_site_label_2
_ccdc_geom_bond_type
C16   C21   A    
C34   C37   S    
Cu1   Cu2   S    
C19   C20   A    
C32   N1    A    
C4    C8    A    
C28   C42   S    
Cu2   N1    S    
C33   N1    A    
C42   H22   S    
C28   C29   A    
C17   H3    S    
C5    C11   A    
C3    C7    A    
C5    C6    A    
C19   H5    S    
C23   C26   S    
C35   N2    A    
C18   C19   A    
C9    H25   S    
C15   H8    S    
C31   N2    A    
C15   C37   A    
C7    H16   S    
C11   C15   A    
C39   H13   S    
C3    C38   A    
C8    C9    A    
C40   H14   S    
C42   H23   S    
Cu2   O6    S    
C41   H18   S    
C12   C36   S    
C9    C10   A    
C1    C22   S    
C21   C22   A    
C34   O7    A    
Cu1   O3    S    
C18   H4    S    
C38   C39   A    
C42   H21   S    
C36   C40   A    
C24   C25   A    
Cu1   N2    S    
C1    O1    A    
C12   O4    A    
C16   C17   A    
C25   C26   A    
C2    C4    A    
C29   C30   A    
C8    H15   S    
C12   O3    A    
C6    H26   S    
C31   C32   A    
C38   H12   S    
C41   H20   S    
C17   C18   A    
Cu2   O2    S    
Cu1   O7    S    
C33   C41   S    
C23   O5    A    
Cu2   O8    S    
C24   H2    S    
C22   C24   A    
C13   H1    S    
C29   H9    S    
C27   C32   A    
C36   C39   A    
C16   H17   S    
Cu1   O1    S    
C4    C5    A    
C10   C13   A    
C1    O2    A    
C34   O8    A    
C6    C7    A    
C23   O6    A    
C2    C3    A    
C14   C37   A    
C35   H10   S    
C30   C31   A    
C20   C26   A    
C33   C35   A    
C10   C11   A    
C30   H24   S    
C2    C40   A    
C14   H11   S    
C20   C21   A    
C27   C28   A    
C41   H19   S    
Cu1   O5    S    
C13   C14   A    
C25   H6    S    
Cu2   O4    S    
C27   H7    S    
