data_mof_unit_56923.cif
_audit_creation_date              2012-12-11T15:09:04-0500
_audit_creation_method            fapswitch 2.2
_symmetry_space_group_name_H-M    P1
_symmetry_Int_Tables_number       1
_space_group_crystal_system       triclinic
_cell_length_a                    25.970804
_cell_length_b                    27.579683
_cell_length_c                    8.357219
_cell_angle_alpha                 90.0
_cell_angle_beta                  96.053086
_cell_angle_gamma                 89.990123
_cell_volume                      5952.62205788

loop_
_atom_site_label
_atom_site_type_symbol
_atom_type_description
_atom_site_fract_x
_atom_site_fract_y
_atom_site_fract_z
_atom_type_partial_charge
Ba1   Ba    Ba6+2 0.999910 0.465960 0.844870 1.661922
Ba2   Ba    Ba6+2 0.999910 0.534040 0.344870 1.652731
Ba3   Ba    Ba6+2 0.499910 0.965960 0.844870 1.655771
Ba4   Ba    Ba6+2 0.499910 0.034040 0.344870 1.657569
C1    C     C_3   0.045136 0.241879 0.639379 -0.272009
C2    C     C_R   0.845225 0.642042 0.599095 -0.135721
C3    C     C_3   0.517335 0.210222 0.100116 0.325726
C4    C     C_R   0.914491 0.383213 0.298339 -0.302841
C5    C     C_R   0.914592 0.616837 0.798140 -0.301565
C6    C     C_R   0.414612 0.883187 0.298222 -0.301839
C7    C     C_R   0.414487 0.116828 0.798199 -0.302096
C8    C     C_R   0.345042 0.858130 0.099660 -0.135450
C9    C     C_R   0.344652 0.141699 0.600192 -0.135104
C10   C     C_R   0.834200 0.317812 0.195743 -0.024213
C11   C     C_R   0.834237 0.682210 0.695616 -0.023562
C12   C     C_R   0.333875 0.818128 0.196659 -0.023662
C13   C     C_R   0.333354 0.181614 0.697467 -0.023945
C14   C     C_R   0.863357 0.312278 0.347473 -0.074096
C15   C     C_R   0.863404 0.687743 0.847333 -0.074158
C16   C     C_R   0.363107 0.812600 0.348277 -0.073792
C17   C     C_3   0.044890 0.758286 0.139150 -0.276351
C18   C     C_R   0.362704 0.187194 0.848881 -0.072368
C19   C     C_R   0.902783 0.345339 0.399236 0.021026
C20   C     C_R   0.902855 0.654699 0.899049 0.020198
C21   C     C_R   0.402769 0.845444 0.399432 0.020788
C22   C     C_R   0.402555 0.154483 0.899628 0.019373
C23   C     C_R   0.795914 0.233167 0.177260 -0.056702
C24   C     C_R   0.795651 0.766745 0.678435 -0.066443
C25   C     C_R   0.294586 0.733911 0.183207 -0.053536
C26   C     C_R   0.293656 0.265689 0.684853 -0.050109
C27   C     C_R   0.253925 0.701634 0.136683 -0.052240
C28   C     C_3   0.545091 0.741870 0.638268 -0.276901
C29   C     C_R   0.252894 0.297875 0.638404 -0.034360
C30   C     C_R   0.755480 0.200720 0.129383 -0.039906
C31   C     C_R   0.755138 0.799137 0.630889 -0.036680
C32   C     C_R   0.207927 0.717738 0.048003 0.048039
C33   C     C_R   0.206955 0.281716 0.549472 0.050818
C34   C     C_R   0.708912 0.217028 0.044615 0.048648
C35   C     C_R   0.708750 0.782876 0.545005 0.048695
C36   C     C_R   0.203907 0.767386 0.008792 -0.069000
C37   C     C_R   0.203076 0.232062 0.510243 -0.066729
C38   C     C_R   0.704212 0.266893 0.009352 -0.072858
C39   C     C_3   0.544899 0.258156 0.137875 -0.276229
C40   C     C_R   0.704258 0.733072 0.508628 -0.078209
C41   C     C_R   0.744623 0.299347 0.057407 -0.064085
C42   C     C_R   0.744721 0.700648 0.556569 -0.062434
C43   C     C_R   0.244478 0.799741 0.056186 -0.064575
C44   C     C_R   0.243768 0.199789 0.557555 -0.056231
C45   C     C_3   0.978183 0.292797 0.068985 0.295239
C46   C     C_3   0.978903 0.707623 0.567173 0.303380
C47   C     C_3   0.478789 0.792505 0.067174 0.303292
C48   C     C_3   0.478643 0.207448 0.567077 0.302979
C49   C     C_R   0.791170 0.283044 0.142240 0.041166
C50   C     C_R   0.884939 0.390861 0.151168 0.063280
C51   C     C_R   0.791133 0.716931 0.642268 0.044887
C52   C     C_R   0.290579 0.783540 0.143991 0.042560
C53   C     C_R   0.289845 0.216074 0.645319 0.041207
C54   C     C_R   0.135866 0.688223 0.842416 -0.100968
C55   C     C_R   0.134996 0.311226 0.342854 -0.024249
C56   C     C_R   0.636348 0.187908 0.840416 -0.098553
C57   C     C_R   0.636431 0.812178 0.340252 -0.103893
C58   C     C_R   0.096697 0.654934 0.790356 0.007120
C59   C     C_R   0.097454 0.345742 0.287341 0.032149
C60   C     C_R   0.596951 0.154787 0.789003 0.007846
C61   C     C_R   0.885008 0.609172 0.651039 0.063880
C62   C     C_R   0.597042 0.845303 0.288766 0.006968
C63   C     C_R   0.114059 0.609995 0.039747 0.079287
C64   C     C_R   0.114975 0.390942 0.536116 0.074475
C65   C     C_R   0.614915 0.109436 0.037357 0.063954
C66   C     C_R   0.614716 0.890476 0.537547 0.077747
C67   C     C_R   0.153461 0.643158 0.092193 -0.130895
C68   C     C_R   0.153372 0.357048 0.590743 -0.077879
C69   C     C_R   0.654687 0.142344 0.088880 -0.141196
C70   C     C_R   0.654348 0.857447 0.589428 -0.059951
C71   C     C_R   0.164763 0.683019 0.994795 -0.032768
C72   C     C_R   0.384981 0.890871 0.151199 0.063864
C73   C     C_R   0.164009 0.316592 0.495066 -0.003979
C74   C     C_R   0.665747 0.182330 0.991737 -0.017554
C75   C     C_R   0.665587 0.817579 0.492023 -0.009977
C76   C     C_R   0.085061 0.617083 0.891377 -0.310500
C77   C     C_R   0.086947 0.384594 0.385878 -0.306354
C78   C     C_R   0.585430 0.116867 0.890002 -0.307525
C79   C     C_R   0.585391 0.883151 0.389866 -0.320507
C80   C     C_3   0.949549 0.244944 0.035129 0.364899
C81   C     C_3   0.950719 0.755708 0.533195 0.360908
C82   C     C_3   0.450478 0.744488 0.033352 0.360754
C83   C     C_R   0.384802 0.109096 0.651311 0.063305
C84   C     C_3   0.450236 0.255422 0.533131 0.360013
C85   C     C_3   0.158042 0.468974 0.166626 0.189862
C86   C     C_3   0.148410 0.532027 0.711500 0.298889
C87   C     C_3   0.647863 0.967798 0.208957 0.295398
C88   C     C_3   0.648391 0.031651 0.713875 0.303002
C89   C     C_3   0.204212 0.450312 0.082236 0.316101
C90   C     C_3   0.190443 0.566545 0.665234 0.299030
C91   C     C_3   0.691894 0.933999 0.173431 0.350962
C92   C     C_3   0.691753 0.066217 0.678090 0.300715
C93   C     C_3   0.852298 0.531270 0.968906 0.306378
C94   C     C_R   0.845157 0.357992 0.099241 -0.135511
C95   C     C_3   0.852240 0.468772 0.468901 0.306354
C96   C     C_3   0.352147 0.031224 0.969032 0.305390
C97   C     C_3   0.352274 0.968741 0.468931 0.306182
C98   C     C_3   0.803580 0.562284 0.951616 -0.372663
C99   C     C_3   0.803518 0.437777 0.451855 -0.372644
C100  C     C_3   0.303372 0.062160 0.952281 -0.370910
C101  C     C_3   0.303527 0.937783 0.451765 -0.372191
C102  C     C_3   0.017483 0.289718 0.600506 0.326005
C103  C     C_3   0.017415 0.710315 0.101205 0.325912
C104  C     C_3   0.517472 0.789777 0.600329 0.326114
H1    H     H_    0.041419 0.318833 0.662922 0.049983
H2    H     H_    0.179675 0.604428 0.690459 -0.081884
H3    H     H_    0.475121 0.196161 0.693114 -0.026734
H4    H     H_    0.959272 0.229507 0.919313 0.071677
H5    H     H_    0.960857 0.771212 0.417961 0.071054
H6    H     H_    0.460581 0.728922 0.918138 0.071131
H7    H     H_    0.460388 0.271031 0.418050 0.071836
H8    H     H_    0.159309 0.453899 0.289902 0.070116
H9    H     H_    0.146750 0.533009 0.843210 -0.039596
H10   H     H_    0.642342 0.966325 0.338223 0.000457
H11   H     H_    0.644280 0.031740 0.844170 -0.016045
H12   H     H_    0.121156 0.457404 0.099283 0.039146
H13   H     H_    0.679800 0.895765 0.185216 -0.073346
H14   H     H_    0.111111 0.545154 0.649417 -0.002194
H15   H     H_    0.612339 0.954593 0.136578 -0.010095
H16   H     H_    0.612184 0.045392 0.646487 -0.013235
H17   H     H_    0.266107 0.375047 0.401835 0.371723
H18   H     H_    0.242043 0.598714 0.980315 0.320426
H19   H     H_    0.772651 0.922211 0.553166 0.387022
H20   H     H_    0.738152 0.081519 0.023518 0.320320
H21   H     H_    0.936486 0.189878 0.422738 0.374583
H22   H     H_    0.936459 0.810454 0.920105 0.373604
H23   H     H_    0.436373 0.689913 0.420905 0.373939
H24   H     H_    0.681127 0.103840 0.706963 -0.091306
H25   H     H_    0.435974 0.309800 0.920999 0.376597
H26   H     H_    0.867261 0.528184 0.850358 0.009960
H27   H     H_    0.867129 0.471861 0.350243 0.010098
H28   H     H_    0.366994 0.028183 0.850295 0.010006
H29   H     H_    0.367214 0.971809 0.350346 0.010025
H30   H     H_    0.881522 0.548973 0.056538 0.063447
H31   H     H_    0.881507 0.451052 0.556380 0.063307
H32   H     H_    0.381419 0.048943 0.056469 0.063001
H33   H     H_    0.041365 0.681377 0.164691 0.058892
H34   H     H_    0.381502 0.951022 0.556533 0.063243
H35   H     H_    0.774114 0.545824 0.861843 0.134690
H36   H     H_    0.773999 0.454266 0.362291 0.134714
H37   H     H_    0.273854 0.045673 0.862732 0.134900
H38   H     H_    0.274060 0.954268 0.362028 0.135053
H39   H     H_    0.812392 0.599251 0.911075 0.058163
H40   H     H_    0.812298 0.400816 0.411161 0.058354
H41   H     H_    0.312067 0.099144 0.911730 0.059097
H42   H     H_    0.312288 0.900805 0.411246 0.058157
H43   H     H_    0.787508 0.565015 0.069310 0.132156
H44   H     H_    0.541426 0.818774 0.663394 0.053971
H45   H     H_    0.787529 0.435029 0.569674 0.132064
H46   H     H_    0.287420 0.064835 0.070177 0.132728
H47   H     H_    0.287477 0.935085 0.569500 0.132156
H48   H     H_    0.014581 0.295477 0.468162 0.003068
H49   H     H_    0.014673 0.704291 0.968990 0.011643
H50   H     H_    0.514578 0.795748 0.468083 0.011108
H51   H     H_    0.514452 0.204207 0.967896 0.010985
H52   H     H_    0.083936 0.242637 0.594981 0.060565
H53   H     H_    0.083726 0.757509 0.094865 0.070524
H54   H     H_    0.583855 0.742691 0.593582 0.066157
H55   H     H_    0.541320 0.181259 0.163308 0.059273
H56   H     H_    0.583672 0.257336 0.093246 0.069200
H57   H     H_    0.050019 0.235892 0.771465 0.146534
H58   H     H_    0.049714 0.764540 0.271132 0.144396
H59   H     H_    0.550067 0.735688 0.770247 0.144326
H60   H     H_    0.549850 0.264386 0.269830 0.144040
H61   H     H_    0.907153 0.251630 0.025058 -0.033125
H62   H     H_    0.908259 0.749318 0.522049 -0.031317
H63   H     H_    0.408031 0.750993 0.022200 -0.030650
H64   H     H_    0.407804 0.248842 0.521674 -0.030105
H65   H     H_    0.175684 0.637259 0.207514 0.098703
H66   H     H_    0.235821 0.477593 0.093592 0.161619
H67   H     H_    0.175104 0.362656 0.707039 0.112548
H68   H     H_    0.677207 0.136324 0.203666 0.091416
H69   H     H_    0.676723 0.863372 0.704506 0.088545
H70   H     H_    0.259122 0.663802 0.168302 0.094221
H71   H     H_    0.258047 0.335775 0.669511 0.116152
H72   H     H_    0.761184 0.162619 0.156605 0.096386
H73   H     H_    0.760648 0.837165 0.659316 0.104910
H74   H     H_    0.831312 0.218967 0.239970 0.134938
H75   H     H_    0.830926 0.780953 0.741852 0.131919
H76   H     H_    0.329582 0.719710 0.248351 0.131936
H77   H     H_    0.193937 0.563404 0.534284 0.072856
H78   H     H_    0.328620 0.279979 0.749897 0.135327
H79   H     H_    0.822656 0.364115 0.984507 0.089491
H80   H     H_    0.822731 0.635906 0.484367 0.089426
H81   H     H_    0.322560 0.864278 0.984929 0.089040
H82   H     H_    0.322102 0.135503 0.485609 0.089601
H83   H     H_    0.168914 0.781536 0.943406 0.091493
H84   H     H_    0.168160 0.217842 0.444676 0.085650
H85   H     H_    0.668811 0.281097 0.946583 0.091042
H86   H     H_    0.668980 0.718885 0.445079 0.091586
H87   H     H_    0.738896 0.337485 0.030603 0.075498
H88   H     H_    0.700918 0.939633 0.047675 0.074827
H89   H     H_    0.739129 0.662549 0.528950 0.075144
H90   H     H_    0.239197 0.837728 0.026362 0.075081
H91   H     H_    0.238629 0.161805 0.527520 0.074658
H92   H     H_    0.144916 0.716930 0.761626 0.093295
H93   H     H_    0.143009 0.281614 0.264195 0.101693
H94   H     H_    0.645207 0.216767 0.759919 0.091687
H95   H     H_    0.645404 0.783399 0.259600 0.092528
H96   H     H_    0.854293 0.283480 0.427926 0.099100
H97   H     H_    0.854309 0.716501 0.927900 0.098160
H98   H     H_    0.353909 0.784023 0.429349 0.097044
H99   H     H_    0.696958 0.064655 0.547906 0.076795
H100  H     H_    0.353444 0.215694 0.930166 0.103688
H101  H     H_    0.055419 0.591116 0.849653 0.069166
H102  H     H_    0.058321 0.411300 0.342268 0.068991
H103  H     H_    0.555448 0.091143 0.849064 0.069355
H104  H     H_    0.555472 0.908927 0.348745 0.070087
H105  H     H_    0.022568 0.211382 0.580843 0.178995
H106  H     H_    0.022227 0.788638 0.079888 0.179558
H107  H     H_    0.522452 0.711466 0.579410 0.179850
H108  H     H_    0.522232 0.288526 0.078854 0.179426
H109  H     H_    0.944514 0.408861 0.339616 0.067109
H110  H     H_    0.192734 0.445191 0.952004 0.053576
H111  H     H_    0.944612 0.591181 0.839441 0.067480
H112  H     H_    0.444758 0.908743 0.339217 0.067486
H113  H     H_    0.444768 0.091367 0.838929 0.067449
H114  H     H_    0.959008 0.320174 0.985406 0.039575
H115  H     H_    0.959421 0.680322 0.483951 0.039122
H116  H     H_    0.459413 0.819806 0.983722 0.039482
H117  H     H_    0.459333 0.180116 0.483642 0.039654
H118  H     H_    0.974790 0.304129 0.194999 -0.029735
H119  H     H_    0.975402 0.696427 0.693319 -0.026347
H120  H     H_    0.475275 0.803793 0.193220 -0.026565
O1    O     O_2   0.898940 0.431940 0.867860 -0.461062
O2    O     O_3   0.031151 0.712336 0.539201 -0.587415
O3    O     O_3   0.531044 0.787614 0.039477 -0.587233
O4    O     O_3   0.530899 0.212394 0.539469 -0.587799
O5    O     O_3   0.058810 0.523750 0.066650 -0.499253
O6    O     O_3   0.058810 0.476250 0.566650 -0.492977
O7    O     O_3   0.558810 0.023750 0.066650 -0.496950
O8    O     O_3   0.558810 0.976250 0.566650 -0.499164
O9    O     O_3   0.941140 0.476130 0.123050 -0.494164
O10   O     O_3   0.941140 0.523870 0.623050 -0.494815
O11   O     O_3   0.441140 0.976130 0.123050 -0.494720
O12   O     O_2   0.898940 0.568060 0.367860 -0.460924
O13   O     O_3   0.441140 0.023870 0.623050 -0.494852
O14   O     O_3   0.982430 0.389880 0.635700 -0.497169
O15   O     O_3   0.982430 0.610120 0.135700 -0.494838
O16   O     O_3   0.482430 0.889880 0.635700 -0.496227
O17   O     O_3   0.482430 0.110120 0.135700 -0.495317
O18   O     O_2   0.897851 0.349493 0.730916 -0.494449
O19   O     O_2   0.897747 0.650451 0.230598 -0.494135
O20   O     O_2   0.397880 0.849498 0.731117 -0.494487
O21   O     O_2   0.397879 0.150481 0.231380 -0.493088
O22   O     O_3   0.839281 0.485358 0.022628 -0.631657
O23   O     O_2   0.398940 0.931940 0.867860 -0.461011
O24   O     O_3   0.839261 0.514687 0.522723 -0.631717
O25   O     O_3   0.339235 0.985289 0.022775 -0.631596
O26   O     O_3   0.339285 0.014661 0.522642 -0.631526
O27   O     O_3   0.968014 0.288263 0.654589 -0.586693
O28   O     O_3   0.967864 0.711771 0.154675 -0.589379
O29   O     O_3   0.467995 0.788259 0.654319 -0.588400
O30   O     O_3   0.467852 0.211738 0.154069 -0.588402
O31   O     O_2   0.100770 0.431440 0.821660 -0.486454
O32   O     O_2   0.100770 0.568560 0.321660 -0.458419
O33   O     O_2   0.600770 0.931440 0.821660 -0.478995
O34   O     O_2   0.398940 0.068060 0.367860 -0.460957
O35   O     O_2   0.600770 0.068560 0.321660 -0.469032
O36   O     O_3   0.017130 0.389790 0.053700 -0.500951
O37   O     O_3   0.017130 0.610210 0.553700 -0.493521
O38   O     O_3   0.517130 0.889790 0.053700 -0.493141
O39   O     O_3   0.517130 0.110210 0.553700 -0.493446
O40   O     O_2   0.099370 0.347554 0.951371 -0.442659
O41   O     O_2   0.101022 0.651674 0.457116 -0.489080
O42   O     O_2   0.600683 0.848189 0.955254 -0.492248
O43   O     O_2   0.600673 0.151855 0.455575 -0.487224
O44   O     O_2   0.199671 0.352863 0.104936 -0.315541
O45   O     O_3   0.160565 0.484851 0.665412 -0.601009
O46   O     O_2   0.285123 0.390062 0.109084 -0.238851
O47   O     O_3   0.237550 0.397647 0.366338 -0.530779
O48   O     O_2   0.267440 0.502505 0.748152 -0.190795
O49   O     O_2   0.291962 0.587337 0.716180 -0.239009
O50   O     O_3   0.248828 0.563574 0.971551 -0.506416
O51   O     O_2   0.791897 0.912877 0.254725 -0.248833
O52   O     O_2   0.764894 0.996171 0.306520 -0.168911
O53   O     O_3   0.737908 0.927799 0.495059 -0.534256
O54   O     O_2   0.772208 0.004669 0.736976 -0.167889
O55   O     O_2   0.790507 0.091281 0.769106 -0.248932
O56   O     O_3   0.163690 0.519435 0.180489 -0.627952
O57   O     O_3   0.743872 0.047821 0.988967 -0.448741
O58   O     O_2   0.944001 0.153280 0.137842 -0.225228
O59   O     O_2   0.022926 0.198403 0.231199 -0.275895
O60   O     O_3   0.938049 0.219551 0.356701 -0.568686
O61   O     O_2   0.023977 0.801417 0.731909 -0.275131
O62   O     O_2   0.945680 0.847297 0.637099 -0.231902
O63   O     O_3   0.938438 0.780771 0.854382 -0.569138
O64   O     O_2   0.445267 0.652937 0.137427 -0.228296
O65   O     O_2   0.523618 0.698684 0.232351 -0.276357
O66   O     O_3   0.438063 0.719513 0.354558 -0.568242
O67   O     O_3   0.660743 0.984689 0.666609 -0.572565
O68   O     O_2   0.523133 0.301353 0.732535 -0.276248
O69   O     O_2   0.444667 0.346932 0.637353 -0.232039
O70   O     O_3   0.437563 0.280272 0.854267 -0.566342
O71   O     O_3   0.660675 0.015277 0.168551 -0.590560
O72   O     O_3   0.030390 0.287509 0.041516 -0.595043
P1    P     P_3+3 0.893960 0.447890 0.040050 0.986433
P2    P     P_3+3 0.062524 0.657072 0.585300 0.958848
P3    P     P_3+3 0.562503 0.842899 0.084405 0.958734
P4    P     P_3+3 0.562434 0.157142 0.584573 0.960013
P5    P     P_3+3 0.936735 0.656706 0.104321 0.952748
P6    P     P_3+3 0.936766 0.343288 0.604391 0.952509
P7    P     P_3+3 0.436680 0.156642 0.104505 0.954926
P8    P     P_3+3 0.436760 0.843318 0.604476 0.952842
P9    P     P_3+3 0.893960 0.552110 0.540050 0.986556
P10   P     P_3+3 0.393960 0.947890 0.040050 0.986643
P11   P     P_3+3 0.393960 0.052110 0.540050 0.986813
P12   P     P_3+3 0.105800 0.447360 0.649510 1.010628
P13   P     P_3+3 0.105800 0.552640 0.149510 1.000316
P14   P     P_3+3 0.605800 0.947360 0.649510 1.025254
P15   P     P_3+3 0.605800 0.052640 0.149510 1.007014
P16   P     P_3+3 0.062265 0.342756 0.083645 0.994812
S1    S     S_3+6 0.232160 0.395432 0.164250 -0.075938
S2    S     S_3+6 0.251960 0.554176 0.774312 -0.009887
S3    S     S_3+6 0.749109 0.943748 0.307874 0.011760
S4    S     S_3+6 0.751875 0.052042 0.792704 0.023070
S5    S     S_3+6 0.965208 0.201942 0.192325 -0.059896
S6    S     S_3+6 0.966297 0.798398 0.691327 -0.062374
S7    S     S_3+6 0.465947 0.701804 0.191615 -0.060925
S8    S     S_3+6 0.465480 0.298099 0.691529 -0.061567

loop_
_geom_bond_atom_site_label_1
_geom_bond_atom_site_label_2
_ccdc_geom_bond_type
C95   C99   S    
C89   S1    S    
C45   H114  S    
C90   H77   S    
C91   S3    S    
C39   H60   S    
H18   O50   S    
O15   P5    S    
C64   C77   A    
C24   H75   S    
O16   P8    S    
O41   P2    D    
C3    H51   S    
C2    H80   S    
C96   C100  S    
C4    C19   A    
Ba3   O13   S    
Ba3   O7    S    
C28   H107  S    
O1    P1    D    
C8    C12   A    
Ba1   O5    S    
Ba3   O33   S    
O32   P13   D    
C66   C70   A    
C43   H90   S    
C82   S7    S    
C98   H43   S    
C103  H49   S    
C40   C42   A    
C83   P11   S    
C62   P3    S    
C44   H91   S    
Ba3   P14   S    
C97   H29   S    
O28   P5    S    
C34   C74   S    
C3    H55   S    
C17   H58   S    
C14   C19   A    
C38   C41   A    
C94   H79   S    
C8    H81   S    
O50   S2    S    
Ba2   O5    S    
C85   H12   S    
C12   C16   A    
C1    H105  S    
C87   H10   S    
C18   H100  S    
C80   H4    S    
C56   H94   S    
C70   C75   A    
H17   O47   S    
C88   H11   S    
C13   C18   A    
C23   C49   A    
O42   P3    D    
C31   H73   S    
C55   C59   A    
C7    C22   A    
C56   C60   A    
C55   C73   A    
C61   P9    S    
O36   P16   S    
O72   P16   S    
C50   P1    S    
C101  H38   S    
Ba4   O11   S    
C97   O26   S    
O29   P8    S    
C5    C61   A    
Ba4   O17   S    
O30   P7    S    
O40   P16   D    
Ba4   O34   S    
C47   H120  S    
C27   C32   A    
C19   P6    S    
C91   H88   S    
C92   S4    S    
O3    P3    S    
O64   S7    D    
C44   C53   A    
O4    P4    S    
O56   P13   S    
Ba4   O39   S    
C36   H83   S    
C88   O67   S    
C56   C74   A    
C45   C80   S    
C58   C76   A    
Ba3   O23   S    
Ba4   P11   S    
O9    P1    S    
C88   C92   S    
O53   S3    S    
C68   H67   S    
C20   P5    S    
O54   S4    D    
C65   C78   A    
C24   C31   A    
C7    C83   A    
O14   P6    S    
C28   H54   S    
H22   O63   S    
H25   O70   S    
C90   S2    S    
C3    C39   S    
C103  H33   S    
C39   H56   S    
O20   P8    D    
O57   S4    S    
C41   C49   A    
Ba3   O38   S    
C87   H15   S    
O70   S8    S    
Ba4   O8    S    
C95   H31   S    
C104  O29   S    
C39   H108  S    
O35   P15   D    
C10   C94   A    
C27   H70   S    
C47   O3    S    
C48   C84   S    
C9    H82   S    
C11   C51   S    
C42   C51   A    
C38   H85   S    
C12   C52   S    
C32   C71   S    
C98   H39   S    
O31   P12   D    
C1    H52   S    
C9    C83   A    
O49   S2    D    
C72   P10   S    
C6    C21   A    
C101  H47   S    
Ba1   P12   S    
C102  H48   S    
Ba3   P10   S    
Ba3   Ba4   S    
O59   S5    D    
C85   O56   S    
O60   S5    S    
O25   P10   S    
C79   H104  S    
Ba2   O9    S    
O12   P9    D    
C9    C13   A    
C80   S5    S    
C84   H7    S    
C81   H5    S    
C5    H111  S    
O13   P11   S    
C57   C75   A    
C46   O2    S    
Ba3   O16   S    
C85   C89   S    
Ba1   O14   S    
C87   C91   S    
O24   P9    S    
C10   C49   S    
O66   S7    S    
O44   S1    D    
C76   H101  S    
C14   H96   S    
C96   H28   S    
C43   C52   A    
C102  H1    S    
C54   C58   A    
C25   H76   S    
C29   H71   S    
C65   P15   S    
C30   H72   S    
O39   P4    S    
O21   P7    D    
C11   C15   A    
C101  H42   S    
O33   P14   D    
C59   P16   S    
H20   O57   S    
C88   H16   S    
C16   C21   A    
C26   C53   A    
C47   C82   S    
C46   C81   S    
C62   C79   A    
C104  H44   S    
Ba2   O6    S    
C2    C61   A    
O10   P9    S    
Ba2   P9    S    
C65   C69   A    
O2    P2    S    
C93   C98   S    
C26   C29   A    
C91   H13   S    
C77   H102  S    
O37   P2    S    
C7    H113  S    
C46   H119  S    
O43   P4    D    
C100  H37   S    
Ba4   P15   S    
C86   C90   S    
C1    C102  S    
C46   H115  S    
C58   P2    S    
C42   H89   S    
O63   S6    S    
O67   P14   S    
C33   C73   S    
C90   H2    S    
C29   C33   A    
H23   O66   S    
C35   C75   S    
C100  H41   S    
C31   C35   A    
C86   H9    S    
O26   P11   S    
Ba3   O8    S    
Ba1   O36   S    
C87   O71   S    
Ba1   O6    S    
Ba2   P13   S    
C95   H27   S    
O46   S1    D    
C66   C79   A    
O6    P12   S    
C35   C40   A    
O18   P6    D    
O23   P10   D    
C8    C72   A    
C66   P14   S    
C96   O25   S    
O7    P15   S    
C63   C76   A    
C95   O24   S    
C92   H99   S    
C93   O22   S    
C25   C52   A    
C81   H62   S    
C69   H68   S    
C15   C20   A    
Ba2   O12   S    
C70   H69   S    
O47   S1    S    
O65   S7    D    
C63   C67   A    
C81   S6    S    
O58   S5    D    
O55   S4    D    
C18   C22   A    
C28   H59   S    
O38   P3    S    
C64   P12   S    
C3    O30   S    
C100  H46   S    
O11   P10   S    
C13   C53   S    
C54   C71   A    
Ba1   O31   S    
C97   H34   S    
C41   H87   S    
C36   C43   A    
Ba2   O32   S    
C84   H64   S    
C60   P4    S    
C10   C14   A    
C16   H98   S    
O34   P11   D    
C99   H36   S    
O62   S6    D    
C6    H112  S    
C54   H92   S    
C59   C77   A    
C26   H78   S    
C34   C38   A    
C104  H50   S    
C89   H66   S    
Ba1   Ba2   S    
O5    P13   S    
C96   H32   S    
C2    C11   A    
O27   P6    S    
C6    C72   A    
C57   C62   A    
C99   H45   S    
C63   P13   S    
C69   C74   A    
C4    H109  S    
C1    H57   S    
Ba2   O15   S    
C47   H116  S    
C64   C68   A    
C92   H24   S    
O51   S3    D    
C85   H8    S    
C22   P7    S    
C33   C37   A    
C86   H14   S    
Ba1   P1    S    
C93   H26   S    
C24   C51   A    
O61   S6    D    
O69   S8    D    
C23   C30   A    
C97   C101  S    
C17   H53   S    
C82   H63   S    
C32   C36   A    
C80   H61   S    
C4    C50   A    
C48   O4    S    
O19   P5    D    
C48   H3    S    
Ba2   O37   S    
C67   H65   S    
C89   H110  S    
C45   O72   S    
C68   C73   A    
Ba1   O1    S    
C55   H93   S    
O45   P12   S    
C60   C78   A    
C17   C103  S    
O8    P14   S    
O68   S8    D    
Ba4   O7    S    
C98   H35   S    
C93   H30   S    
C78   H103  S    
C84   S8    S    
C37   H84   S    
C30   C34   A    
C102  O27   S    
H21   O60   S    
C99   H40   S    
C5    C20   A    
O71   P15   S    
Ba1   O10   S    
O52   S3    D    
O22   P1    S    
C40   H86   S    
C82   H6    S    
H19   O53   S    
C23   H74   S    
C25   C27   A    
C57   H95   S    
C67   C71   A    
Ba4   O35   S    
C37   C44   A    
C103  O28   S    
C86   O45   S    
O48   S2    D    
C21   P8    S    
O17   P7    S    
C48   H117  S    
C28   C104  S    
C15   H97   S    
C17   H106  S    
C50   C94   A    
C45   H118  S    
