data_mof_unit_47292.cif
_audit_creation_date              2012-12-11T14:54:31-0500
_audit_creation_method            fapswitch 2.2
_symmetry_space_group_name_H-M    P1
_symmetry_Int_Tables_number       1
_space_group_crystal_system       triclinic
_cell_length_a                    19.077425
_cell_length_b                    10.987961
_cell_length_c                    18.795915
_cell_angle_alpha                 89.761163
_cell_angle_beta                  90.387097
_cell_angle_gamma                 90.874864
_cell_volume                      3939.45555431

loop_
_atom_site_label
_atom_site_type_symbol
_atom_type_description
_atom_site_fract_x
_atom_site_fract_y
_atom_site_fract_z
_atom_type_partial_charge
C1    C     C_R   0.730246 0.376186 0.646109 0.538606
C2    C     C_R   0.294630 0.844700 0.460618 0.212268
C3    C     C_R   0.930831 0.565867 0.483316 -0.126878
C4    C     C_R   0.200568 0.340718 0.540160 0.232618
C5    C     C_R   0.794633 0.344704 0.460620 0.211719
C6    C     C_R   0.712326 0.820131 0.468192 -0.106598
C7    C     C_R   0.292658 0.834859 0.534610 -0.124554
C8    C     C_R   0.212330 0.320121 0.468193 -0.106481
C9    C     C_R   0.792661 0.334861 0.534612 -0.123724
C10   C     C_R   0.777058 0.847627 0.437536 -0.022748
C11   C     C_R   0.250109 0.911559 0.574805 -0.046348
C12   C     C_R   0.277061 0.347618 0.437537 -0.022686
C13   C     C_R   0.288368 0.329977 0.361564 0.531830
C14   C     C_R   0.750115 0.411564 0.574807 -0.044990
C15   C     C_R   0.832099 0.889467 0.480180 -0.100791
C16   C     C_R   0.212519 0.002613 0.541879 -0.158834
C17   C     C_R   0.332101 0.389457 0.480182 -0.100797
C18   C     C_R   0.712530 0.502627 0.541883 -0.158863
C19   C     C_R   0.821317 0.914446 0.551340 -0.138821
C20   C     C_R   0.211076 0.009909 0.469166 -0.185476
C21   C     C_R   0.321318 0.414440 0.551342 -0.138417
C22   C     C_R   0.711087 0.509926 0.469170 -0.185514
C23   C     C_R   0.754470 0.899366 0.581335 0.000781
C24   C     C_R   0.230245 0.876186 0.646110 0.547966
C25   C     C_R   0.252337 0.933593 0.427307 -0.007175
C26   C     C_R   0.254471 0.399365 0.581335 0.001028
C27   C     C_R   0.752342 0.433602 0.427310 -0.007445
C28   C     C_R   0.530679 0.058609 0.974382 0.229918
C29   C     C_R   0.535088 0.082569 0.046905 0.241387
C30   C     C_R   0.028136 0.557605 0.973874 0.225174
C31   C     C_R   0.033174 0.581769 0.046284 0.235353
C32   C     C_R   0.492338 0.171383 0.074421 0.021365
C33   C     C_R   0.508005 0.152470 0.927727 -0.034308
C34   C     C_R   0.991398 0.671482 0.073958 0.013326
C35   C     C_R   0.788366 0.829980 0.361564 0.531638
C36   C     C_R   0.006539 0.652391 0.927121 -0.046990
C37   C     C_R   0.458490 0.252303 0.028265 -0.130594
C38   C     C_R   0.470764 0.248534 0.955438 -0.161795
C39   C     C_R   0.958305 0.753668 0.027952 -0.139058
C40   C     C_R   0.970969 0.750572 0.955093 -0.179717
C41   C     C_R   0.530867 0.155242 0.647266 0.546239
C42   C     C_R   0.437059 0.150371 0.360874 0.521348
C43   C     C_R   0.030866 0.655242 0.647267 0.546593
C44   C     C_R   0.937057 0.650371 0.360874 0.520971
C45   C     C_R   0.815331 0.975872 0.964842 0.208516
C46   C     C_3   0.548616 0.331760 0.443230 -0.240306
C47   C     C_R   0.175188 0.916216 0.045532 0.207145
C48   C     C_R   0.316817 0.473549 0.963732 0.199993
C49   C     C_R   0.682928 0.430215 0.039661 0.191191
C50   C     C_R   0.816300 0.950834 0.035759 -0.088175
C51   C     C_R   0.167838 0.871851 0.977008 -0.124411
C52   C     C_R   0.316841 0.450457 0.035093 -0.093654
C53   C     C_R   0.679632 0.399348 0.969034 -0.112208
C54   C     C_R   0.778789 0.853772 0.064655 0.001662
C55   C     C_R   0.225704 0.864088 0.933198 -0.003494
C56   C     C_R   0.279494 0.353091 0.064250 0.003151
C57   C     C_3   0.568740 0.336694 0.521443 -0.243535
C58   C     C_R   0.739426 0.403235 0.926729 0.003214
C59   C     C_R   0.738225 0.778446 0.020127 -0.092000
C60   C     C_R   0.292420 0.893220 0.958835 -0.095461
C61   C     C_R   0.240113 0.276139 0.019508 -0.089472
C62   C     C_R   0.804870 0.425834 0.956513 -0.112289
C63   C     C_R   0.730988 0.808979 0.948095 -0.111553
C64   C     C_R   0.302336 0.914217 0.030499 -0.179616
C65   C     C_R   0.232894 0.306200 0.947338 -0.103139
C66   C     C_R   0.810775 0.436071 0.029635 -0.171433
C67   C     C_R   0.764637 0.913903 0.921155 0.020053
C68   C     C_3   0.048596 0.831788 0.443233 -0.239970
C69   C     C_R   0.244114 0.925784 0.075029 0.003870
C70   C     C_R   0.265875 0.411716 0.920309 0.023247
C71   C     C_R   0.750004 0.438335 0.072006 0.005053
C72   C     C_R   0.741442 0.965700 0.648045 0.547557
C73   C     C_R   0.258944 0.969954 0.353058 0.554690
C74   C     C_R   0.241442 0.465701 0.648044 0.549314
C75   C     C_R   0.758946 0.469957 0.353060 0.555726
C76   C     C_R   0.729045 0.377030 0.852599 0.546930
C77   C     C_R   0.288973 0.330964 0.140256 0.533920
C78   C     C_R   0.212873 0.835726 0.859577 0.554910
C79   C     C_3   0.068722 0.836719 0.521446 -0.243741
C80   C     C_R   0.788865 0.831003 0.140317 0.532562
C81   C     C_R   0.532811 0.154451 0.854057 0.552195
C82   C     C_R   0.466957 0.158445 0.146523 0.611740
C83   C     C_R   0.032405 0.654455 0.853814 0.541993
C84   C     C_R   0.966547 0.658477 0.146269 0.609710
C85   C     C_R   0.743714 0.967938 0.852927 0.553116
C86   C     C_R   0.257816 0.972437 0.145763 0.547167
C87   C     C_R   0.244031 0.467088 0.852544 0.548551
C88   C     C_R   0.758896 0.474687 0.145004 0.555280
C89   C     C_R   0.453111 0.158382 0.436607 0.010266
C90   C     C_R   0.700567 0.840721 0.540161 0.232780
C91   C     C_R   0.490775 0.166938 0.581454 0.031012
C92   C     C_R   0.953107 0.658382 0.436608 0.010321
C93   C     C_R   0.990772 0.666938 0.581455 0.030247
C94   C     C_R   0.484771 0.262167 0.465653 -0.012761
C95   C     C_R   0.502774 0.266897 0.536728 -0.004868
C96   C     C_R   0.984759 0.762172 0.465656 -0.012725
C97   C     C_R   0.002763 0.766901 0.536731 -0.004887
C98   C     C_R   0.448928 0.070174 0.555649 -0.098490
C99   C     C_R   0.430828 0.065874 0.483316 -0.127053
C100  C     C_R   0.948929 0.570168 0.555649 -0.099297
Cr1   Cr    Cr6+3 0.771950 0.169480 0.750100 1.109061
Cr2   Cr    Cr6+3 0.383410 0.010620 0.249390 1.137808
Cr3   Cr    Cr6+3 0.116590 0.510620 0.750610 1.157319
Cr4   Cr    Cr6+3 0.883410 0.510620 0.249390 1.138729
Cr5   Cr    Cr6+3 0.228050 0.169480 0.249900 1.124381
Cr6   Cr    Cr6+3 0.271950 0.669480 0.750100 1.104833
Cr7   Cr    Cr6+3 0.728050 0.669480 0.249900 1.120703
Cr8   Cr    Cr6+3 0.614930 0.323340 0.749170 1.068361
Cr9   Cr    Cr6+3 0.385070 0.323340 0.250830 1.098645
Cr10  Cr    Cr6+3 0.114930 0.823340 0.749170 1.061409
Cr11  Cr    Cr6+3 0.885070 0.823340 0.250830 1.101979
Cr12  Cr    Cr6+3 0.616590 0.010620 0.750610 1.158508
H1    H     H_    0.435910 0.993072 0.589420 0.161839
H2    H     H_    0.336382 0.901623 0.923431 0.228423
H3    H     H_    0.214130 0.195700 0.040347 0.168238
H4    H     H_    0.850629 0.433689 0.923546 0.211395
H5    H     H_    0.698793 0.751995 0.913832 0.169626
H6    H     H_    0.355202 0.932647 0.049507 0.166906
H7    H     H_    0.200826 0.248819 0.913151 0.171769
H8    H     H_    0.862576 0.451174 0.052229 0.163527
H9    H     H_    0.669646 0.786198 0.435289 0.194099
H10   H     H_    0.321442 0.763101 0.560708 0.199224
H11   H     H_    0.169650 0.286185 0.435289 0.194253
H12   H     H_    0.403259 0.987447 0.463106 0.167876
H13   H     H_    0.821441 0.263098 0.560709 0.199426
H14   H     H_    0.425355 0.321407 0.049221 0.175911
H15   H     H_    0.449014 0.316105 0.920633 0.203842
H16   H     H_    0.925820 0.823532 0.049139 0.181662
H17   H     H_    0.951236 0.821101 0.920659 0.202601
H18   H     H_    0.904748 0.182368 0.034793 0.367702
H19   H     H_    0.048469 0.022976 0.985220 0.387322
H20   H     H_    0.407912 0.675774 0.031782 0.366445
H21   H     H_    0.551322 0.522769 0.981843 0.390223
H22   H     H_    0.035693 0.922435 0.420615 0.162322
H23   H     H_    0.935916 0.493061 0.589419 0.161267
H24   H     H_    0.116571 0.784192 0.534295 0.162476
H25   H     H_    0.535724 0.422409 0.420608 0.161977
H26   H     H_    0.616584 0.284155 0.534296 0.162739
H27   H     H_    0.584802 0.276601 0.410799 0.181847
H28   H     H_    0.567377 0.430004 0.543844 0.175031
H29   H     H_    0.084788 0.776646 0.410799 0.181964
H30   H     H_    0.067351 0.930026 0.543850 0.174828
H31   H     H_    0.533493 0.672174 0.539154 0.374280
H32   H     H_    0.428509 0.617921 0.449208 0.363123
H33   H     H_    0.033485 0.172200 0.539146 0.374188
H34   H     H_    0.903269 0.487433 0.463104 0.167780
H35   H     H_    0.928504 0.117897 0.449193 0.363225
H36   H     H_    0.882608 0.909609 0.457234 0.160477
H37   H     H_    0.179607 0.061704 0.572364 0.220835
H38   H     H_    0.382612 0.409598 0.457237 0.160483
H39   H     H_    0.679622 0.561720 0.572370 0.220622
H40   H     H_    0.864526 0.954136 0.581409 0.167122
H41   H     H_    0.177779 0.077956 0.445869 0.191682
H42   H     H_    0.364527 0.454131 0.581411 0.167449
H43   H     H_    0.677794 0.577979 0.445874 0.191630
H44   H     H_    0.473440 0.812839 0.860325 0.398652
H45   H     H_    0.849214 0.007114 0.069081 0.191197
H46   H     H_    0.659773 0.073920 0.195285 0.382251
H47   H     H_    0.977853 0.296622 0.864131 0.400781
H48   H     H_    0.163302 0.579892 0.189373 0.381481
H49   H     H_    0.116353 0.852676 0.954944 0.153206
H50   H     H_    0.349483 0.507320 0.068379 0.186135
H51   H     H_    0.629228 0.376593 0.945578 0.172446
H52   H     H_    0.711569 0.698733 0.041005 0.169697
O1    O     O_R   0.787510 0.042610 0.670410 -0.530824
O2    O     O_R   0.454250 0.051070 0.169440 -0.469609
O3    O     O_R   0.045750 0.551070 0.830560 -0.437861
O4    O     O_R   0.954250 0.551070 0.169440 -0.470789
O5    O     O_R   0.681210 0.959150 0.825320 -0.469230
O6    O     O_R   0.318790 0.959150 0.174680 -0.508121
O7    O     O_R   0.181210 0.459150 0.825320 -0.467221
O8    O     O_R   0.818790 0.459150 0.174680 -0.509292
O9    O     O_3   0.667820 0.167810 0.749960 -0.296123
O10   O     O_3   0.332180 0.167810 0.250040 -0.377649
O11   O     O_3   0.167820 0.667810 0.749960 -0.312583
O12   O     O_R   0.212490 0.042610 0.329590 -0.528724
O13   O     O_3   0.832180 0.667810 0.250040 -0.379230
O14   O     O_R   0.765670 0.292090 0.675090 -0.511753
O15   O     O_R   0.234330 0.292090 0.324910 -0.489522
O16   O     O_R   0.265670 0.792090 0.675090 -0.506302
O17   O     O_R   0.734330 0.792090 0.324910 -0.490551
O18   O     O_R   0.670220 0.409020 0.668560 -0.503164
O19   O     O_R   0.329780 0.409020 0.331440 -0.442825
O20   O     O_R   0.170220 0.909020 0.668560 -0.499545
O21   O     O_R   0.829780 0.909020 0.331440 -0.442443
O22   O     O_R   0.556580 0.251590 0.674980 -0.509914
O23   O     O_R   0.287510 0.542610 0.670410 -0.529426
O24   O     O_R   0.443420 0.251590 0.325020 -0.507710
O25   O     O_R   0.056580 0.751590 0.674980 -0.509973
O26   O     O_R   0.943420 0.751590 0.325020 -0.507027
O27   O     O_R   0.545890 0.049670 0.670030 -0.453751
O28   O     O_R   0.454110 0.049670 0.329970 -0.431708
O29   O     O_R   0.045890 0.549670 0.670030 -0.452065
O30   O     O_R   0.954110 0.549670 0.329970 -0.431463
O31   O     O_R   0.681340 0.957860 0.676500 -0.430149
O32   O     O_R   0.318660 0.957860 0.323500 -0.453810
O33   O     O_R   0.181340 0.457860 0.676500 -0.428518
O34   O     O_R   0.712490 0.542610 0.329590 -0.528949
O35   O     O_R   0.818660 0.457860 0.323500 -0.453250
O36   O     O_R   0.787380 0.044010 0.830940 -0.439202
O37   O     O_R   0.212620 0.044010 0.169060 -0.446792
O38   O     O_R   0.287380 0.544010 0.830940 -0.444966
O39   O     O_R   0.712620 0.544010 0.169060 -0.445603
O40   O     O_R   0.765540 0.293390 0.823910 -0.440203
O41   O     O_R   0.234460 0.293390 0.176090 -0.423940
O42   O     O_R   0.265540 0.793390 0.823910 -0.451754
O43   O     O_R   0.734460 0.793390 0.176090 -0.426875
O44   O     O_R   0.670090 0.410410 0.829090 -0.521870
O45   O     O_R   0.556450 0.252890 0.823790 -0.502007
O46   O     O_R   0.329910 0.410410 0.170910 -0.500586
O47   O     O_R   0.170090 0.910410 0.829090 -0.507339
O48   O     O_R   0.829910 0.910410 0.170910 -0.498148
O49   O     O_2   0.925983 0.031923 0.880520 -0.283896
O50   O     O_2   0.849112 0.197620 0.911507 -0.256210
O51   O     O_3   0.932433 0.122919 0.007639 -0.442215
O52   O     O_2   0.077912 0.898729 0.148401 -0.209849
O53   O     O_2   0.104821 0.105039 0.105209 -0.198964
O54   O     O_3   0.032897 0.967489 0.023918 -0.488486
O55   O     O_2   0.429860 0.517767 0.879905 -0.280272
O56   O     O_R   0.443550 0.252890 0.176210 -0.489217
O57   O     O_2   0.356882 0.689814 0.905064 -0.262696
O58   O     O_3   0.435978 0.616098 0.005241 -0.442134
O59   O     O_2   0.585954 0.385470 0.140352 -0.209755
O60   O     O_2   0.602633 0.599213 0.105428 -0.198445
O61   O     O_3   0.538439 0.460631 0.018032 -0.489914
O62   O     O_2   0.617977 0.753387 0.646384 -0.285344
O63   O     O_2   0.570241 0.907406 0.564551 -0.257688
O64   O     O_3   0.580580 0.688612 0.519065 -0.592489
O65   O     O_2   0.304248 0.674256 0.359613 -0.228377
O66   O     O_2   0.407051 0.807531 0.376674 -0.257204
O67   O     O_R   0.056450 0.752890 0.823790 -0.519351
O68   O     O_3   0.383708 0.641969 0.471056 -0.570916
O69   O     O_2   0.117966 0.253405 0.646381 -0.283473
O70   O     O_2   0.070246 0.407429 0.564541 -0.257786
O71   O     O_3   0.080573 0.188628 0.519061 -0.592515
O72   O     O_2   0.804242 0.174239 0.359625 -0.227774
O73   O     O_2   0.907045 0.307523 0.376662 -0.256467
O74   O     O_3   0.883719 0.141981 0.471060 -0.571081
O75   O     O_2   0.590043 0.860004 0.921527 -0.270206
O76   O     O_2   0.503169 0.828889 0.014397 -0.203171
O77   O     O_3   0.459575 0.885253 0.887790 -0.524060
O78   O     O_R   0.943550 0.752890 0.176210 -0.485894
O79   O     O_2   0.590337 0.893189 0.119270 -0.174875
O80   O     O_2   0.669450 0.032045 0.054650 -0.303493
O81   O     O_3   0.616683 0.106406 0.173036 -0.488594
O82   O     O_2   0.094880 0.365412 0.923167 -0.265626
O83   O     O_2   0.006416 0.325845 0.013007 -0.196905
O84   O     O_3   0.965279 0.376186 0.884660 -0.521845
O85   O     O_2   0.083836 0.396107 0.125093 -0.170291
O86   O     O_2   0.165438 0.516576 0.051684 -0.301005
O87   O     O_3   0.119939 0.612693 0.167853 -0.495879
O88   O     O_R   0.545750 0.051070 0.830560 -0.445730
S1    S     S_3+6 0.881387 0.083588 0.938268 0.020967
S2    S     S_3+6 0.604438 0.023500 0.098821 0.086906
S3    S     S_3+6 0.024810 0.401979 0.949379 0.074874
S4    S     S_3+6 0.102103 0.521451 0.098182 0.085226
S5    S     S_3+6 0.097438 0.973537 0.084278 0.061103
S6    S     S_3+6 0.385481 0.575615 0.935674 0.018618
S7    S     S_3+6 0.601976 0.469986 0.079398 0.057384
S8    S     S_3+6 0.615897 0.798426 0.570770 -0.008849
S9    S     S_3+6 0.348112 0.741477 0.413746 0.018839
S10   S     S_3+6 0.115894 0.298439 0.570766 -0.008249
S11   S     S_3+6 0.848112 0.241475 0.413748 0.019306
S12   S     S_3+6 0.522216 0.903466 0.950319 0.074010

loop_
_geom_bond_atom_site_label_1
_geom_bond_atom_site_label_2
_ccdc_geom_bond_type
C58   C62   A    
C81   O45   A    
C21   C26   A    
Cr2   O6    S    
C88   O8    A    
C53   C58   A    
C24   O20   A    
C72   O1    A    
C14   C18   A    
C62   H4    S    
C60   H2    S    
C2    C7    A    
C57   C95   S    
C92   C96   A    
H31   O64   S    
C40   H17   S    
C90   S8    S    
O63   S8    D    
C72   O31   A    
Cr8   O45   S    
Cr1   O36   S    
C58   C76   S    
Cr10  O11   S    
C7    C11   A    
C79   H24   S    
C48   S6    S    
C50   C54   A    
O79   S2    D    
C31   S4    S    
C89   C99   A    
H19   O54   S    
H20   O58   S    
Cr8   O22   S    
C28   C29   A    
C25   C73   S    
O76   S12   D    
Cr6   O23   S    
C74   O23   A    
C29   C32   A    
C10   C15   A    
C30   C31   A    
C63   H5    S    
C75   O34   A    
C79   H30   S    
Cr4   O4    S    
C20   C25   A    
Cr10  O47   S    
C36   C83   S    
C65   C70   A    
C11   C24   S    
O51   S1    S    
H44   O77   S    
C64   H6    S    
C76   O44   A    
C86   O6    A    
Cr3   O33   S    
C89   C94   A    
C16   H37   S    
Cr11  O48   S    
C47   C69   A    
Cr1   O14   S    
C44   O26   A    
C5    C27   A    
C52   H50   S    
O49   S1    D    
C3    C100  A    
C88   O39   A    
Cr4   O13   S    
C13   O19   A    
Cr5   O12   S    
C30   C36   A    
C12   C17   A    
Cr8   O44   S    
Cr2   O28   S    
C21   H42   S    
C48   C70   A    
Cr12  O88   S    
C10   C35   S    
C59   H52   S    
H46   O81   S    
C2    C25   A    
C84   O78   A    
C4    C8    A    
C87   O38   A    
Cr7   O43   S    
C44   C92   S    
C100  H23   S    
C16   C20   A    
C76   O40   A    
C80   O48   A    
Cr9   O19   S    
C68   C79   S    
Cr12  O9    S    
O66   S9    D    
Cr10  O20   S    
Cr9   O24   S    
O80   S2    D    
C55   C60   A    
C96   C97   A    
O50   S1    D    
Cr3   O7    S    
H48   O87   S    
O74   S11   S    
O59   S7    D    
C34   C84   S    
O52   S5    D    
Cr5   O15   S    
C27   C75   S    
C70   C87   S    
C43   C93   S    
Cr6   O16   S    
C79   C97   S    
C38   H15   S    
C54   C80   S    
C54   C59   A    
Cr3   O29   S    
C50   H45   S    
O86   S4    D    
C63   C67   A    
C67   C85   S    
C32   C37   A    
Cr1   O9    S    
C62   C66   A    
C86   O37   A    
C34   C39   A    
C36   C40   A    
O61   S7    S    
O68   S9    S    
O62   S8    D    
C39   C40   A    
C55   C78   S    
C41   O27   A    
C61   H3    S    
C53   H51   S    
C98   H1    S    
C47   C51   A    
C64   C69   A    
C6    C10   A    
C29   S2    S    
O53   S5    D    
C83   O3    A    
O77   S12   S    
C42   O28   A    
C9    H13   S    
C56   C77   S    
C71   C88   S    
C57   H28   S    
C3    C92   A    
C46   H25   S    
C15   C19   A    
C9    C14   A    
C78   O42   A    
Cr12  O31   S    
C5    C9    A    
C37   C38   A    
C84   O4    A    
Cr8   O18   S    
C77   O41   A    
O83   S3    D    
Cr6   O38   S    
C1    O14   A    
C85   O36   A    
Cr5   O37   S    
Cr12  O5    S    
C46   C94   S    
C74   O33   A    
C48   C52   A    
C8    C12   A    
C87   O7    A    
Cr8   O9    S    
Cr3   O11   S    
C19   H40   S    
C65   H7    S    
C31   C34   A    
C68   H29   S    
C56   C61   A    
O55   S6    D    
C68   C96   S    
Cr3   O3    S    
Cr1   O1    S    
C93   C100  A    
Cr2   O2    S    
C22   H43   S    
O58   S6    S    
C66   C71   A    
C3    H34   S    
O60   S7    D    
H18   O51   S    
C77   O46   A    
C41   C91   S    
Cr7   O17   S    
C28   C33   A    
O71   S10   S    
C75   O35   A    
Cr5   O10   S    
H33   O71   S    
C46   C57   S    
C49   C71   A    
C22   C27   A    
Cr4   O35   S    
O75   S12   D    
Cr2   O10   S    
C46   H27   S    
C81   O88   A    
O57   S6    D    
C93   C97   A    
Cr4   O8    S    
C32   C82   S    
C19   C23   A    
C5    S11   S    
C37   H14   S    
C82   O2    A    
H35   O74   S    
C42   O24   A    
O85   S4    D    
C39   H16   S    
C35   O17   A    
Cr9   O10   S    
C18   C22   A    
O54   S5    S    
C44   O30   A    
C23   C72   S    
H32   O68   S    
C28   S12   S    
C20   H41   S    
Cr1   O40   S    
Cr2   O32   S    
Cr6   O42   S    
Cr6   O11   S    
C4    C26   A    
C1    O18   A    
O64   S8    S    
C8    H11   S    
Cr5   O41   S    
C45   C67   A    
O65   S9    D    
Cr11  O78   S    
C18   H39   S    
Cr7   O39   S    
O81   S2    S    
Cr10  O25   S    
C59   C63   A    
C33   C38   A    
C60   C64   A    
C43   O29   A    
C42   C89   S    
C73   O12   A    
C68   H22   S    
O84   S3    S    
Cr9   O56   S    
C6    C90   A    
C35   O21   A    
H21   O61   S    
Cr12  O27   S    
C23   C90   A    
O73   S11   D    
C49   S7    S    
O87   S4    S    
C15   H36   S    
C83   O67   A    
C45   C50   A    
C47   S5    S    
C49   C53   A    
C24   O16   A    
C13   O15   A    
C26   C74   S    
C57   H26   S    
C51   H49   S    
Cr11  O21   S    
C51   C55   A    
C91   C98   A    
C94   C95   A    
C85   O5    A    
H47   O84   S    
C11   C16   A    
Cr10  O67   S    
C91   C95   A    
Cr9   O46   S    
C2    S9    S    
C61   C65   A    
O72   S11   D    
O70   S10   D    
C80   O43   A    
C82   O56   A    
C12   C13   S    
C43   O25   A    
Cr11  O26   S    
C4    S10   S    
C98   C99   A    
O82   S3    D    
C73   O32   A    
C45   S1    S    
C41   O22   A    
Cr11  O13   S    
Cr4   O30   S    
C30   S3    S    
O69   S10   D    
C66   H8    S    
C1    C14   S    
C7    H10   S    
C6    H9    S    
C33   C81   S    
C78   O47   A    
Cr7   O13   S    
C69   C86   S    
C52   C56   A    
Cr7   O34   S    
C99   H12   S    
C17   H38   S    
C17   C21   A    
