data_mof_unit_52380.cif
_audit_creation_date              2012-12-10T18:21:18-0500
_audit_creation_method            fapswitch 2.2
_symmetry_space_group_name_H-M    P1
_symmetry_Int_Tables_number       1
_space_group_crystal_system       triclinic
_cell_length_a                    14.944462
_cell_length_b                    14.013698
_cell_length_c                    10.636729
_cell_angle_alpha                 90.098792
_cell_angle_beta                  89.954209
_cell_angle_gamma                 90.452289
_cell_volume                      2227.54672506

loop_
_atom_site_label
_atom_site_type_symbol
_atom_type_description
_atom_site_fract_x
_atom_site_fract_y
_atom_site_fract_z
_atom_type_partial_charge
C1    C     C_R   0.326963 0.499486 0.501239 0.945682
C2    C     C_3   0.589704 0.530340 0.926769 -0.410348
C3    C     C_R   0.813851 0.541975 0.395418 0.338348
C4    C     C_R   0.768664 0.502533 0.498633 -0.135409
C5    C     C_R   0.814087 0.467230 0.602485 -0.334798
C6    C     C_R   0.906704 0.470322 0.604696 0.160420
C7    C     C_R   0.953652 0.503548 0.497741 0.028659
C8    C     C_R   0.907199 0.538511 0.392022 -0.017200
C9    C     C_R   0.952916 0.440645 0.711919 -0.206462
C10   C     C_R   0.045818 0.443593 0.713690 -0.208494
C11   C     C_R   0.093002 0.473160 0.606758 0.177990
C12   C     C_R   0.498354 0.499863 0.257336 0.892128
C13   C     C_R   0.047023 0.502107 0.497132 -0.065740
C14   C     C_R   0.094430 0.527882 0.386694 -0.118253
C15   C     C_R   0.047913 0.560503 0.279664 0.533643
C16   C     C_R   0.954898 0.569010 0.285714 -0.290371
C17   C     C_R   0.185638 0.474577 0.607712 -0.359970
C18   C     C_R   0.231733 0.498106 0.498535 -0.181340
C19   C     C_R   0.187594 0.517843 0.385941 0.525253
C20   C     C_R   0.549653 0.798437 0.412645 -0.041580
C21   C     C_R   0.549538 0.202153 0.412528 -0.059363
C22   C     C_R   0.450524 0.797846 0.587483 -0.053642
C23   C     C_R   0.450560 0.201557 0.587528 -0.062862
C24   C     C_R   0.449396 0.898497 0.589664 0.016331
C25   C     C_R   0.449407 0.100890 0.589682 0.016014
C26   C     C_R   0.673174 0.500535 0.500857 0.961387
C27   C     C_R   0.500078 0.949387 0.500050 0.085302
C28   C     C_R   0.500065 0.050608 0.500040 0.087076
C29   C     C_R   0.550777 0.899104 0.410454 0.007228
C30   C     C_R   0.550709 0.101500 0.410387 0.014487
C31   C     C_R   0.399048 0.949237 0.678844 -0.198947
C32   C     C_R   0.399063 0.049538 0.678864 -0.204694
C33   C     C_R   0.601072 0.050757 0.321223 -0.206076
C34   C     C_R   0.601124 0.950455 0.321276 -0.189923
C35   C     C_R   0.497536 0.499859 0.742329 0.817325
C36   C     C_3   0.426797 0.571467 0.071746 -0.380192
C37   C     C_3   0.473909 0.397984 0.070958 -0.397159
C38   C     C_3   0.424343 0.569136 0.927701 -0.418971
C39   C     C_3   0.473987 0.397658 0.928009 -0.396036
C40   C     C_3   0.590236 0.529572 0.070919 -0.358386
C41   C     C_3   0.497035 0.499540 0.120741 0.129595
C42   C     C_3   0.496305 0.499316 0.878362 0.189395
H1    H     H_    0.444065 0.645133 0.103340 0.189459
H2    H     H_    0.523968 0.345371 0.104618 0.180817
H3    H     H_    0.080795 0.421386 0.797814 0.129346
H4    H     H_    0.222156 0.456105 0.692339 0.143455
H5    H     H_    0.920603 0.599118 0.205944 0.215821
H6    H     H_    0.588275 0.758436 0.344714 0.166826
H7    H     H_    0.588062 0.242614 0.344486 0.133788
H8    H     H_    0.411916 0.757386 0.655435 0.130017
H9    H     H_    0.411997 0.241552 0.655529 0.129106
H10   H     H_    0.359672 0.911375 0.748574 0.144513
H11   H     H_    0.359703 0.086922 0.748610 0.140432
H12   H     H_    0.640429 0.088619 0.251473 0.143090
H13   H     H_    0.640523 0.913069 0.251574 0.155645
H14   H     H_    0.359591 0.554664 0.109599 0.221664
H15   H     H_    0.407244 0.374455 0.105947 0.165671
H16   H     H_    0.356736 0.546069 0.895144 0.156598
H17   H     H_    0.407253 0.373688 0.892990 0.159114
H18   H     H_    0.436590 0.642535 0.891313 0.185246
H19   H     H_    0.524484 0.345378 0.894401 0.185960
H20   H     H_    0.607740 0.602305 0.105509 0.222243
H21   H     H_    0.641939 0.479029 0.104858 0.200523
H22   H     H_    0.606721 0.603324 0.892556 0.186086
H23   H     H_    0.641896 0.481037 0.890650 0.159480
H24   H     H_    0.776958 0.439759 0.682580 0.148523
H25   H     H_    0.917197 0.416035 0.794609 0.141643
N1    N     N_R   0.500070 0.750030 0.500050 -0.107011
N2    N     N_R   0.500070 0.249970 0.500050 -0.104199
O1    O     O_R   0.367860 0.580280 0.500020 -0.606123
O2    O     O_R   0.367860 0.419720 0.500020 -0.632142
O3    O     O_R   0.500000 0.580270 0.314790 -0.611553
O4    O     O_R   0.500000 0.419730 0.314790 -0.639482
O5    O     O_R   0.632160 0.580270 0.499960 -0.580825
O6    O     O_R   0.632160 0.419730 0.499960 -0.622482
O7    O     O_R   0.500030 0.580270 0.685200 -0.637935
O8    O     O_R   0.500030 0.419730 0.685200 -0.638447
Zn1   Zn    Zn3+2 0.500020 0.607200 0.499990 0.976585
Zn2   Zn    Zn3+2 0.500020 0.392800 0.499990 0.937384
O9    O     O_3   0.235513 0.521923 0.274789 -0.578237
C43   C     C_3   0.235923 0.429281 0.221650 -0.349438
H26   H     H_    0.169002 0.393579 0.224085 0.154038
H27   H     H_    0.285903 0.383961 0.269942 0.173965
H28   H     H_    0.254694 0.434535 0.121092 0.176150
O10   O     O_3   0.094776 0.594292 0.175771 -0.546655
C44   C     C_3   0.065242 0.548247 0.064805 -0.283608
H29   H     H_    0.052094 0.470572 0.078737 0.130262
H30   H     H_    0.118714 0.554778 0.992841 0.189893
H31   H     H_    0.004925 0.583736 0.026673 0.167731
Cl1   Cl    Cl    0.752853 0.594707 0.271465 -0.732981

loop_
_geom_bond_atom_site_label_1
_geom_bond_atom_site_label_2
_ccdc_geom_bond_type
O1    Zn1   S    
C23   N2    A    
C24   C27   A    
C31   H10   S    
C2    H23   S    
C6    C9    A    
C21   H7    S    
C43   H26   S    
C7    C8    A    
O10   C44   S    
C25   C28   A    
C1    C18   S    
C1    O2    A    
C40   H21   S    
C3    Cl1   S    
O7    Zn1   S    
C38   C42   S    
C5    C6    A    
O9    C43   S    
C44   H30   S    
C27   C29   A    
C15   C16   A    
C40   H20   S    
C18   C19   A    
C35   C42   S    
O3    Zn1   S    
C38   H16   S    
C9    C10   A    
C22   H8    S    
C25   C32   A    
C12   O3    A    
C34   H13   S    
C8    C16   A    
C12   O4    A    
C36   C41   S    
C16   H5    S    
O2    Zn2   S    
C43   H27   S    
C2    H22   S    
C17   C18   A    
C39   C42   S    
C20   C29   A    
O8    Zn2   S    
N1    Zn1   S    
C39   H19   S    
C35   O7    A    
C17   H4    S    
C3    C8    A    
C44   H29   S    
C4    C5    A    
C29   C34   A    
C35   O8    A    
C21   N2    A    
C9    H25   S    
C12   C41   S    
C36   H14   S    
C23   H9    S    
C31   C32   A    
C39   H17   S    
C10   H3    S    
C26   O6    A    
O4    Zn2   S    
C22   N1    A    
C20   H6    S    
C38   H18   S    
C40   C41   S    
C22   C24   A    
N2    Zn2   S    
C3    C4    A    
C32   H11   S    
C43   H28   S    
C33   H12   S    
C11   C17   A    
C30   C33   A    
C14   C19   A    
C20   N1    A    
C5    H24   S    
C44   H31   S    
C4    C26   S    
C6    C7    A    
C21   C30   A    
C1    O1    A    
C15   O10   S    
C37   H2    S    
C36   C38   S    
C24   C31   A    
C37   C39   S    
C11   C13   A    
C2    C42   S    
C28   C30   A    
C26   O5    A    
C33   C34   A    
C23   C25   A    
C37   C41   S    
C19   O9    S    
C10   C11   A    
C2    C40   S    
C7    C13   A    
O5    Zn1   S    
C27   C28   A    
C14   C15   A    
C36   H1    S    
C13   C14   A    
O6    Zn2   S    
C37   H15   S    
