data_mof_unit_53047.cif
_audit_creation_date              2012-12-10T17:13:33-0500
_audit_creation_method            fapswitch 2.2
_symmetry_space_group_name_H-M    P1
_symmetry_Int_Tables_number       1
_space_group_crystal_system       triclinic
_cell_length_a                    10.903182
_cell_length_b                    13.075496
_cell_length_c                    11.762337
_cell_angle_alpha                 99.110357
_cell_angle_beta                  93.797109
_cell_angle_gamma                 93.943241
_cell_volume                      1646.74941595

loop_
_atom_site_label
_atom_site_type_symbol
_atom_type_description
_atom_site_fract_x
_atom_site_fract_y
_atom_site_fract_z
_atom_type_partial_charge
C1    C     C_R   0.493621 0.299042 0.479442 0.864524
C2    C     C_3   0.878567 0.498806 0.499819 -0.293107
C3    C     C_3   0.945583 0.612257 0.542604 0.283581
C4    C     C_3   0.915857 0.456657 0.372397 0.591474
C5    C     C_R   0.509581 0.814725 0.535468 -0.119090
C6    C     C_R   0.492209 0.185446 0.468991 -0.148855
C7    C     C_R   0.506402 0.018773 0.347834 0.211201
C8    C     C_R   0.507773 0.126391 0.361319 -0.188018
C9    C     C_R   0.481400 0.135197 0.565969 0.224228
C10   C     C_R   0.505266 0.030448 0.556992 -0.003394
C11   C     C_R   0.504975 0.969826 0.446208 -0.002249
C12   C     C_R   0.259973 0.495617 0.499646 1.008863
C13   C     C_R   0.502808 0.862204 0.436893 -0.243369
C14   C     C_R   0.524428 0.876312 0.646386 0.310516
C15   C     C_R   0.529885 0.985257 0.656259 0.351333
C16   C     C_R   0.381558 0.402998 0.019985 -0.289763
C17   C     C_R   0.398144 0.405307 0.139632 0.363163
C18   C     C_R   0.548377 0.548628 0.156061 0.317886
C19   C     C_R   0.542239 0.540255 0.032959 0.014287
C20   C     C_R   0.453878 0.469228 0.965777 -0.008751
C21   C     C_R   0.442499 0.463292 0.844457 0.117268
C22   C     C_R   0.610570 0.588146 0.853203 0.167626
C23   C     C_R   0.503362 0.700824 0.521422 0.882980
C24   C     C_R   0.621172 0.600632 0.973905 -0.229320
C25   C     C_R   0.740357 0.501447 0.500001 0.913752
C26   C     C_3   0.070167 0.408081 0.571277 0.287953
C27   C     C_3   0.926308 0.421716 0.584050 0.419111
C28   C     C_3   0.087118 0.601794 0.561880 0.101305
C29   C     C_3   0.060442 0.469508 0.370133 0.599608
C30   C     C_3   0.121907 0.493098 0.499388 -0.219178
Cu1   Cu    Cu3+1 0.509350 0.507730 0.615930 1.048182
Cu2   Cu    Cu3+1 0.490650 0.492270 0.384070 1.059540
H1    H     H_    0.492193 0.814577 0.352715 0.224811
H2    H     H_    0.518426 0.163442 0.286233 0.207867
H3    H     H_    0.368785 0.414360 0.793297 0.171159
H4    H     H_    0.670753 0.635194 0.809821 0.175708
H5    H     H_    0.316827 0.344589 0.968083 0.188321
H6    H     H_    0.692956 0.656491 0.017862 0.191629
H7    H     H_    0.111844 0.605748 0.655875 0.171923
N1    N     N_R   0.523430 0.519360 0.790130 -0.204434
N2    N     N_R   0.476570 0.480640 0.209880 -0.225271
O1    O     O_R   0.506640 0.354460 0.582000 -0.565475
O2    O     O_R   0.490840 0.341410 0.386200 -0.577574
O3    O     O_R   0.325590 0.506510 0.597900 -0.569701
O4    O     O_R   0.309790 0.493450 0.402100 -0.518980
O5    O     O_R   0.509160 0.658590 0.613800 -0.536093
O6    O     O_R   0.493360 0.645540 0.418000 -0.591055
O7    O     O_R   0.690210 0.506550 0.597900 -0.551480
O8    O     O_R   0.674410 0.493490 0.402100 -0.522269
O9    O     O_3   0.134137 0.424908 0.681619 -0.746680
H8    H     H_    0.104729 0.368126 0.722461 0.371129
O10   O     O_3   0.856317 0.503849 0.285660 -0.689974
H9    H     H_    0.895934 0.572654 0.281015 0.377488
O11   O     O_3   0.157450 0.684840 0.528135 -0.688865
H10   H     H_    0.147193 0.747990 0.584744 0.374331
O12   O     O_3   0.924956 0.676376 0.459473 -0.692217
H11   H     H_    0.837776 0.693017 0.461087 0.353879
O13   O     O_3   0.532134 0.829336 0.743696 -0.701474
H12   H     H_    0.499113 0.874692 0.808341 0.349960
I1    I     I_    0.515304 0.938871 0.176639 -0.265524
O14   O     O_3   0.569803 0.048887 0.759328 -0.678798
H13   H     H_    0.623219 0.010768 0.806604 0.355435
I2    I     I_    0.387454 0.200036 0.711756 -0.236620
I3    I     I_    0.117456 0.251260 0.498412 -0.164945
I4    I     I_    0.306375 0.274283 0.190663 -0.213415
I5    I     I_    0.670212 0.672965 0.249844 -0.295539
I6    I     I_    0.813794 0.273770 0.563352 -0.135718
O15   O     O_3   0.903608 0.461069 0.699157 -0.677007
H14   H     H_    0.969444 0.513726 0.735696 0.356034
I7    I     I_    0.886870 0.702394 0.699501 -0.321253
O16   O     O_3   0.101393 0.546199 0.305175 -0.690833
H15   H     H_    0.083940 0.616006 0.341761 0.394581
O17   O     O_3   0.098755 0.376157 0.313514 -0.658270
H16   H     H_    0.069049 0.368977 0.230637 0.369432
O18   O     O_3   0.875500 0.350023 0.346920 -0.683962
H17   H     H_    0.865688 0.328022 0.261796 0.376453

loop_
_geom_bond_atom_site_label_1
_geom_bond_atom_site_label_2
_ccdc_geom_bond_type
Cu1   O1    S    
O17   H16   S    
C19   C20   A    
C6    C9    A    
C7    C8    A    
O12   H11   S    
C7    C11   A    
C26   C27   S    
C4    O10   S    
C3    C28   S    
C10   C15   A    
C26   O9    S    
C29   O17   S    
Cu1   N1    S    
C18   C19   A    
Cu2   O4    S    
C26   I3    S    
C4    O18   S    
C27   O15   S    
C1    O2    A    
O15   H14   S    
Cu1   O5    S    
C24   H6    S    
Cu2   N2    S    
C2    C27   S    
C9    C10   A    
C5    C13   A    
C4    C29   S    
C16   H5    S    
C23   O5    A    
C17   N2    A    
C14   O13   S    
C23   O6    A    
Cu1   O3    S    
C1    C6    S    
C3    I7    S    
C18   N2    A    
C28   O11   S    
C16   C17   A    
C6    C8    A    
C28   H7    S    
O13   H12   S    
C2    C4    S    
O18   H17   S    
C13   H1    S    
C29   C30   S    
C3    O12   S    
Cu1   Cu2   S    
C5    C23   S    
C16   C20   A    
C22   N1    A    
O9    H8    S    
C15   O14   S    
C8    H2    S    
C25   O7    A    
C5    C14   A    
C26   C30   S    
Cu1   O7    S    
Cu2   O6    S    
C22   C24   A    
C7    I1    S    
O10   H9    S    
O11   H10   S    
C12   C30   S    
C9    I2    S    
C12   O4    A    
C21   H3    S    
C18   I5    S    
C22   H4    S    
C17   I4    S    
C28   C30   S    
C2    C3    S    
O16   H15   S    
C12   O3    A    
C11   C13   A    
C21   N1    A    
Cu2   O2    S    
C19   C24   A    
C2    C25   S    
O14   H13   S    
C25   O8    A    
Cu2   O8    S    
C27   I6    S    
C10   C11   A    
C1    O1    A    
C20   C21   A    
C14   C15   A    
C29   O16   S    
