data_mof_unit_6147.cif
_audit_creation_date              2013-03-05T16:34:33-0500
_audit_creation_method            fapswitch 2.2
_symmetry_space_group_name_H-M    P1
_symmetry_Int_Tables_number       1
_space_group_crystal_system       triclinic
_cell_length_a                    13.076232
_cell_length_b                    9.096585
_cell_length_c                    7.782183
_cell_angle_alpha                 89.9799
_cell_angle_beta                  95.618355
_cell_angle_gamma                 90.030356
_cell_volume                      921.236248117

loop_
_atom_site_label
_atom_site_type_symbol
_atom_site_description
_atom_site_fract_x
_atom_site_fract_y
_atom_site_fract_z
_atom_type_partial_charge
O1    O     O_R   0.500000 0.288400 0.642760 -0.579682
O2    O     O_R   0.500000 0.711600 0.357240 -0.579682
O3    O     O_R   0.500000 0.288400 0.357240 -0.570297
O4    O     O_R   0.500000 0.711600 0.642760 -0.570291
N1    N     N_1   0.499980 0.500000 0.076820 -0.007297
N2    N     N_1   0.500020 0.500000 0.923180 -0.007297
C1    C     C_R   0.500011 0.220016 0.500017 0.847874
C2    C     C_R   0.499989 0.779984 0.499983 0.847881
O5    O     O_R   0.349000 0.500000 0.619590 -0.546559
O6    O     O_R   0.651000 0.500000 0.380410 -0.546562
O7    O     O_R   0.348990 0.500000 0.334020 -0.579422
O8    O     O_R   0.651010 0.500000 0.665980 -0.579418
C3    C     C_R   0.300394 0.502787 0.469156 0.867515
C4    C     C_R   0.699606 0.497214 0.530844 0.867503
Cu1   Cu    Cu3+1 0.500010 0.500000 0.669080 1.097406
Cu2   Cu    Cu3+1 0.499990 0.500000 0.330920 1.097403
C5    C     C_R   0.811551 0.500344 0.547232 -0.263638
C6    C     C_R   0.188449 0.499663 0.452767 -0.263634
C7    C     C_R   0.032245 0.413899 0.293909 0.731446
C8    C     C_R   0.967755 0.586113 0.706088 0.731444
C9    C     C_R   0.137560 0.432754 0.307629 -0.237235
C10   C     C_R   0.862440 0.567254 0.692369 -0.237227
C11   C     C_R   0.133053 0.553491 0.585875 0.334399
C12   C     C_R   0.866947 0.446518 0.414123 0.334398
C13   C     C_R   0.025577 0.535365 0.574033 -0.203699
C14   C     C_R   0.974423 0.464645 0.425965 -0.203694
H1    H     H_    0.819877 0.610154 0.794042 0.220772
H2    H     H_    0.180122 0.389854 0.205956 0.220772
C15   C     C_1   0.500006 0.065365 0.500022 -0.112960
C16   C     C_1   0.499993 0.934634 0.499978 -0.112957
N3    N     N_R   0.813810 0.372165 0.269154 0.192585
O9    O     O_R   0.794287 0.441012 0.122996 -0.288230
O10   O     O_R   0.773467 0.243364 0.289760 -0.322477
N4    N     N_R   0.186191 0.627846 0.730842 0.192589
O11   O     O_R   0.226560 0.756626 0.710222 -0.322498
O12   O     O_R   0.205703 0.559006 0.877006 -0.288222
F1    F     F_    0.988929 0.342738 0.151735 -0.580501
F2    F     F_    0.011069 0.657278 0.848259 -0.580504

loop_
_geom_bond_atom_site_label_1
_geom_bond_atom_site_label_2
_geom_bond_distance
_ccdc_geom_bond_type
N3    O10   1.300977 A    
C15   C16   1.189207 T    
O1    Cu1   1.935776 S    
C6    C9    1.393519 A    
C8    F2    1.356990 S    
O7    Cu2   1.977019 S    
N4    O12   1.301515 A    
C5    C10   1.393519 A    
O8    Cu1   1.977019 S    
O4    C2    1.273193 A    
C11   N4    1.435127 S    
C2    C16   1.406794 S    
O4    Cu1   1.935632 S    
O5    Cu1   1.974495 S    
C12   N3    1.435125 S    
C13   C14   1.427657 A    
O6    Cu2   1.974495 S    
O7    C3    1.281132 A    
C4    C5    1.457132 S    
C3    C6    1.457131 S    
C1    C15   1.406794 S    
Cu1   Cu2   2.631598 S    
C7    C9    1.381394 A    
C9    H2    1.083872 S    
O8    C4    1.281133 A    
O3    C1    1.273192 A    
C10   H1    1.083872 S    
C11   C13   1.408973 A    
N1    N2    1.195707 T    
C12   C14   1.408970 A    
C5    C12   1.408955 A    
C8    C13   1.411998 A    
C6    C11   1.408957 A    
O2    Cu2   1.935775 S    
N4    O11   1.300967 A    
O6    C4    1.276504 A    
C7    C14   1.411996 A    
O5    C3    1.276505 A    
N1    Cu2   1.977439 S    
C7    F1    1.356991 S    
N2    Cu1   1.977439 S    
O1    C1    1.273368 A    
O2    C2    1.273367 A    
O3    Cu2   1.935633 S    
N3    O9    1.301515 A    
C8    C10   1.381395 A    
