data_mof_unit_5487.cif
_audit_creation_date              2012-12-10T17:33:51-0500
_audit_creation_method            fapswitch 2.2
_symmetry_space_group_name_H-M    P1
_symmetry_Int_Tables_number       1
_space_group_crystal_system       triclinic
_cell_length_a                    10.739126
_cell_length_b                    12.022192
_cell_length_c                    12.888712
_cell_angle_alpha                 94.317264
_cell_angle_beta                  91.651146
_cell_angle_gamma                 85.628728
_cell_volume                      1654.03953653

loop_
_atom_site_label
_atom_site_type_symbol
_atom_type_description
_atom_site_fract_x
_atom_site_fract_y
_atom_site_fract_z
_atom_type_partial_charge
C1    C     C_R   0.498242 0.522739 0.700334 0.860856
C2    C     C_3   0.121108 0.499439 0.509297 -0.092025
C3    C     C_3   0.067799 0.541727 0.402299 0.227762
C4    C     C_3   0.062626 0.578951 0.604480 0.356249
C5    C     C_R   0.502369 0.459487 0.186474 -0.144777
C6    C     C_R   0.497450 0.537082 0.811762 -0.108120
C7    C     C_R   0.439289 0.644347 0.970474 0.226642
C8    C     C_R   0.445373 0.635096 0.862673 -0.215605
C9    C     C_R   0.543200 0.447080 0.866582 -0.269790
C10   C     C_R   0.531996 0.450126 0.973214 0.080307
C11   C     C_R   0.480389 0.550186 0.025778 0.112276
C12   C     C_R   0.741976 0.499221 0.498585 0.931198
C13   C     C_R   0.472378 0.554298 0.132419 -0.358659
C14   C     C_R   0.536732 0.354865 0.132718 0.170426
C15   C     C_R   0.567088 0.353829 0.027298 0.204462
C16   C     C_R   0.369591 0.955571 0.412357 -0.312907
C17   C     C_R   0.384090 0.839116 0.419544 -0.093423
C18   C     C_R   0.557290 0.857260 0.536661 0.553273
C19   C     C_R   0.549631 0.974301 0.527041 -0.066790
C20   C     C_R   0.452641 0.024604 0.466963 0.041709
C21   C     C_R   0.442288 0.142629 0.463140 -0.090398
C22   C     C_R   0.618633 0.157908 0.577867 0.392201
C23   C     C_R   0.501471 0.476460 0.299114 0.881793
C24   C     C_R   0.635857 0.041724 0.577263 -0.319277
C25   C     C_R   0.257936 0.500760 0.506001 0.897990
C26   C     C_3   0.939837 0.376661 0.515239 0.310268
C27   C     C_3   0.082514 0.374161 0.513554 -0.054426
C28   C     C_3   0.923809 0.556176 0.405486 0.302369
C29   C     C_3   0.917631 0.572031 0.599201 -0.585733
C30   C     C_3   0.877900 0.498222 0.500662 -0.192958
H1    H     H_    0.898105 0.647834 0.421896 0.048467
H2    H     H_    0.099090 0.626143 0.390771 0.056734
H3    H     H_    0.439702 0.631793 0.174372 0.199141
H4    H     H_    0.406602 0.702972 0.818390 0.147381
H5    H     H_    0.581957 0.372140 0.824154 0.184129
H6    H     H_    0.369250 0.182481 0.416048 0.133343
H7    H     H_    0.915365 0.364024 0.596443 0.136264
H8    H     H_    0.294400 0.991082 0.364487 0.154596
H9    H     H_    0.715856 0.004868 0.618961 0.184855
H10   H     H_    0.320267 0.786042 0.376927 0.147104
H11   H     H_    0.113279 0.327056 0.440249 0.211719
H12   H     H_    0.868666 0.657034 0.598430 0.247919
H13   H     H_    0.883047 0.538492 0.670432 0.174009
N1    N     N_R   0.523380 0.207800 0.519350 -0.099556
N2    N     N_R   0.476620 0.792180 0.480650 -0.137687
O1    O     O_R   0.506240 0.421700 0.658830 -0.639720
O2    O     O_R   0.491240 0.609310 0.646410 -0.613261
O3    O     O_R   0.692710 0.406190 0.506230 -0.604085
O4    O     O_R   0.677700 0.593810 0.493810 -0.585093
O5    O     O_R   0.508760 0.390690 0.353590 -0.618195
O6    O     O_R   0.493760 0.578300 0.341170 -0.642203
O7    O     O_R   0.322300 0.406190 0.506190 -0.617749
O8    O     O_R   0.307290 0.593810 0.493770 -0.653685
Zn1   Zn    Zn3+2 0.510020 0.374730 0.508290 0.939568
Zn2   Zn    Zn3+2 0.489980 0.625270 0.491710 0.944802
O9    O     O_3   0.891252 0.281434 0.459736 -0.612210
C31   C     C_3   0.881783 0.284664 0.350800 0.212106
H14   H     H_    0.963745 0.317519 0.317480 0.212726
H15   H     H_    0.794613 0.333790 0.329010 0.201123
C32   C     C_3   0.872987 0.166002 0.302723 -0.914279
H16   H     H_    0.791935 0.128464 0.334300 0.269783
H17   H     H_    0.860808 0.166918 0.216905 0.216700
H18   H     H_    0.959735 0.113981 0.320813 0.257379
C33   C     C_3   0.090534 0.704056 0.600842 -0.871947
H19   H     H_    0.059074 0.739613 0.526996 0.208761
H20   H     H_    0.039965 0.756200 0.663488 0.234705
H21   H     H_    0.190897 0.716741 0.615240 0.261569
C34   C     C_3   0.533775 0.245829 0.184455 -0.863648
H22   H     H_    0.531858 0.171841 0.127881 0.235426
H23   H     H_    0.615467 0.234313 0.238094 0.253417
H24   H     H_    0.445606 0.245376 0.227273 0.239280
C35   C     C_3   0.386095 0.753404 0.023371 -0.975989
H25   H     H_    0.358935 0.816532 0.966585 0.242107
H26   H     H_    0.301450 0.739409 0.066621 0.241993
H27   H     H_    0.457105 0.789033 0.077931 0.244444
C36   C     C_3   0.641181 0.253657 0.974289 -0.968240
H28   H     H_    0.688154 0.197584 0.030188 0.253967
H29   H     H_    0.579237 0.205299 0.920501 0.244439
H30   H     H_    0.718875 0.282185 0.930441 0.235096
C37   C     C_3   0.707179 0.220883 0.648423 -0.860026
H31   H     H_    0.804385 0.199173 0.623087 0.250593
H32   H     H_    0.689823 0.311541 0.653449 0.275811
H33   H     H_    0.700291 0.194920 0.728838 0.190693
O10   O     O_3   0.648199 0.806911 0.599644 -0.611574
C38   C     C_3   0.613166 0.826265 0.704926 0.108622
H34   H     H_    0.516879 0.802582 0.715925 0.145843
H35   H     H_    0.615813 0.915515 0.733239 0.118200
C39   C     C_3   0.703990 0.758739 0.772948 -0.821710
H36   H     H_    0.799766 0.786185 0.766771 0.239642
H37   H     H_    0.675688 0.771527 0.855438 0.214164
H38   H     H_    0.704700 0.668395 0.747986 0.255734
C40   C     C_3   0.144439 0.301301 0.599736 -0.863038
H39   H     H_    0.218664 0.342180 0.646173 0.265939
H40   H     H_    0.077585 0.276623 0.656317 0.218700
H41   H     H_    0.188297 0.221766 0.563065 0.242907
O11   O     O_3   0.868972 0.515771 0.309542 -0.612345
C41   C     C_3   0.815990 0.604375 0.252384 0.113558
H42   H     H_    0.879069 0.673638 0.251098 0.118747
H43   H     H_    0.726079 0.637797 0.287316 0.171341
C42   C     C_3   0.791055 0.561178 0.140330 -0.813213
H44   H     H_    0.748428 0.480077 0.138276 0.267759
H45   H     H_    0.727658 0.622809 0.100800 0.214054
H46   H     H_    0.879042 0.548413 0.097020 0.242017
O12   O     O_3   0.103612 0.463322 0.318063 -0.620285
C43   C     C_3   0.196368 0.499138 0.255342 0.131281
H47   H     H_    0.260907 0.425018 0.234377 0.159226
H48   H     H_    0.253123 0.564284 0.294280 0.130528
C44   C     C_3   0.138218 0.540174 0.155070 -0.848735
H49   H     H_    0.076988 0.617427 0.172214 0.240420
H50   H     H_    0.212296 0.559188 0.102422 0.218765
H51   H     H_    0.083870 0.474054 0.114986 0.268587
C45   C     C_3   0.113163 0.544195 0.712300 -0.846566
H52   H     H_    0.216815 0.535258 0.714868 0.222214
H53   H     H_    0.082835 0.608308 0.775003 0.239757
H54   H     H_    0.076076 0.465709 0.733314 0.229986

loop_
_geom_bond_atom_site_label_1
_geom_bond_atom_site_label_2
_ccdc_geom_bond_type
C3    O12   S    
C29   H12   S    
C2    C4    S    
C19   C20   A    
C36   H30   S    
C12   O3    A    
C6    C9    A    
C45   H53   S    
C12   O4    A    
C7    C8    A    
C21   H6    S    
C38   H34   S    
O9    C31   S    
C7    C11   A    
C43   H48   S    
C26   C27   S    
O5    Zn1   S    
C32   H18   S    
C3    C28   S    
C36   H29   S    
C10   C15   A    
C35   H27   S    
C1    O1    A    
C31   H15   S    
C24   H9    S    
C44   H49   S    
C32   H17   S    
C18   C19   A    
O12   C43   S    
C22   N1    A    
C34   H22   S    
C18   O10   S    
C2    C27   S    
C9    C10   A    
C5    C13   A    
C4    C29   S    
C35   H25   S    
C39   H36   S    
C38   H35   S    
C15   C36   S    
C4    C45   S    
C29   H13   S    
C37   H33   S    
C40   H40   S    
C45   H52   S    
C41   H43   S    
O7    Zn1   S    
C41   H42   S    
O8    Zn2   S    
C43   C44   S    
C1    C6    S    
C33   H21   S    
C36   H28   S    
C35   H26   S    
C7    C35   S    
C1    O2    A    
C31   C32   S    
C6    C8    A    
O4    Zn2   S    
C42   H46   S    
C32   H16   S    
C17   H10   S    
C33   H20   S    
O3    Zn1   S    
C13   H3    S    
C29   C30   S    
C21   N1    A    
C27   H11   S    
C23   O6    A    
C5    C23   S    
C39   H38   S    
C16   C20   A    
O11   C41   S    
O1    Zn1   S    
C42   H45   S    
C27   C40   S    
C8    H4    S    
O10   C38   S    
C5    C14   A    
C37   H32   S    
C39   H37   S    
C26   C30   S    
C22   C24   A    
C18   N2    A    
C41   C42   S    
O2    Zn2   S    
C38   C39   S    
C12   C30   S    
C28   H1    S    
C17   N2    A    
C37   H31   S    
C23   O5    A    
C26   O9    S    
C26   H7    S    
C43   H47   S    
C4    C33   S    
C44   H51   S    
C28   O11   S    
C33   H19   S    
C28   C30   S    
C2    C3    S    
C25   O7    A    
C22   C37   S    
C11   C13   A    
C31   H14   S    
C16   C17   A    
C34   H24   S    
C40   H39   S    
C44   H50   S    
C19   C24   A    
C2    C25   S    
O6    Zn2   S    
C40   H41   S    
C3    H2    S    
C10   C11   A    
N1    Zn1   S    
C20   C21   A    
N2    Zn2   S    
C34   H23   S    
C9    H5    S    
C14   C34   S    
C14   C15   A    
C42   H44   S    
C45   H54   S    
C25   O8    A    
C16   H8    S    
