data_mof_unit_36430.cif
_audit_creation_date              2012-12-11T16:24:19-0500
_audit_creation_method            fapswitch 2.2
_symmetry_space_group_name_H-M    P1
_symmetry_Int_Tables_number       1
_space_group_crystal_system       triclinic
_cell_length_a                    14.726917
_cell_length_b                    14.734263
_cell_length_c                    33.235317
_cell_angle_alpha                 96.130858
_cell_angle_beta                  96.31789
_cell_angle_gamma                 61.061663
_cell_volume                      6261.05863049

loop_
_atom_site_label
_atom_site_type_symbol
_atom_type_description
_atom_site_fract_x
_atom_site_fract_y
_atom_site_fract_z
_atom_type_partial_charge
C1    C     C_R   0.411578 0.650291 0.440461 0.557889
C2    C     C_1   0.312257 0.345972 0.228734 -0.008194
C3    C     C_2   0.854669 0.481867 0.607503 0.583390
C4    C     C_2   0.874292 0.459179 0.435702 0.582992
C5    C     C_1   0.317451 0.350194 0.265093 -0.008831
C6    C     C_R   0.405695 0.386473 0.433925 0.537285
C7    C     C_R   0.292413 0.295252 0.101571 0.023082
C8    C     C_R   0.768476 0.365590 0.413145 0.000861
C9    C     C_R   0.841472 0.397332 0.405363 0.040420
C10   C     C_R   0.887320 0.366575 0.367991 -0.117808
C11   C     C_R   0.864823 0.302312 0.339059 0.008608
C12   C     C_R   0.798496 0.265414 0.348332 -0.122097
C13   C     C_R   0.750625 0.297032 0.384801 -0.155072
C14   C     C_R   0.328490 0.352391 0.308377 0.043925
C15   C     C_R   0.958730 0.253602 0.220838 0.349349
C16   C     C_R   0.904769 0.279615 0.298362 0.352495
C17   C     C_R   0.988557 0.326838 0.162544 -0.115924
C18   C     C_R   0.702708 0.408859 0.448067 0.567656
C19   C     C_R   0.998324 0.326150 0.121333 -0.126041
C20   C     C_R   0.991372 0.164412 0.109872 -0.127505
C21   C     C_R   0.980060 0.165848 0.151135 -0.113932
C22   C     C_R   0.977882 0.247497 0.177793 0.035912
C23   C     C_R   0.998659 0.245700 0.094490 0.018126
C24   C     C_R   0.406373 0.669099 0.397332 0.007323
C25   C     C_R   0.411419 0.268853 0.327555 -0.106948
C26   C     C_R   0.316867 0.687805 0.372085 -0.148770
C27   C     C_R   0.310672 0.705255 0.331035 0.012320
C28   C     C_R   0.398784 0.698074 0.314314 0.045032
C29   C     C_R   0.488728 0.677353 0.339575 -0.138057
C30   C     C_R   0.393317 0.701705 0.561213 0.551748
C31   C     C_R   0.492612 0.662947 0.380585 -0.134657
C32   C     C_R   0.387710 0.754739 0.192785 0.345480
C33   C     C_R   0.399641 0.712789 0.271237 0.379771
C34   C     C_R   0.287655 0.786341 0.125411 -0.111655
C35   C     C_R   0.255376 0.837409 0.089397 -0.126970
C36   C     C_R   0.431974 0.276256 0.369380 -0.123029
C37   C     C_R   0.386793 0.892646 0.103388 -0.128390
C38   C     C_R   0.418337 0.842515 0.139587 -0.116132
C39   C     C_R   0.367069 0.791458 0.151512 0.036045
C40   C     C_R   0.302788 0.893391 0.078627 0.021940
C41   C     C_R   0.368255 0.367169 0.583664 0.022832
C42   C     C_R   0.406889 0.388576 0.548805 0.548887
C43   C     C_R   0.280915 0.446541 0.602393 -0.122536
C44   C     C_R   0.257644 0.434022 0.640271 -0.111572
C45   C     C_R   0.321303 0.341905 0.659920 0.034956
C46   C     C_R   0.402578 0.259117 0.639395 -0.117830
C47   C     C_R   0.391499 0.251372 0.166431 -0.106654
C48   C     C_R   0.425974 0.271718 0.601620 -0.129293
C49   C     C_R   0.307655 0.332715 0.784265 0.349982
C50   C     C_R   0.311201 0.336058 0.703037 0.346185
C51   C     C_R   0.223085 0.405192 0.849994 -0.118443
C52   C     C_R   0.215562 0.394334 0.890802 0.041320
C53   C     C_R   0.379208 0.232786 0.888555 -0.143884
C54   C     C_R   0.703133 0.412441 0.562337 0.579831
C55   C     C_R   0.386534 0.245747 0.848577 -0.124028
C56   C     C_R   0.306000 0.328860 0.828263 0.005195
C57   C     C_R   0.290798 0.302227 0.909376 0.000441
C58   C     C_R   0.383324 0.231288 0.124665 -0.120174
C59   C     C_R   0.757600 0.376485 0.602347 -0.003051
C60   C     C_R   0.816753 0.419295 0.625339 0.044876
C61   C     C_R   0.842672 0.399979 0.666689 -0.107991
C62   C     C_R   0.814318 0.336392 0.684537 0.009692
C63   C     C_R   0.764094 0.287692 0.661203 -0.119141
C64   C     C_R   0.736142 0.307287 0.620543 -0.148862
C65   C     C_R   0.862324 0.225634 0.823867 -0.111938
C66   C     C_R   0.369727 0.367686 0.392311 0.022070
C67   C     C_R   0.884201 0.214887 0.865896 0.044860
C68   C     C_R   0.892064 0.377418 0.871971 -0.135613
C69   C     C_R   0.213629 0.384421 0.120569 -0.129808
C70   C     C_R   0.868512 0.387627 0.830558 -0.109982
C71   C     C_R   0.857454 0.310109 0.806342 0.008920
C72   C     C_1   0.843274 0.317107 0.763315 -0.009457
C73   C     C_1   0.831535 0.324972 0.727313 -0.010219
C74   C     C_R   0.905875 0.288795 0.890040 -0.003870
C75   C     C_R   0.375810 0.756159 0.601820 0.016812
C76   C     C_R   0.280074 0.791887 0.618834 -0.120976
C77   C     C_R   0.270324 0.821824 0.660051 -0.107590
C78   C     C_R   0.282075 0.448303 0.373054 -0.123894
C79   C     C_R   0.355831 0.816745 0.684627 0.039063
C80   C     C_R   0.221782 0.404032 0.162461 -0.106060
C81   C     C_R   0.449399 0.787784 0.667549 -0.105963
C82   C     C_R   0.459341 0.758000 0.626269 -0.123749
C83   C     C_R   0.396826 0.885038 0.832694 -0.108084
C84   C     C_R   0.377254 0.911881 0.873587 -0.124543
C85   C     C_R   0.227719 0.882373 0.862541 -0.109731
C86   C     C_R   0.247601 0.855426 0.821691 -0.101687
C87   C     C_R   0.330365 0.859550 0.806555 0.036666
C88   C     C_1   0.342414 0.844443 0.763784 -0.015586
C89   C     C_1   0.349542 0.832840 0.727718 -0.015392
C90   C     C_R   0.261973 0.440813 0.331198 -0.105557
C91   C     C_R   0.309344 0.335604 0.185449 0.044904
C92   C     C_R   0.290417 0.914123 0.888632 0.014794
C93   C     C_R   0.014104 0.244074 0.051313 0.557580
C94   C     C_R   0.273011 0.259792 0.059977 0.540533
C95   C     C_R   0.259581 0.959249 0.043750 0.534052
C96   C     C_R   0.960744 0.268465 0.930982 0.573184
C97   C     C_R   0.271308 0.264881 0.945529 0.563720
C98   C     C_R   0.256193 0.964915 0.928934 0.543494
C99   C     C_2   0.208753 0.736229 0.308128 0.245097
C100  C     C_2   0.128876 0.480455 0.912511 0.585669
C101  C     C_2   0.882016 0.127389 0.883254 0.586467
Cr1   Cr    Cr6+3 0.576280 0.580550 0.506370 1.068434
Cr2   Cr    Cr6+3 0.346780 0.572400 0.496520 1.023348
Cr3   Cr    Cr6+3 0.576960 0.347070 0.497150 1.022898
Cr4   Cr    Cr6+3 0.087320 0.083240 0.984860 1.059561
Cr5   Cr    Cr6+3 0.087720 0.316210 0.996740 1.063940
Cr6   Cr    Cr6+3 0.317350 0.090340 0.995890 1.014077
H1    H     H_    0.445495 0.162244 0.110934 0.133949
H2    H     H_    0.563643 0.645991 0.399087 0.151721
H3    H     H_    0.190925 0.836046 0.070712 0.139101
H4    H     H_    0.459766 0.198367 0.184125 0.118878
H5    H     H_    0.556886 0.671293 0.327401 0.142405
H6    H     H_    0.246623 0.747600 0.133762 0.143920
H7    H     H_    0.425033 0.934944 0.095815 0.132302
H8    H     H_    0.480284 0.847144 0.158955 0.136895
H9    H     H_    0.234335 0.520718 0.589039 0.135330
H10   H     H_    0.492890 0.208696 0.587614 0.134657
H11   H     H_    0.193568 0.498701 0.655077 0.142586
H12   H     H_    0.695557 0.271245 0.389965 0.139130
H13   H     H_    0.452024 0.186409 0.653428 0.138950
H14   H     H_    0.463066 0.199996 0.309952 0.121018
H15   H     H_    0.163287 0.472643 0.834994 0.173324
H16   H     H_    0.440037 0.163366 0.902069 0.146957
H17   H     H_    0.453368 0.187346 0.833049 0.147542
H18   H     H_    0.849239 0.168126 0.804713 0.146439
H19   H     H_    0.742525 0.237827 0.674847 0.126458
H20   H     H_    0.691813 0.272563 0.604033 0.144645
H21   H     H_    0.863057 0.454204 0.817191 0.140994
H22   H     H_    0.905807 0.436583 0.889365 0.174945
H23   H     H_    0.005695 0.388813 0.110482 0.128481
H24   H     H_    0.499996 0.213010 0.383308 0.135611
H25   H     H_    0.884728 0.434625 0.685142 0.161162
H26   H     H_    0.426795 0.936293 0.892833 0.132209
H27   H     H_    0.461222 0.888178 0.821176 0.120735
H28   H     H_    0.515942 0.783780 0.686428 0.126134
H29   H     H_    0.534196 0.730509 0.614127 0.143675
H30   H     H_    0.214358 0.791435 0.600821 0.135110
H31   H     H_    0.195947 0.835449 0.801592 0.130605
H32   H     H_    0.160177 0.883545 0.873140 0.167730
H33   H     H_    0.197501 0.844443 0.673086 0.118850
H34   H     H_    0.941338 0.392527 0.361536 0.167250
H35   H     H_    0.232690 0.519774 0.389866 0.130838
H36   H     H_    0.158064 0.469741 0.177062 0.121498
H37   H     H_    0.143216 0.435645 0.103481 0.125711
H38   H     H_    0.197507 0.505705 0.316474 0.115762
H39   H     H_    0.156929 0.710009 0.317033 0.090913
H40   H     H_    0.980197 0.595381 0.909435 0.339889
H41   H     H_    0.842502 0.077068 0.929165 0.335687
H42   H     H_    0.896515 0.594618 0.616336 0.339654
H43   H     H_    0.908560 0.488588 0.494405 0.364539
H44   H     H_    0.779737 0.215618 0.326667 0.146776
H45   H     H_    0.987216 0.390851 0.182277 0.136911
H46   H     H_    0.993985 0.099960 0.090081 0.140743
H47   H     H_    0.972875 0.103173 0.162129 0.144748
H48   H     H_    0.249995 0.691865 0.384625 0.121385
N1    N     N_R   0.972618 0.322677 0.247705 -0.227269
N2    N     N_R   0.442685 0.769259 0.260672 -0.218676
N3    N     N_R   0.436584 0.790051 0.222197 -0.225626
N4    N     N_R   0.235314 0.415867 0.764044 -0.224187
N5    N     N_R   0.237439 0.417737 0.724208 -0.223859
N6    N     N_R   0.382471 0.252568 0.723241 -0.232578
N7    N     N_R   0.380495 0.250794 0.762980 -0.229044
N8    N     N_R   0.946308 0.335326 0.285710 -0.223810
N9    N     N_R   0.892778 0.209024 0.271710 -0.215052
N10   N     N_R   0.919454 0.196091 0.233713 -0.215934
N11   N     N_R   0.348245 0.694790 0.203195 -0.214506
N12   N     N_R   0.354816 0.673527 0.241665 -0.176206
O1    O     O_R   0.679450 0.499830 0.463150 -0.484562
O2    O     O_R   0.340240 0.172500 0.045430 -0.517362
O3    O     O_R   0.309670 0.000990 0.032050 -0.503956
O4    O     O_R   0.480650 0.664000 0.464630 -0.493764
O5    O     O_R   0.168330 0.982130 0.939200 -0.501116
O6    O     O_R   0.000140 0.178170 0.944610 -0.452085
O7    O     O_R   0.983010 0.336750 0.948660 -0.511125
O8    O     O_R   0.181800 0.312190 0.959860 -0.456621
O9    O     O_R   0.338500 0.175680 0.956950 -0.523229
O10   O     O_R   0.308050 0.003930 0.950020 -0.502157
O11   O     O_3   0.164130 0.163270 0.992500 -0.278804
O12   O     O_R   0.356040 0.477400 0.534170 -0.497898
O13   O     O_R   0.323930 0.675950 0.455370 -0.506527
O14   O     O_R   0.354700 0.475360 0.451930 -0.516519
O15   O     O_R   0.494470 0.320860 0.448390 -0.516481
O16   O     O_R   0.662580 0.357570 0.460050 -0.505703
O17   O     O_R   0.680900 0.502040 0.551870 -0.464374
O18   O     O_R   0.481990 0.666040 0.546870 -0.498093
O19   O     O_R   0.325370 0.678160 0.544080 -0.511095
O20   O     O_2   0.178648 0.795946 0.280967 -0.457219
O21   O     O_2   0.142306 0.503698 0.948271 -0.501127
O22   O     O_R   0.032845 0.538187 0.891521 -0.720143
O23   O     O_R   0.495910 0.323070 0.537100 -0.518501
O24   O     O_2   0.913161 0.043252 0.864142 -0.532940
O25   O     O_R   0.840418 0.142224 0.920744 -0.674610
O26   O     O_2   0.877438 0.464182 0.572193 -0.486632
O27   O     O_R   0.868794 0.558348 0.631694 -0.710937
O28   O     O_2   0.896187 0.522261 0.424509 -0.523637
O29   O     O_R   0.884331 0.442569 0.476964 -0.638850
O30   O     O_R   0.663920 0.359620 0.542290 -0.505951
O31   O     O_3   0.500010 0.500010 0.500010 -0.275110
O32   O     O_R   0.170070 0.978950 0.027680 -0.525730
O33   O     O_R   0.001760 0.175230 0.026640 -0.488067
O34   O     O_R   0.984760 0.333570 0.037150 -0.506789
O35   O     O_R   0.183410 0.309240 0.041890 -0.513112

loop_
_geom_bond_atom_site_label_1
_geom_bond_atom_site_label_2
_ccdc_geom_bond_type
H41   O25   S    
C4    O28   D    
C83   C87   A    
C55   C56   A    
C8    C13   A    
C97   O8    A    
Cr4   O5    S    
C32   N11   A    
Cr3   O30   S    
C29   H5    S    
Cr3   O15   S    
C100  O22   S    
C77   H33   S    
Cr4   O11   S    
C87   C88   S    
C101  O25   S    
C99   O20   D    
N6    N7    A    
C92   C98   S    
C85   C86   A    
C78   C90   A    
C34   H6    S    
C12   C13   A    
C27   C99   S    
C59   C64   A    
N2    N3    A    
C54   O30   A    
C96   O7    A    
C6    O15   A    
C18   O16   A    
N9    N10   A    
C100  O21   D    
C24   C26   A    
C51   C56   A    
C90   H38   S    
C78   H35   S    
C94   O2    A    
C38   C39   A    
C43   H9    S    
C1    O13   A    
C36   C66   A    
Cr6   O9    S    
C68   C74   A    
C20   H46   S    
C34   C35   A    
C41   C42   S    
C32   C39   S    
C14   C90   A    
C83   H27   S    
C61   H25   S    
C47   C58   A    
C15   C22   S    
N4    N5    A    
N1    N8    A    
C8    C9    A    
C65   C67   A    
Cr5   O8    S    
C62   C73   S    
C70   C71   A    
C94   O35   A    
C93   O34   A    
C9    C10   A    
C85   H32   S    
C7    C58   A    
Cr2   O12   S    
C61   C62   A    
C98   O5    A    
C3    C60   S    
C64   H20   S    
C19   H23   S    
C53   C55   A    
C57   C97   S    
C59   C60   A    
C97   O9    A    
Cr4   O6    S    
C21   C22   A    
Cr6   O10   S    
C50   N6    A    
C29   C31   A    
C41   C43   A    
C12   H44   S    
C26   H48   S    
C33   N12   A    
Cr2   O19   S    
Cr3   O31   S    
C13   H12   S    
C85   C92   A    
C33   N2    A    
C81   H28   S    
C32   N3    A    
C54   C59   S    
C77   C79   A    
C16   N8    A    
Cr5   O7    S    
C66   C78   A    
C46   C48   A    
C84   H26   S    
C3    O27   S    
C79   C89   S    
C96   O6    A    
C6    O14   A    
C34   C39   A    
Cr1   O18   S    
C30   O18   A    
C74   C96   S    
Cr2   O13   S    
C93   O33   A    
Cr5   O11   S    
C76   C77   A    
C53   H16   S    
C36   H24   S    
C79   C81   A    
C18   O1    A    
C86   C87   A    
C37   H7    S    
C50   N5    A    
C65   C71   A    
C5    C14   S    
C52   C100  S    
C81   C82   A    
C51   C52   A    
C60   C61   A    
C69   H37   S    
C10   H34   S    
C65   H18   S    
C19   C23   A    
C75   C76   A    
C37   C38   A    
H42   O27   S    
Cr5   O35   S    
C11   C16   S    
C42   O23   A    
C83   C84   A    
C20   C23   A    
C44   H11   S    
C42   O12   A    
C21   H47   S    
C80   H36   S    
Cr3   O23   S    
C62   C63   A    
C31   H2    S    
C46   H13   S    
C67   C74   A    
C3    O26   D    
C88   C89   T    
C98   O10   A    
H43   O29   S    
C49   N7    A    
C35   H3    S    
Cr6   O11   S    
C68   C70   A    
C99   H39   S    
C28   C33   S    
Cr4   O32   S    
C10   C11   A    
C43   C44   A    
C26   C27   A    
N11   N12   A    
C54   O17   A    
C2    C5    T    
C40   C95   S    
C2    C91   S    
C30   O19   A    
C44   C45   A    
C67   C101  S    
Cr6   O2    S    
C70   H21   S    
Cr1   O4    S    
C4    O29   S    
C7    C94   S    
C55   H17   S    
C28   C29   A    
Cr1   O1    S    
Cr2   O14   S    
C47   C91   A    
C76   H30   S    
C15   N10   A    
C72   C73   T    
C101  O24   D    
C53   C57   A    
C7    C69   A    
C11   C12   A    
C75   C82   A    
C48   H10   S    
C37   C40   A    
C49   C56   S    
C17   C22   A    
C23   C93   S    
Cr1   O17   S    
C80   C91   A    
Cr1   O31   S    
C35   C40   A    
C24   C31   A    
C71   C72   S    
C16   N9    A    
Cr5   O34   S    
C38   H8    S    
C45   C50   S    
H40   O22   S    
C47   H4    S    
C17   C19   A    
C41   C48   A    
C1    O4    A    
C58   H1    S    
C14   C25   A    
C82   H29   S    
C68   H22   S    
C95   O3    A    
C8    C18   S    
Cr4   O33   S    
C63   H19   S    
C52   C57   A    
C86   H31   S    
C25   C36   A    
C63   C64   A    
C17   H45   S    
C45   C46   A    
C6    C66   S    
Cr3   O16   S    
C30   C75   S    
C20   C21   A    
C1    C24   S    
C95   O32   A    
C27   C28   A    
C51   H15   S    
C49   N4    A    
C69   C80   A    
C84   C92   A    
C4    C9    S    
C25   H14   S    
Cr2   O31   S    
C15   N1    A    
Cr6   O3    S    
