data_mof_unit_31315.cif
_audit_creation_date              2012-12-10T20:41:51-0500
_audit_creation_method            fapswitch 2.2
_symmetry_space_group_name_H-M    P1
_symmetry_Int_Tables_number       1
_space_group_crystal_system       triclinic
_cell_length_a                    15.03156
_cell_length_b                    15.15296
_cell_length_c                    9.869039
_cell_angle_alpha                 90.925759
_cell_angle_beta                  89.533453
_cell_angle_gamma                 90.153245
_cell_volume                      2247.52174144

loop_
_atom_site_label
_atom_site_type_symbol
_atom_type_description
_atom_site_fract_x
_atom_site_fract_y
_atom_site_fract_z
_atom_type_partial_charge
C1    C     C_R   0.377688 0.882194 0.499874 0.877127
C2    C     C_R   0.382349 0.122733 0.500658 0.868242
C3    C     C_R   0.877685 0.382196 0.499872 0.877146
C4    C     C_R   0.882348 0.622733 0.500657 0.868259
C5    C     C_3   0.270223 0.208993 0.751017 -0.510755
C6    C     C_3   0.321250 0.751394 0.735079 -0.492545
C7    C     C_3   0.770284 0.709060 0.751046 -0.510771
C8    C     C_3   0.821082 0.251548 0.735211 -0.492802
C9    C     C_R   0.426676 0.973012 0.071313 0.131571
C10   C     C_R   0.926670 0.473027 0.071316 0.131564
C11   C     C_R   0.577478 0.011296 0.072832 0.509405
C12   C     C_R   0.077476 0.511291 0.072822 0.509368
C13   C     C_R   0.576675 0.012507 0.927088 -0.275568
C14   C     C_R   0.076675 0.512498 0.927086 -0.275402
C15   C     C_R   0.427000 0.971889 0.929276 0.205165
C16   C     C_R   0.926991 0.471909 0.929277 0.205166
C17   C     C_3   0.335577 0.008741 0.925696 -0.511111
C18   C     C_3   0.835583 0.508798 0.925709 -0.511141
C19   C     C_3   0.335444 0.010348 0.079643 -0.490445
C20   C     C_3   0.835448 0.510387 0.079654 -0.490442
C21   C     C_R   0.617295 0.122666 0.500358 0.872861
C22   C     C_R   0.623068 0.883163 0.498953 0.882668
C23   C     C_R   0.117299 0.622662 0.500360 0.872822
C24   C     C_R   0.123066 0.383161 0.498954 0.882666
C25   C     C_R   0.304581 0.243764 0.619917 0.137325
C26   C     C_R   0.270858 0.793698 0.623604 0.133600
C27   C     C_R   0.804608 0.743792 0.619902 0.137335
C28   C     C_R   0.770767 0.293788 0.623596 0.133714
C29   C     C_R   0.328642 0.200441 0.499627 -0.099825
C30   C     C_R   0.300976 0.827437 0.501190 -0.102155
C31   C     C_R   0.828641 0.700441 0.499620 -0.099833
C32   C     C_R   0.800962 0.327451 0.501173 -0.102171
C33   C     C_R   0.303061 0.236297 0.375223 -0.233462
C34   C     C_R   0.253307 0.810405 0.381976 -0.230299
C35   C     C_R   0.803037 0.736275 0.375211 -0.233466
C36   C     C_R   0.753361 0.310352 0.381916 -0.230393
C37   C     C_R   0.738846 0.801543 0.373890 -0.216051
C38   C     C_R   0.687267 0.246502 0.382722 -0.245231
C39   C     C_R   0.238867 0.301563 0.373903 -0.216022
C40   C     C_R   0.187209 0.746558 0.382788 -0.245323
C41   C     C_R   0.701214 0.830454 0.497049 -0.109156
C42   C     C_R   0.671175 0.199767 0.502089 -0.102364
C43   C     C_R   0.201210 0.330449 0.497056 -0.109181
C44   C     C_R   0.171193 0.699751 0.502110 -0.102357
C45   C     C_R   0.741385 0.808469 0.618410 0.124406
C46   C     C_R   0.706451 0.230239 0.623932 0.143396
C47   C     C_R   0.241353 0.308437 0.618425 0.124387
C48   C     C_R   0.206549 0.730145 0.623943 0.143325
C49   C     C_3   0.700862 0.781023 0.749682 -0.461633
C50   C     C_3   0.749401 0.181011 0.735551 -0.498516
C51   C     C_3   0.200791 0.280946 0.749646 -0.461611
C52   C     C_3   0.249584 0.680843 0.735413 -0.498293
H1    H     H_    0.326756 0.209642 0.279151 0.165603
H2    H     H_    0.270781 0.841394 0.287316 0.163804
H3    H     H_    0.826711 0.709602 0.279139 0.165589
H4    H     H_    0.770892 0.341282 0.287231 0.163845
H5    H     H_    0.334111 0.078127 0.124235 0.209114
H6    H     H_    0.286907 0.963438 0.124241 0.196224
H7    H     H_    0.834134 0.578161 0.124263 0.209113
H8    H     H_    0.786899 0.463484 0.124241 0.196242
H9    H     H_    0.713940 0.823329 0.277324 0.190951
H10   H     H_    0.654083 0.229584 0.288805 0.160626
H11   H     H_    0.213981 0.323369 0.277337 0.190985
H12   H     H_    0.153959 0.729700 0.288902 0.160564
H13   H     H_    0.709979 0.831800 0.831048 0.202545
H14   H     H_    0.773815 0.114690 0.703005 0.206310
H15   H     H_    0.209872 0.331701 0.831054 0.202616
H16   H     H_    0.273989 0.614549 0.702715 0.206197
H17   H     H_    0.631884 0.755221 0.738850 0.208327
H18   H     H_    0.707776 0.182377 0.828814 0.198679
H19   H     H_    0.131821 0.255136 0.738739 0.208307
H20   H     H_    0.208026 0.682130 0.828748 0.198699
H21   H     H_    0.318943 0.218759 0.834063 0.200584
H22   H     H_    0.387486 0.726319 0.701608 0.205721
H23   H     H_    0.819032 0.718836 0.834053 0.200585
H24   H     H_    0.887331 0.226439 0.701869 0.205750
H25   H     H_    0.240803 0.141893 0.739623 0.205631
H26   H     H_    0.321611 0.792768 0.829125 0.200196
H27   H     H_    0.740848 0.641963 0.739709 0.205632
H28   H     H_    0.821395 0.292973 0.829205 0.200282
H29   H     H_    0.637414 0.021793 0.870026 0.157175
H30   H     H_    0.137419 0.521773 0.870032 0.157147
H31   H     H_    0.335946 0.075097 0.882510 0.214738
H32   H     H_    0.286855 0.961506 0.881004 0.198608
H33   H     H_    0.835983 0.575162 0.882547 0.214737
H34   H     H_    0.786840 0.461592 0.881002 0.198598
N1    N     N_R   0.499140 1.000000 0.142800 -0.142992
N2    N     N_R   0.999140 0.500000 0.142800 -0.143018
N3    N     N_R   0.499160 1.000000 0.857150 -0.119467
N4    N     N_R   0.999160 0.500000 0.857150 -0.119499
O1    O     O_R   0.408400 0.908380 0.614690 -0.613869
O2    O     O_R   0.408400 0.091620 0.614690 -0.615835
O3    O     O_R   0.908400 0.408380 0.614690 -0.613861
O4    O     O_R   0.908400 0.591620 0.614690 -0.615830
O5    O     O_R   0.408370 0.908370 0.385350 -0.620196
O6    O     O_R   0.408370 0.091630 0.385350 -0.632037
O7    O     O_R   0.908370 0.408370 0.385350 -0.620202
O8    O     O_R   0.908370 0.591630 0.385350 -0.632035
O9    O     O_R   0.591610 0.091610 0.614650 -0.622350
O10   O     O_R   0.591610 0.908390 0.614650 -0.622713
O11   O     O_R   0.091610 0.591610 0.614650 -0.622335
O12   O     O_R   0.091610 0.408390 0.614650 -0.622705
O13   O     O_R   0.591590 0.091600 0.385310 -0.594812
O14   O     O_R   0.591590 0.908400 0.385310 -0.581314
O15   O     O_R   0.091590 0.591600 0.385310 -0.594918
O16   O     O_R   0.091590 0.408400 0.385310 -0.581323
Zn1   Zn    Zn3+2 0.500010 0.000000 0.653130 0.938946
Zn2   Zn    Zn3+2 0.000010 0.500000 0.653130 0.938951
Zn3   Zn    Zn3+2 0.499980 1.000000 0.346870 0.976027
Zn4   Zn    Zn3+2 0.999980 0.500000 0.346870 0.975987
O17   O     O_3   0.655867 0.008501 0.146048 -0.619022
C53   C     C_3   0.718664 0.073072 0.107092 0.073139
H35   H     H_    0.741679 0.106397 0.201459 0.185586
H36   H     H_    0.691088 0.125977 0.042873 0.090658
C54   C     C_3   0.799437 0.028706 0.039432 -0.363548
H37   H     H_    0.820147 0.971245 0.100243 0.237372
H38   H     H_    0.781939 0.004123 0.936515 0.201946
C55   C     C_3   0.877850 0.092500 0.028686 -0.951463
H39   H     H_    0.858299 0.152592 0.973804 0.274066
H40   H     H_    0.933501 0.059997 0.972768 0.264943
H41   H     H_    0.901295 0.112043 0.131359 0.265533
O18   O     O_3   0.155878 0.508486 0.145997 -0.619072
C56   C     C_3   0.218557 0.573222 0.107238 0.073236
H42   H     H_    0.241496 0.606481 0.201701 0.185715
H43   H     H_    0.190893 0.626148 0.043138 0.090545
C57   C     C_3   0.299428 0.529089 0.039485 -0.363679
H44   H     H_    0.320189 0.471539 0.100057 0.237407
H45   H     H_    0.282018 0.504679 0.936440 0.201954
C58   C     C_3   0.377756 0.593017 0.029120 -0.951179
H46   H     H_    0.358111 0.653241 0.974646 0.273893
H47   H     H_    0.433443 0.560740 0.972968 0.264948
H48   H     H_    0.401195 0.612311 0.131900 0.265505

loop_
_geom_bond_atom_site_label_1
_geom_bond_atom_site_label_2
_ccdc_geom_bond_type
O15   Zn4   S    
C16   N4    A    
C57   H44   S    
O8    Zn4   S    
C4    O8    A    
O17   C53   S    
C51   H15   S    
C53   H36   S    
C7    C27   S    
C56   H42   S    
C6    C26   S    
C19   H5    S    
C58   H47   S    
O4    Zn2   S    
C33   C39   A    
C49   H13   S    
C2    C29   S    
C34   C40   A    
C32   C36   A    
C35   C37   A    
C38   C42   A    
O3    Zn2   S    
O14   Zn3   S    
C21   O9    A    
C6    H26   S    
C22   C41   S    
C54   H37   S    
C23   O15   A    
C13   H29   S    
C8    H24   S    
C22   O14   A    
C42   C46   A    
C55   H39   S    
C14   N4    A    
C9    C19   S    
C29   C33   A    
C11   N1    A    
C54   H38   S    
O12   Zn2   S    
C20   H8    S    
C25   C47   A    
C40   C44   A    
C18   C20   S    
C52   H16   S    
C26   C48   A    
C58   H48   S    
N2    Zn4   S    
C27   C45   A    
O11   Zn2   S    
C1    O1    A    
C49   H17   S    
C25   C29   A    
C51   H19   S    
C53   H35   S    
C6    H22   S    
C19   H6    S    
C33   H1    S    
C18   H33   S    
C22   O10   A    
C12   N2    A    
C11   O17   S    
O1    Zn1   S    
C28   C32   A    
C7    C49   S    
O5    Zn3   S    
C10   C20   S    
C30   C34   A    
C56   C57   S    
C7    H23   S    
C57   C58   S    
C27   C31   A    
C35   H3    S    
C23   C44   S    
C17   H31   S    
C55   H41   S    
C36   H4    S    
C15   N3    A    
C3    O7    A    
O2    Zn1   S    
C37   H9    S    
C45   C49   S    
C1    O5    A    
C54   C55   S    
C10   N2    A    
C52   H20   S    
N3    Zn1   S    
C3    O3    A    
C18   H34   S    
C20   H7    S    
C2    O2    A    
C50   H14   S    
C4    O4    A    
C12   C14   A    
C34   H2    S    
C8    C28   S    
C5    C25   S    
C24   O16   A    
C14   H30   S    
C5    H25   S    
C8    C50   S    
O9    Zn1   S    
C7    H27   S    
C58   H46   S    
O16   Zn4   S    
C15   C17   S    
O10   Zn1   S    
C57   H45   S    
C13   N3    A    
C5    H21   S    
C47   C51   S    
C26   C30   A    
N1    Zn3   S    
C39   H11   S    
O6    Zn3   S    
C46   C50   S    
C40   H12   S    
O13   Zn3   S    
C28   C46   A    
C17   H32   S    
C36   C38   A    
C9    C15   A    
N4    Zn2   S    
C10   C16   A    
C9    N1    A    
O7    Zn4   S    
C11   C13   A    
C23   O11   A    
C31   C35   A    
C2    O6    A    
C1    C30   S    
C17   C19   S    
C24   O12   A    
C37   C41   A    
C3    C32   S    
C55   H40   S    
C50   H18   S    
C4    C31   S    
C56   H43   S    
C21   C42   S    
C21   O13   A    
C48   C52   S    
C12   O18   S    
C39   C43   A    
C16   C18   S    
C8    H28   S    
C24   C43   S    
C41   C45   A    
C5    C51   S    
C6    C52   S    
O18   C56   S    
C43   C47   A    
C53   C54   S    
C44   C48   A    
C38   H10   S    
