data_mof_unit_39818.cif
_audit_creation_date              2012-10-26T20:17:09-0400
_audit_creation_method            fapswitch 2.2
_symmetry_space_group_name_H-M    P1
_symmetry_Int_Tables_number       1
_space_group_crystal_system       triclinic
_cell_length_a                    10.673869
_cell_length_b                    10.91461
_cell_length_c                    9.852924
_cell_angle_alpha                 109.963095
_cell_angle_beta                  99.642528
_cell_angle_gamma                 91.046073
_cell_volume                      1060.12989374

loop_
_atom_site_label
_atom_site_type_symbol
_atom_type_description
_atom_site_fract_x
_atom_site_fract_y
_atom_site_fract_z
_atom_type_partial_charge
C1    C     C_R   0.487003 0.253809 0.442362 0.580708
C2    C     C_3   0.123057 0.495549 0.498368 -0.015841
C3    C     C_3   0.983713 0.554045 0.640511 0.052610
C4    C     C_3   0.016110 0.445438 0.361874 0.073372
C5    C     C_2   0.475176 0.113208 0.415139 0.055722
C6    C     C_2   0.489789 0.885808 0.580277 0.060708
C7    C     C_2   0.412850 0.064094 0.497363 0.091000
C8    C     C_2   0.416944 0.924786 0.477172 0.098593
C9    C     C_2   0.514304 0.505552 0.079702 0.127762
C10   C     C_2   0.496681 0.482927 0.917821 0.111274
C11   C     C_2   0.967032 0.613146 0.797206 0.596408
C12   C     C_R   0.501729 0.746069 0.556780 0.534350
C13   C     C_2   0.032119 0.376972 0.206643 0.606544
C14   C     C_2   0.335389 0.834681 0.340768 0.596440
C15   C     C_2   0.327449 0.138811 0.596003 0.589330
C16   C     C_R   0.259451 0.497342 0.499097 0.589021
C17   C     C_R   0.740492 0.502632 0.501228 0.547873
C18   C     C_3   0.052171 0.427761 0.581714 -0.095893
C19   C     C_3   0.947787 0.572204 0.420559 -0.126905
C20   C     C_3   0.944956 0.380237 0.445109 0.072171
C21   C     C_3   0.055068 0.619682 0.557663 0.042132
C22   C     C_3   0.876940 0.504044 0.503675 -0.033942
Cu1   Cu    Cu3+1 0.522260 0.521810 0.644920 1.011862
Cu2   Cu    Cu3+1 0.477740 0.478190 0.355080 1.010462
H1    H     H_    0.092433 0.368712 0.647923 0.191560
H2    H     H_    0.091700 0.219628 0.061613 0.338213
H3    H     H_    0.323796 0.713302 0.131491 0.346647
H4    H     H_    0.236892 0.152835 0.764206 0.346099
H5    H     H_    0.526688 0.966133 0.801985 0.258531
H6    H     H_    0.654488 0.965628 0.721293 0.244996
H7    H     H_    0.500993 0.037019 0.204609 0.255317
H8    H     H_    0.635120 0.061471 0.332157 0.230214
H9    H     H_    0.705279 0.681594 0.922405 0.276517
H10   H     H_    0.566832 0.746741 0.950437 0.262870
H11   H     H_    0.352105 0.270768 0.061452 0.271809
H12   H     H_    0.904982 0.632511 0.356868 0.166695
H13   H     H_    0.259960 0.396736 0.078947 0.282046
H14   H     H_    0.433461 0.400421 0.841922 0.174591
H15   H     H_    0.590870 0.575381 0.153352 0.172822
H16   H     H_    0.838014 0.232614 0.462958 0.233297
H17   H     H_    0.810835 0.244949 0.295477 0.240052
H18   H     H_    0.165208 0.766608 0.543391 0.267358
H19   H     H_    0.188159 0.754152 0.710029 0.258354
H20   H     H_    0.908115 0.585349 0.968988 0.364956
N1    N     N_2   0.444270 0.445410 0.137360 -0.187724
N2    N     N_2   0.555730 0.554590 0.862640 -0.184820
N3    N     N_3   0.882833 0.248011 0.382963 -0.549501
N4    N     N_3   0.117724 0.751648 0.621356 -0.540560
N5    N     N_3   0.557735 0.981771 0.713626 -0.607652
N6    N     N_3   0.538574 0.028343 0.305642 -0.604262
N7    N     N_3   0.621507 0.670688 0.960085 -0.528177
N8    N     N_3   0.343117 0.359697 0.044226 -0.554696
O1    O     O_R   0.511880 0.332340 0.577400 -0.485987
O2    O     O_R   0.913639 0.535177 0.862874 -0.653164
O3    O     O_2   0.995107 0.424379 0.112780 -0.515223
O4    O     O_R   0.088097 0.258082 0.170072 -0.647726
O5    O     O_2   0.219876 0.825253 0.332225 -0.504120
O6    O     O_R   0.389659 0.768738 0.218926 -0.658470
O7    O     O_2   0.276802 0.231957 0.575461 -0.527208
O8    O     O_R   0.298619 0.096797 0.707187 -0.683618
O9    O     O_R   0.488120 0.667660 0.422600 -0.477199
O10   O     O_R   0.474280 0.295500 0.332650 -0.495048
O11   O     O_R   0.525720 0.704500 0.667350 -0.514657
O12   O     O_R   0.335640 0.518390 0.622350 -0.497003
O13   O     O_R   0.664360 0.481610 0.377650 -0.520330
O14   O     O_R   0.298050 0.481550 0.377590 -0.479072
O15   O     O_R   0.701950 0.518450 0.622410 -0.464668
O16   O     O_2   0.000957 0.728267 0.867081 -0.477821

loop_
_geom_bond_atom_site_label_1
_geom_bond_atom_site_label_2
_ccdc_geom_bond_type
C10   N2    D    
H16   N3    S    
C2    C4    S    
Cu1   Cu2   S    
C9    N1    D    
Cu2   O9    S    
C16   O12   A    
H9    N7    S    
C2    C16   S    
C9    C10   S    
C17   O13   A    
C17   C22   S    
Cu2   O14   S    
C10   H14   S    
C21   N4    S    
C1    O10   A    
C13   O4    S    
C2    C21   S    
Cu1   O11   S    
H17   N3    S    
C7    C8    S    
Cu1   N2    S    
H5    N5    S    
Cu2   O10   S    
C12   O9    A    
C11   O2    S    
H8    N6    S    
H10   N7    S    
C18   H1    S    
Cu2   O13   S    
C1    C5    S    
Cu2   N1    S    
C6    C8    D    
C7    C15   S    
Cu1   O12   S    
C19   C21   S    
H6    N5    S    
C20   C22   S    
Cu1   O1    S    
C18   C20   S    
C19   H12   S    
H4    O8    S    
C6    N5    S    
C6    C12   S    
C14   O6    S    
C8    C14   S    
C5    N6    S    
C3    C21   S    
C20   N3    S    
C16   O14   A    
C17   O15   A    
C4    C20   S    
H20   O2    S    
C9    H15   S    
C19   C22   S    
C3    C11   S    
C11   O16   D    
C3    C18   S    
C5    C7    D    
H19   N4    S    
Cu1   O15   S    
C4    C13   S    
H13   N8    S    
C14   O5    D    
C1    O1    A    
H11   N8    S    
C3    C22   S    
H18   N4    S    
H7    N6    S    
N1    N8    S    
C12   O11   A    
C4    C19   S    
C15   O7    D    
N2    N7    S    
C15   O8    S    
C2    C18   S    
C13   O3    D    
H3    O6    S    
H2    O4    S    
