data_mof_unit_27191.cif
_audit_creation_date              2012-12-10T17:16:34-0500
_audit_creation_method            fapswitch 2.2
_symmetry_space_group_name_H-M    P1
_symmetry_Int_Tables_number       1
_space_group_crystal_system       triclinic
_cell_length_a                    10.098289
_cell_length_b                    10.645274
_cell_length_c                    10.690083
_cell_angle_alpha                 89.87518
_cell_angle_beta                  95.110558
_cell_angle_gamma                 81.796605
_cell_volume                      1132.76438721

loop_
_atom_site_label
_atom_site_type_symbol
_atom_type_description
_atom_site_fract_x
_atom_site_fract_y
_atom_site_fract_z
_atom_type_partial_charge
Br1   Br    Br    0.763279 0.488495 0.942212 -0.395080
Br2   Br    Br    0.236980 0.564647 0.057716 -0.389659
C1    C     C_R   0.443716 0.503916 0.266390 0.853388
C2    C     C_R   0.505827 0.738961 0.517625 0.881226
C3    C     C_R   0.708479 0.083429 0.376258 -0.089311
C4    C     C_R   0.290805 0.917133 0.622117 -0.083065
C5    C     C_R   0.834771 0.010109 0.380224 -0.124088
C6    C     C_R   0.164510 0.990505 0.617866 -0.128313
C7    C     C_R   0.861080 0.898961 0.452193 -0.148762
C8    C     C_R   0.138386 0.101586 0.545796 -0.156747
C9    C     C_R   0.757972 0.856329 0.511531 -0.098161
C10   C     C_R   0.241675 0.144100 0.486657 -0.101063
C11   C     C_R   0.626036 0.923878 0.498290 0.087854
C12   C     C_R   0.556139 0.487002 0.733594 0.850444
C13   C     C_R   0.373536 0.076443 0.500132 0.090020
C14   C     C_R   0.606215 0.045499 0.444193 0.066921
C15   C     C_R   0.393263 0.954860 0.554281 0.061005
C16   C     C_R   0.513479 0.873751 0.536916 -0.240974
C17   C     C_R   0.486157 0.126583 0.461855 -0.239203
C18   C     C_2   0.410884 0.489715 0.133092 0.102822
C19   C     C_2   0.588435 0.463686 0.866977 0.103174
C20   C     C_2   0.506315 0.427985 0.067627 -0.195072
C21   C     C_2   0.491871 0.430048 0.932588 -0.171250
C22   C     C_2   0.071247 0.494341 0.486047 0.077137
C23   C     C_2   0.928714 0.505790 0.513852 0.080042
C24   C     C_R   0.494083 0.261168 0.482042 0.849699
F1    F     F_    0.884962 0.379413 0.351859 -0.586747
F2    F     F_    0.115079 0.620384 0.648282 -0.578834
H1    H     H_    0.038748 0.155880 0.537195 0.176229
H2    H     H_    0.603017 0.386283 0.113648 0.214408
H3    H     H_    0.894679 0.563838 0.591072 0.144445
H4    H     H_    0.105240 0.436425 0.408731 0.142060
H5    H     H_    0.960759 0.844746 0.460643 0.176808
H6    H     H_    0.691111 0.169512 0.319431 0.175480
H7    H     H_    0.308004 0.831235 0.679190 0.189350
H8    H     H_    0.913169 0.041386 0.330328 0.174757
H9    H     H_    0.085994 0.959354 0.667692 0.176650
H10   H     H_    0.782842 0.772027 0.570036 0.159889
H11   H     H_    0.217107 0.228478 0.428218 0.157439
H12   H     H_    0.394571 0.416546 0.886602 0.214662
N1    N     N_2   0.157300 0.551390 0.551120 0.126877
N2    N     N_2   0.842700 0.448610 0.448880 0.127740
O1    O     O_R   0.568940 0.489660 0.307530 -0.583096
O2    O     O_R   0.431060 0.510340 0.692470 -0.586955
O3    O     O_R   0.348880 0.522640 0.340350 -0.602302
O4    O     O_R   0.651120 0.477360 0.659650 -0.604330
O5    O     O_R   0.610030 0.300280 0.483580 -0.595827
O6    O     O_R   0.389970 0.699720 0.516420 -0.588284
O7    O     O_R   0.389970 0.333270 0.516400 -0.636532
O8    O     O_R   0.610030 0.666730 0.483600 -0.626326
Zn1   Zn    Zn3+2 0.646940 0.477980 0.478080 1.045285
Zn2   Zn    Zn3+2 0.353060 0.522020 0.521920 1.044171

loop_
_geom_bond_atom_site_label_1
_geom_bond_atom_site_label_2
_ccdc_geom_bond_type
C23   N2    D    
C23   H3    S    
C9    H10   S    
C7    H5    S    
C22   H4    S    
Br1   C19   S    
C7    C9    A    
C5    H8    S    
N1    Zn2   S    
F1    N2    S    
C10   C13   A    
N2    Zn1   S    
O7    Zn2   S    
C2    C16   S    
C3    H6    S    
O2    Zn2   S    
C10   H11   S    
C15   C16   A    
C1    C18   S    
C12   O4    A    
C22   C23   S    
C13   C17   A    
C22   N1    D    
C9    C11   A    
C8    H1    S    
C1    O1    A    
C8    C10   A    
C24   O5    A    
O1    Zn1   S    
C14   C17   A    
C11   C16   A    
C12   C19   S    
C6    C8    A    
C18   C20   D    
O8    Zn1   S    
C3    C5    A    
C19   C21   D    
C11   C14   A    
C6    H9    S    
Br2   C18   S    
C21   H12   S    
F2    N1    S    
O6    Zn2   S    
C4    H7    S    
C17   C24   S    
C12   O2    A    
C2    O6    A    
C24   O7    A    
C5    C7    A    
C4    C15   A    
C20   C21   S    
C3    C14   A    
C4    C6    A    
C20   H2    S    
O3    Zn2   S    
C13   C15   A    
O4    Zn1   S    
C1    O3    A    
O5    Zn1   S    
C2    O8    A    
