data_mof_unit_47510.cif
_audit_creation_date              2012-12-10T18:05:53-0500
_audit_creation_method            fapswitch 2.2
_symmetry_space_group_name_H-M    P1
_symmetry_Int_Tables_number       1
_space_group_crystal_system       triclinic
_cell_length_a                    12.6569
_cell_length_b                    13.141539
_cell_length_c                    14.907862
_cell_angle_alpha                 91.114949
_cell_angle_beta                  102.830888
_cell_angle_gamma                 82.395602
_cell_volume                      2396.33510904

loop_
_atom_site_label
_atom_site_type_symbol
_atom_type_description
_atom_site_fract_x
_atom_site_fract_y
_atom_site_fract_z
_atom_type_partial_charge
C1    C     C_R   0.439005 0.690987 0.485660 0.843637
C2    C     C_R   0.565649 0.413054 0.103469 0.108317
C3    C     C_R   0.361446 0.644333 0.024146 -0.199872
C4    C     C_R   0.361301 0.646017 0.930973 -0.221220
C5    C     C_R   0.430667 0.572401 0.895157 0.130024
C6    C     C_R   0.500488 0.495667 0.952901 0.069826
C7    C     C_R   0.571607 0.422181 0.917070 0.127661
C8    C     C_R   0.638376 0.344899 0.973611 -0.227059
C9    C     C_R   0.634813 0.339598 0.065766 -0.211448
C10   C     C_R   0.431281 0.573628 0.802299 -0.267317
C11   C     C_R   0.502958 0.501347 0.768372 -0.049282
C12   C     C_R   0.500759 0.501060 0.672612 0.888293
C13   C     C_R   0.573724 0.426717 0.824697 -0.259319
C14   C     C_R   0.702323 0.063164 0.437453 -0.196542
C15   C     C_R   0.595771 0.200074 0.501416 -0.046850
C16   C     C_R   0.299787 0.838232 0.495550 -0.195604
C17   C     C_R   0.270314 0.943185 0.501739 -0.149499
C18   C     C_R   0.343496 0.010460 0.492782 -0.196975
C19   C     C_R   0.446195 0.973293 0.472966 0.085841
C20   C     C_R   0.467653 0.868768 0.452015 0.082973
C21   C     C_R   0.528568 0.036215 0.473605 0.076281
C22   C     C_R   0.622024 0.999380 0.438734 0.173831
C23   C     C_R   0.560818 0.308840 0.509469 0.842939
C24   C     C_R   0.633085 0.900030 0.404761 -0.252996
C25   C     C_R   0.556888 0.835271 0.411324 -0.201369
C26   C     C_R   0.521629 0.134200 0.510368 -0.263701
C27   C     C_R   0.688462 0.164093 0.467621 -0.209291
C28   C     C_R   0.399888 0.800353 0.473712 -0.111366
C29   C     C_R   0.083749 0.347473 0.373467 -0.307867
C30   C     C_R   0.799074 0.631917 0.607588 0.026964
C31   C     C_R   0.903523 0.660653 0.630966 -0.251188
C32   C     C_R   0.985811 0.609926 0.591872 -0.196586
C33   C     C_R   0.963584 0.529644 0.529076 0.030520
C34   C     C_R   0.499204 0.498266 0.327330 0.877823
C35   C     C_R   0.855459 0.503123 0.508031 0.230779
C36   C     C_R   0.042956 0.475800 0.485095 -0.014355
C37   C     C_R   0.011142 0.397849 0.421672 0.154110
C38   C     C_R   0.905955 0.371514 0.404676 -0.281360
C39   C     C_R   0.829118 0.424069 0.446796 -0.201148
C40   C     C_R   0.152431 0.495978 0.500245 -0.091267
C41   C     C_R   0.188833 0.373088 0.387186 0.308899
C42   C     C_R   0.561444 0.409833 0.196797 0.145277
C43   C     C_R   0.497779 0.490972 0.231370 -0.046637
C44   C     C_R   0.430935 0.567384 0.174509 -0.327574
C45   C     C_R   0.429662 0.568043 0.081655 0.125877
C46   C     C_R   0.498824 0.492289 0.046157 0.006318
H1    H     H_    0.701863 0.871602 0.374918 0.151699
H2    H     H_    0.773507 0.036155 0.410246 0.134648
H3    H     H_    0.456540 0.162786 0.543952 0.153533
H4    H     H_    0.245706 0.786651 0.510476 0.151735
H5    H     H_    0.316588 0.091098 0.499419 0.131612
H6    H     H_    0.192428 0.972314 0.517437 0.141237
H7    H     H_    0.567964 0.759091 0.383208 0.175513
H8    H     H_    0.882775 0.310426 0.357542 0.144817
H9    H     H_    0.058004 0.289473 0.323437 0.146858
H10   H     H_    0.380755 0.627126 0.203277 0.147197
H11   H     H_    0.184155 0.551985 0.549060 0.135125
H12   H     H_    0.734958 0.671299 0.637719 0.143300
H13   H     H_    0.065274 0.635257 0.611550 0.133851
H14   H     H_    0.920579 0.722298 0.679059 0.149904
H15   H     H_    0.749079 0.402097 0.429566 0.214827
H16   H     H_    0.308129 0.702464 0.051244 0.146365
H17   H     H_    0.307663 0.705114 0.887112 0.145113
H18   H     H_    0.377062 0.630808 0.756428 0.132571
H19   H     H_    0.627711 0.370773 0.795804 0.140108
H20   H     H_    0.692856 0.288020 0.946383 0.148596
H21   H     H_    0.687811 0.278269 0.106904 0.160962
H22   H     H_    0.746733 0.214878 0.460180 0.153587
N1    N     N_R   0.222190 0.444670 0.452360 -0.117937
N2    N     N_R   0.776970 0.554790 0.547140 -0.134627
O1    O     O_R   0.366740 0.627160 0.477250 -0.616379
O2    O     O_R   0.544830 0.662520 0.507680 -0.619173
O3    O     O_R   0.410940 0.482340 0.616930 -0.613789
O4    O     O_R   0.589030 0.517700 0.647360 -0.614051
O5    O     O_R   0.455170 0.337480 0.492320 -0.636759
O6    O     O_R   0.633260 0.372840 0.522750 -0.636025
O7    O     O_R   0.410970 0.482300 0.352640 -0.622820
O8    O     O_R   0.589060 0.517660 0.383070 -0.631940
Zn1   Zn    Zn3+2 0.381090 0.476390 0.479680 0.928736
Zn2   Zn    Zn3+2 0.618910 0.523610 0.520320 0.928278
C47   C     C_3   0.620157 0.318874 0.257028 -0.953946
H23   H     H_    0.602718 0.321205 0.326508 0.233327
H24   H     H_    0.593387 0.246805 0.225198 0.246145
H25   H     H_    0.709490 0.315693 0.264422 0.234769
C48   C     C_3   0.259666 0.320419 0.326076 -0.386533
C49   C     C_3   0.225388 0.365067 0.228474 -0.848471
H26   H     H_    0.228611 0.449155 0.229515 0.277842
H27   H     H_    0.281849 0.328484 0.186301 0.252656
H28   H     H_    0.141081 0.350385 0.195756 0.247653
H29   H     H_    0.346557 0.324662 0.351370 0.266377
H30   H     H_    0.252284 0.236947 0.323442 0.175015

loop_
_geom_bond_atom_site_label_1
_geom_bond_atom_site_label_2
_ccdc_geom_bond_type
C16   C28   A    
C21   C26   A    
C8    H20   S    
C12   O4    A    
C19   C20   A    
C23   O6    A    
O1    Zn1   S    
C47   H23   S    
C48   H30   S    
C7    C8    A    
C13   H19   S    
C48   C49   S    
C2    C46   A    
C4    H17   S    
C1    O1    A    
C36   C37   A    
C19   C21   A    
C25   H7    S    
C34   O7    A    
C5    C6    A    
C49   H27   S    
C20   C25   A    
C33   C36   A    
C18   C19   A    
C27   H22   S    
C30   N2    A    
C35   N2    A    
C8    C9    A    
C1    C28   S    
C14   C27   A    
C15   C23   S    
O4    Zn2   S    
C12   O3    A    
C42   C47   S    
C17   H6    S    
C47   H24   S    
C18   H5    S    
O7    Zn1   S    
C39   H15   S    
C1    O2    A    
C40   N1    A    
N2    Zn2   S    
C36   C40   A    
C24   C25   A    
C26   H3    S    
C49   H26   S    
C16   C17   A    
C15   C26   A    
C14   H2    S    
C20   C28   A    
C45   C46   A    
C3    C45   A    
C31   H14   S    
C35   C39   A    
C43   C44   A    
C9    H21   S    
C37   C38   A    
C44   H10   S    
C15   C27   A    
C31   C32   A    
C38   H8    S    
C30   C31   A    
C11   C12   S    
C17   C18   A    
O3    Zn1   S    
C22   C24   A    
N1    Zn1   S    
C42   C43   A    
C3    C4    A    
C47   H25   S    
C41   C48   S    
C44   C45   A    
C41   N1    A    
C3    H16   S    
C40   H11   S    
C6    C46   A    
C29   C41   A    
C24   H1    S    
C10   H18   S    
C34   C43   S    
O6    Zn2   S    
C23   O5    A    
C4    C5    A    
C49   H28   S    
C48   H29   S    
C6    C7    A    
C29   H9    S    
C32   C33   A    
C14   C22   A    
C5    C10   A    
O2    Zn2   S    
C34   O8    A    
C11   C13   A    
C38   C39   A    
C2    C42   A    
C30   H12   S    
C33   C35   A    
O8    Zn2   S    
C16   H4    S    
C10   C11   A    
C7    C13   A    
C29   C37   A    
C32   H13   S    
C21   C22   A    
C2    C9    A    
O5    Zn1   S    
