data_mof_unit_60989.cif
_audit_creation_date              2012-10-26T17:29:16-0400
_audit_creation_method            fapswitch 2.2
_symmetry_space_group_name_H-M    P1
_symmetry_Int_Tables_number       1
_space_group_crystal_system       triclinic
_cell_length_a                    28.458553
_cell_length_b                    18.342947
_cell_length_c                    21.728338
_cell_angle_alpha                 90.000341
_cell_angle_beta                  139.920792
_cell_angle_gamma                 89.999332
_cell_volume                      7302.81736741

loop_
_atom_site_label
_atom_site_type_symbol
_atom_type_description
_atom_site_fract_x
_atom_site_fract_y
_atom_site_fract_z
_atom_type_partial_charge
Br1   Br    Br    0.843392 0.945322 0.651608 -0.363400
Br2   Br    Br    0.142678 0.075734 0.457200 -0.368131
Br3   Br    Br    0.125223 0.890164 0.457349 -0.401362
Br4   Br    Br    0.857213 0.075554 0.542711 -0.368236
Br5   Br    Br    0.374933 0.390014 0.542797 -0.401231
Br6   Br    Br    0.642730 0.575647 0.457244 -0.368129
Br7   Br    Br    0.625148 0.390091 0.457280 -0.401345
Br8   Br    Br    0.357210 0.575551 0.542709 -0.368340
Br9   Br    Br    0.119145 0.890884 0.937866 -0.329390
Br10  Br    Br    0.848479 0.047059 0.015444 -0.307769
Br11  Br    Br    0.881009 0.890706 0.062306 -0.329204
Br12  Br    Br    0.120518 0.111990 0.293009 -0.406510
Br13  Br    Br    0.151463 0.047279 0.984492 -0.307635
Br14  Br    Br    0.619149 0.390889 0.937872 -0.329401
Br15  Br    Br    0.348507 0.547165 0.015474 -0.307717
Br16  Br    Br    0.380937 0.390791 0.062224 -0.329277
Br17  Br    Br    0.651462 0.547285 0.984491 -0.307622
Br18  Br    Br    0.141651 0.916613 0.819453 -0.343773
Br19  Br    Br    0.865593 0.083566 0.175171 -0.340646
Br20  Br    Br    0.858471 0.916427 0.180686 -0.343737
Br21  Br    Br    0.134292 0.083745 0.824703 -0.340607
Br22  Br    Br    0.641652 0.416616 0.819455 -0.343803
Br23  Br    Br    0.156692 0.945534 0.348473 -0.363584
Br24  Br    Br    0.365648 0.583653 0.175230 -0.340654
Br25  Br    Br    0.358412 0.416518 0.180618 -0.343732
Br26  Br    Br    0.634290 0.583748 0.824701 -0.340579
Br27  Br    Br    0.879341 0.111824 0.706873 -0.406703
Br28  Br    Br    0.343393 0.445316 0.651610 -0.363368
Br29  Br    Br    0.620586 0.611909 0.293067 -0.406574
Br30  Br    Br    0.656654 0.445430 0.348438 -0.363499
Br31  Br    Br    0.379337 0.611820 0.706870 -0.406740
Br32  Br    Br    0.874932 0.890015 0.542796 -0.401271
C1    C     C_R   0.860069 0.999994 0.859929 0.598961
C2    C     C_R   1.000000 0.139937 0.499999 0.542274
C3    C     C_R   0.500000 0.360062 0.500000 0.561759
C4    C     C_R   0.500000 0.639937 0.499999 0.542274
C5    C     C_R   0.000124 0.997478 0.620429 0.585495
C6    C     C_R   0.999877 0.997467 0.379573 0.585496
C7    C     C_R   0.500124 0.497478 0.620429 0.585497
C8    C     C_R   0.499877 0.497473 0.379572 0.585498
C9    C     C_R   0.500000 0.139490 0.500000 0.555261
C10   C     C_R   0.500000 0.860511 0.500000 0.550499
C11   C     C_R   0.000000 0.639490 0.500000 0.555259
C12   C     C_R   0.139931 0.999993 0.140070 0.598939
C13   C     C_R   1.000000 0.360511 0.500000 0.550500
C14   C     C_R   0.639491 0.999992 0.639547 0.554838
C15   C     C_R   0.360509 0.999991 0.360453 0.554831
C16   C     C_R   0.139491 0.499992 0.639547 0.554837
C17   C     C_R   0.860509 0.499991 0.360453 0.554831
C18   C     C_1   0.000001 0.782471 0.500001 0.008833
C19   C     C_1   0.999999 0.217533 0.499999 -0.017440
C20   C     C_1   0.500001 0.282471 0.500001 0.008833
C21   C     C_1   0.499999 0.717533 0.499999 -0.017444
C22   C     C_1   0.500001 0.217105 0.500001 -0.003709
C23   C     C_R   0.360069 0.499994 0.859929 0.598961
C24   C     C_1   0.499999 0.782898 0.499999 -0.022250
C25   C     C_1   0.000001 0.717105 0.500001 -0.003705
C26   C     C_1   0.999999 0.282898 0.499999 -0.022245
C27   C     C_R   0.996470 0.999765 0.876469 0.640582
C28   C     C_R   0.003533 0.999766 0.123534 0.640586
C29   C     C_R   0.496470 0.499765 0.876469 0.640582
C30   C     C_R   0.503532 0.499765 0.123534 0.640582
C31   C     C_3   0.947253 0.931780 0.732963 0.351262
C32   C     C_3   0.029792 0.076214 0.245205 0.349164
C33   C     C_3   0.052848 0.931848 0.267132 0.351209
C34   C     C_R   0.639931 0.499993 0.140070 0.598948
C35   C     C_3   0.970109 0.076180 0.754702 0.349135
C36   C     C_3   0.447255 0.431778 0.732965 0.351262
C37   C     C_3   0.529840 0.576198 0.245250 0.349147
C38   C     C_3   0.552801 0.431814 0.267087 0.351239
C39   C     C_3   0.470106 0.576179 0.754699 0.349140
C40   C     C_3   0.960296 0.926131 0.674708 0.024576
C41   C     C_3   0.040546 0.066168 0.327027 0.050291
C42   C     C_3   0.039808 0.926172 0.325390 0.024591
C43   C     C_3   0.959363 0.066123 0.672888 0.050313
C44   C     C_3   0.460298 0.426130 0.674709 0.024575
C45   C     C_1   0.717102 0.999984 0.717208 0.015082
C46   C     C_3   0.540590 0.566146 0.327068 0.050301
C47   C     C_3   0.539758 0.426151 0.325343 0.024577
C48   C     C_3   0.459361 0.566122 0.672886 0.050316
C49   C     C_3   0.079502 0.985290 0.868821 0.283168
C50   C     C_3   0.920524 0.985172 0.131206 0.283166
C51   C     C_3   0.579502 0.485293 0.868822 0.283167
C52   C     C_3   0.420512 0.485229 0.131193 0.283164
C53   C     C_3   0.997078 0.998492 0.808307 0.017090
C54   C     C_3   0.002930 0.998492 0.191701 0.017099
C55   C     C_3   0.497078 0.498492 0.808307 0.017093
C56   C     C_1   0.282898 0.999982 0.282791 0.015059
C57   C     C_3   0.502927 0.498492 0.191698 0.017088
C58   C     C_3   0.000064 0.995945 0.689639 -0.082161
C59   C     C_3   0.999942 0.995934 0.310368 -0.082152
C60   C     C_3   0.500064 0.495944 0.689639 -0.082157
C61   C     C_3   0.499939 0.495939 0.310365 -0.082156
C62   C     C_3   0.081944 0.994472 0.798323 0.254395
C63   C     C_3   0.918066 0.994358 0.201689 0.254387
C64   C     C_3   0.581944 0.494474 0.798323 0.254393
C65   C     C_3   0.418061 0.494413 0.201683 0.254391
C66   C     C_1   0.782484 0.999983 0.782473 0.044021
C67   C     C_1   0.217102 0.499984 0.717208 0.015084
C68   C     C_1   0.217516 0.999981 0.217526 0.043987
C69   C     C_1   0.282484 0.499983 0.782473 0.044023
C70   C     C_1   0.717516 0.499981 0.217526 0.044004
C71   C     C_3   0.934772 0.800931 0.729116 0.055200
C72   C     C_3   0.934045 0.745785 0.781056 -0.254679
C73   C     C_3   0.898425 0.674180 0.725874 -0.444522
C74   C     C_3   0.987186 0.201444 0.183393 0.080434
C75   C     C_3   0.019425 0.240992 0.271773 -0.283646
C76   C     C_3   0.029692 0.322091 0.269063 -0.443590
C77   C     C_3   0.065523 0.801020 0.271147 0.055153
C78   C     C_1   0.782898 0.499982 0.282791 0.015069
C79   C     C_3   0.066492 0.745952 0.219394 -0.254744
C80   C     C_3   0.102253 0.674409 0.274697 -0.444404
C81   C     C_3   0.012540 0.201466 0.816342 0.080443
C82   C     C_3   0.980233 0.240972 0.727900 -0.283671
C83   C     C_3   0.969851 0.322055 0.730501 -0.443607
C84   C     C_3   0.434778 0.300928 0.729123 0.055194
C85   C     C_3   0.434024 0.245794 0.781045 -0.254677
C86   C     C_3   0.398405 0.174188 0.725866 -0.444512
C87   C     C_3   0.487317 0.701456 0.183520 0.080435
C88   C     C_3   0.519587 0.740984 0.271929 -0.283653
C89   C     C_R   0.000000 0.860062 0.500000 0.561752
C90   C     C_3   0.529906 0.822076 0.269270 -0.443593
C91   C     C_3   0.565378 0.300974 0.271021 0.055176
C92   C     C_3   0.566235 0.245863 0.219184 -0.254705
C93   C     C_3   0.601870 0.174268 0.274390 -0.444480
C94   C     C_3   0.512533 0.701467 0.816335 0.080448
C95   C     C_3   0.480224 0.740971 0.727891 -0.283677
C96   C     C_3   0.469840 0.822054 0.730490 -0.443621
Cu1   Cu    Cu3+1 1.000000 0.927450 0.000000 1.098436
Cu2   Cu    Cu3+1 0.500040 1.000000 0.562520 1.036533
Cu3   Cu    Cu3+1 0.999960 0.500000 0.437480 1.036585
Cu4   Cu    Cu3+1 0.000040 0.500000 0.562520 1.036542
Cu5   Cu    Cu3+1 0.000000 0.072550 0.000000 1.092370
Cu6   Cu    Cu3+1 0.500000 0.427450 0.000000 1.098443
Cu7   Cu    Cu3+1 0.500000 0.572550 0.000000 1.092366
Cu8   Cu    Cu3+1 0.927450 1.000000 0.427440 1.164300
Cu9   Cu    Cu3+1 0.072550 0.000000 0.572560 1.164353
Cu10  Cu    Cu3+1 0.427450 0.500000 0.427440 1.164289
Cu11  Cu    Cu3+1 0.572550 0.500000 0.572560 1.164347
Cu12  Cu    Cu3+1 0.499960 1.000000 0.437480 1.036560
H1    H     H_    0.999076 0.880811 0.705473 0.157856
H2    H     H_    0.877701 0.809176 0.656571 0.204503
H3    H     H_    0.990975 0.734857 0.853224 0.199899
H4    H     H_    0.903362 0.768961 0.789879 0.192625
H5    H     H_    0.840869 0.683596 0.654201 0.198400
H6    H     H_    0.899027 0.635374 0.765691 0.174446
H7    H     H_    0.928832 0.649530 0.717316 0.170910
H8    H     H_    0.934297 0.228251 0.119783 0.188081
H9    H     H_    0.019840 0.209673 0.173738 0.175210
H10   H     H_    0.981960 0.234841 0.274117 0.190197
H11   H     H_    0.073313 0.217656 0.338017 0.216195
H12   H     H_    0.015069 0.113012 0.325389 0.151567
H13   H     H_    0.067719 0.329980 0.267912 0.182418
H14   H     H_    0.053029 0.349197 0.333700 0.178608
H15   H     H_    0.976451 0.348012 0.204786 0.168685
H16   H     H_    0.033639 0.777309 0.277808 0.162691
H17   H     H_    0.122541 0.809362 0.343739 0.204469
H18   H     H_    0.009622 0.734908 0.147187 0.199784
H19   H     H_    0.097203 0.769261 0.210669 0.192691
H20   H     H_    0.159745 0.683946 0.346439 0.198422
H21   H     H_    0.101865 0.635675 0.235039 0.174540
H22   H     H_    0.071793 0.649606 0.283103 0.170957
H23   H     H_    0.001092 0.880793 0.294680 0.157888
H24   H     H_    0.065394 0.228347 0.879909 0.188074
H25   H     H_    0.979884 0.209647 0.825999 0.175212
H26   H     H_    0.017700 0.234877 0.725552 0.190180
H27   H     H_    0.926377 0.217559 0.661695 0.216183
H28   H     H_    0.931819 0.329886 0.731653 0.182460
H29   H     H_    0.946468 0.349131 0.665823 0.178639
H30   H     H_    0.023056 0.348051 0.794738 0.168604
H31   H     H_    0.466640 0.277324 0.722383 0.162642
H32   H     H_    0.377714 0.309175 0.656567 0.204509
H33   H     H_    0.490945 0.234866 0.853225 0.199882
H34   H     H_    0.984773 0.113003 0.674459 0.151570
H35   H     H_    0.403324 0.268983 0.789838 0.192634
H36   H     H_    0.340858 0.183605 0.654177 0.198425
H37   H     H_    0.398982 0.135393 0.765667 0.174444
H38   H     H_    0.428831 0.149523 0.717344 0.170904
H39   H     H_    0.434444 0.728298 0.119930 0.188073
H40   H     H_    0.519973 0.709661 0.173866 0.175210
H41   H     H_    0.482121 0.734858 0.274275 0.190188
H42   H     H_    0.573461 0.717612 0.338155 0.216194
H43   H     H_    0.567934 0.829940 0.268117 0.182439
H44   H     H_    0.553265 0.849168 0.333926 0.178626
H45   H     H_    0.499078 0.380809 0.705474 0.157857
H46   H     H_    0.476681 0.848032 0.205012 0.168642
H47   H     H_    0.533506 0.277325 0.277726 0.162678
H48   H     H_    0.622421 0.309266 0.343593 0.204468
H49   H     H_    0.509341 0.234907 0.146970 0.199865
H50   H     H_    0.596976 0.269087 0.210471 0.192626
H51   H     H_    0.659366 0.183721 0.346161 0.198395
H52   H     H_    0.601451 0.135520 0.234712 0.174502
H53   H     H_    0.571345 0.149525 0.282723 0.170921
H54   H     H_    0.565386 0.728350 0.879900 0.188076
H55   H     H_    0.479876 0.709646 0.825992 0.175211
H56   H     H_    0.515145 0.613008 0.325463 0.151567
H57   H     H_    0.517690 0.734877 0.725542 0.190182
H58   H     H_    0.426368 0.717558 0.661686 0.216168
H59   H     H_    0.431809 0.829885 0.731644 0.182453
H60   H     H_    0.446455 0.849129 0.665810 0.178629
H61   H     H_    0.523045 0.848052 0.794725 0.168609
H62   H     H_    0.501011 0.380801 0.294606 0.157865
H63   H     H_    0.484769 0.613002 0.674456 0.151572
H64   H     H_    0.966620 0.777337 0.722348 0.162637
O1    O     O_R   0.894190 0.938730 0.894180 -0.500703
O2    O     O_R   0.000020 0.061270 0.091170 -0.473219
O3    O     O_R   0.000020 0.938730 0.091170 -0.445113
O4    O     O_R   0.999980 0.061270 0.908830 -0.473198
O5    O     O_R   0.499980 0.438730 0.908830 -0.445122
O6    O     O_R   0.500020 0.561270 0.091170 -0.473210
O7    O     O_R   0.500020 0.438730 0.091170 -0.445113
O8    O     O_R   0.499980 0.561270 0.908830 -0.473198
O9    O     O_R   0.938700 0.894210 0.438700 -0.483514
O10   O     O_R   0.061300 0.105790 0.561300 -0.495929
O11   O     O_R   0.061300 0.894210 0.561300 -0.483596
O12   O     O_R   0.105810 0.061270 0.105820 -0.487838
O13   O     O_R   0.938700 0.105790 0.438700 -0.496032
O14   O     O_R   0.438700 0.394210 0.438700 -0.483526
O15   O     O_R   0.561300 0.605790 0.561300 -0.495945
O16   O     O_R   0.561300 0.394210 0.561300 -0.483579
O17   O     O_R   0.438700 0.605790 0.438700 -0.496025
O18   O     O_R   0.938740 0.000000 0.529880 -0.438067
O19   O     O_R   0.061260 1.000000 0.470120 -0.438040
O20   O     O_R   0.438740 0.500000 0.529880 -0.438066
O21   O     O_R   0.561260 0.500000 0.470120 -0.438051
O22   O     O_R   0.061220 0.000000 0.652370 -0.462992
O23   O     O_R   0.105810 0.938730 0.105820 -0.500799
O24   O     O_R   0.938780 0.000000 0.347630 -0.463000
O25   O     O_R   0.561220 0.500000 0.652370 -0.462991
O26   O     O_R   0.438780 0.500000 0.347630 -0.462998
O27   O     O_R   0.499910 0.105770 0.447130 -0.497017
O28   O     O_R   0.500090 0.894230 0.552870 -0.506206
O29   O     O_R   0.500090 0.105770 0.552870 -0.497030
O30   O     O_R   0.499910 0.894230 0.447130 -0.506211
O31   O     O_R   0.999910 0.605770 0.447130 -0.497007
O32   O     O_R   0.000090 0.394230 0.552870 -0.506203
O33   O     O_R   0.000090 0.605770 0.552870 -0.497033
O34   O     O_R   0.894190 0.061270 0.894180 -0.487911
O35   O     O_R   0.999910 0.394230 0.447130 -0.506220
O36   O     O_R   0.605760 1.000000 0.553010 -0.495480
O37   O     O_R   0.394240 0.000000 0.446990 -0.495496
O38   O     O_R   0.105760 0.500000 0.553010 -0.495473
O39   O     O_R   0.894240 0.500000 0.446990 -0.495492
O40   O     O_R   0.605780 0.000000 0.658540 -0.487432
O41   O     O_R   0.394220 1.000000 0.341460 -0.487431
O42   O     O_R   0.105780 0.500000 0.658540 -0.487434
O43   O     O_R   0.894220 0.500000 0.341460 -0.487434
O44   O     O_3   0.969306 0.865651 0.784568 -0.523494
O45   O     O_R   0.394190 0.438730 0.894180 -0.500717
O46   O     O_3   0.970885 0.126906 0.178265 -0.533894
O47   O     O_3   0.030889 0.865694 0.215611 -0.523504
O48   O     O_3   0.028945 0.126951 0.821569 -0.533874
O49   O     O_3   0.469311 0.365650 0.784573 -0.523496
O50   O     O_3   0.470966 0.626928 0.178345 -0.533883
O51   O     O_3   0.530799 0.365672 0.215527 -0.523492
O52   O     O_3   0.528941 0.626953 0.821564 -0.533872
O53   O     O_R   0.605810 0.561270 0.105820 -0.487853
O54   O     O_R   0.605810 0.438730 0.105820 -0.500765
O55   O     O_R   0.394190 0.561270 0.894180 -0.487897
O56   O     O_R   0.999980 0.938730 0.908830 -0.445119

loop_
_geom_bond_atom_site_label_1
_geom_bond_atom_site_label_2
_ccdc_geom_bond_type
C27   O4    A    
C6    O19   A    
Br8   C48   S    
C51   C55   S    
C95   H58   S    
C94   C95   S    
Cu9   O10   S    
C12   C68   S    
C28   O2    A    
C34   C70   S    
C32   C41   S    
C92   H49   S    
C79   C80   S    
C13   O32   A    
Br16  C52   S    
C8    C61   S    
C83   H29   S    
Cu1   O56   S    
Cu2   Cu12  S    
C3    O16   A    
C13   O35   A    
C82   C83   S    
Cu8   O9    S    
C2    O13   A    
C82   H27   S    
Br32  C40   S    
Cu5   O4    S    
C31   O44   S    
C56   C68   T    
C1    O1    A    
C2    C19   S    
C36   O49   S    
C81   O48   S    
C5    C58   S    
C52   C65   S    
C89   O11   A    
C52   C57   S    
C6    O24   A    
Br28  C36   S    
C79   H18   S    
C5    O18   A    
C47   C61   S    
C77   C79   S    
C81   H25   S    
C42   H23   S    
Br12  C32   S    
Cu2   O37   S    
C90   H46   S    
C48   H63   S    
C74   C75   S    
C73   H6    S    
C46   C61   S    
C73   H7    S    
C30   C57   S    
Br13  C49   S    
C71   C72   S    
Cu12  O36   S    
C17   O39   A    
C74   H8    S    
C84   C85   S    
C84   H32   S    
C1    C66   S    
C8    O21   A    
C77   H16   S    
Br3   C42   S    
C79   H19   S    
C71   H64   S    
C72   C73   S    
Br4   C43   S    
C16   O42   A    
C4    C21   S    
C29   C55   S    
C43   C58   S    
C10   C24   S    
C75   H10   S    
Cu2   O40   S    
Cu11  O16   S    
C76   H13   S    
C9    O27   A    
Cu3   O35   S    
C30   O7    A    
C72   H4    S    
C82   H26   S    
C1    O34   A    
Cu10  O26   S    
C14   O36   A    
C40   C58   S    
C11   O33   A    
C88   H41   S    
C91   O51   S    
Cu6   O54   S    
C75   H11   S    
C35   O48   S    
C85   H35   S    
C33   C54   S    
Cu7   O8    S    
Cu8   O24   S    
C77   H17   S    
C74   H9    S    
Cu9   O11   S    
C43   H34   S    
Cu12  O30   S    
Cu5   O12   S    
C37   C46   S    
C18   C89   S    
C87   H39   S    
Br14  C51   S    
C83   H30   S    
C37   C57   S    
C27   O56   A    
Br1   C31   S    
C4    O15   A    
C32   C54   S    
C39   C48   S    
Br30  C38   S    
C88   C90   S    
C37   O50   S    
C58   C62   S    
Br29  C37   S    
C84   O49   S    
Br11  C50   S    
Br26  C64   S    
C40   H1    S    
C50   C63   S    
C13   C26   S    
C35   C53   S    
Cu7   O53   S    
C87   H40   S    
Br24  C65   S    
C91   C92   S    
C93   H53   S    
C41   C59   S    
C16   O38   A    
C2    O10   A    
C15   O37   A    
C28   C54   S    
C46   H56   S    
Cu8   O13   S    
Cu10  O17   S    
Cu3   O31   S    
Cu5   O2    S    
C50   C54   S    
C6    C59   S    
Br10  C50   S    
C87   O50   S    
C33   C42   S    
Cu12  O41   S    
C84   H31   S    
Br17  C51   S    
C29   O8    A    
C89   O9    A    
C42   C59   S    
C48   C60   S    
Cu4   O33   S    
C27   C53   S    
Cu9   O22   S    
C80   H21   S    
Cu1   O1    S    
C94   H54   S    
Cu4   O39   S    
C71   H2    S    
Br27  C35   S    
Cu2   O28   S    
C92   H50   S    
C75   C76   S    
C47   H62   S    
C73   H5    S    
Cu1   O23   S    
C23   O45   A    
C30   O6    A    
C72   H3    S    
C20   C22   T    
C45   C66   T    
C93   H51   S    
C19   C26   T    
C29   O5    A    
C9    C22   S    
Cu4   O32   S    
C17   O43   A    
Br2   C41   S    
Cu3   O43   S    
C44   C60   S    
C74   O46   S    
C32   O46   S    
C86   H38   S    
Br25  C65   S    
C5    O22   A    
C67   C69   T    
Br20  C63   S    
Cu1   Cu5   S    
C33   O47   S    
C41   H12   S    
Br18  C62   S    
C39   C55   S    
C7    O20   A    
C70   C78   T    
C38   C57   S    
C35   C43   S    
Cu5   O34   S    
C8    O26   A    
C95   C96   S    
C3    O14   A    
C61   C65   S    
C7    C60   S    
C15   O41   A    
Br19  C63   S    
C90   H44   S    
Br7   C47   S    
C81   C82   S    
C21   C24   T    
C85   H33   S    
C16   C67   S    
Cu9   O19   S    
C77   O47   S    
Cu6   O7    S    
C80   H20   S    
C38   C47   S    
C12   O12   A    
C18   C25   T    
Br22  C64   S    
Cu11  O25   S    
Cu8   Cu9   S    
C34   O54   A    
Cu3   O38   S    
C38   O51   S    
C14   C45   S    
C87   C88   S    
C28   O3    A    
C7    O25   A    
Br15  C52   S    
C36   C44   S    
C80   H22   S    
C23   C69   S    
Cu2   O29   S    
Cu7   O55   S    
C71   O44   S    
Cu11  O21   S    
C95   H57   S    
C15   C56   S    
Br23  C33   S    
Br5   C44   S    
C94   H55   S    
C96   H59   S    
C14   O40   A    
C11   O31   A    
C85   C86   S    
C81   H24   S    
C49   C62   S    
C10   O30   A    
Cu4   O42   S    
C76   H15   S    
C9    O29   A    
Cu1   O3    S    
C51   C64   S    
C4    O17   A    
Br31  C39   S    
Cu10  O20   S    
C60   C64   S    
C93   H52   S    
C23   O55   A    
C96   H61   S    
C91   H47   S    
Cu6   Cu7   S    
C12   O23   A    
C49   C53   S    
C39   O52   S    
Br6   C46   S    
Cu10  Cu11  S    
C11   C25   S    
C59   C63   S    
C34   O53   A    
C86   H37   S    
Cu11  O15   S    
Br21  C62   S    
Cu7   O6    S    
Cu8   O18   S    
C31   C40   S    
Cu10  O14   S    
Cu12  O27   S    
C91   H48   S    
C76   H14   S    
C3    C20   S    
Cu6   O5    S    
C36   C55   S    
C90   H43   S    
C92   C93   S    
C94   O52   S    
Cu6   O45   S    
C83   H28   S    
C88   H42   S    
C96   H60   S    
C86   H36   S    
C31   C53   S    
C44   H45   S    
Cu3   Cu4   S    
Br9   C49   S    
C17   C78   S    
C10   O28   A    
