data_mof_unit_19269.cif
_audit_creation_date              2012-12-10T17:31:29-0500
_audit_creation_method            fapswitch 2.2
_symmetry_space_group_name_H-M    P1
_symmetry_Int_Tables_number       1
_space_group_crystal_system       triclinic
_cell_length_a                    19.010578
_cell_length_b                    18.387841
_cell_length_c                    12.352854
_cell_angle_alpha                 90.031694
_cell_angle_beta                  129.11414
_cell_angle_gamma                 89.958675
_cell_volume                      3350.37810216

loop_
_atom_site_label
_atom_site_type_symbol
_atom_type_description
_atom_site_fract_x
_atom_site_fract_y
_atom_site_fract_z
_atom_type_partial_charge
C1    C     C_R   0.613113 0.898333 0.653757 0.805423
C2    C     C_R   0.613867 0.100969 0.654791 0.805758
C3    C     C_R   0.113024 0.398261 0.653618 0.805443
C4    C     C_R   0.113084 0.601666 0.653751 0.805666
C5    C     C_R   0.238180 0.782446 0.029002 0.061037
C6    C     C_R   0.239115 0.218818 0.030905 0.044648
C7    C     C_R   0.740330 0.281131 0.031093 0.062442
C8    C     C_R   0.738239 0.717630 0.029055 0.060901
C9    C     C_R   0.656636 0.283152 0.007135 0.109978
C10   C     C_R   0.656422 0.718884 0.010563 0.110460
C11   C     C_R   0.156451 0.781158 0.010759 0.110866
C12   C     C_R   0.158221 0.221823 0.014836 0.147547
C13   C     C_R   0.580295 0.250461 0.886831 -0.243091
C14   C     C_R   0.580111 0.752939 0.892381 -0.243982
C15   C     C_R   0.080141 0.747073 0.892679 -0.243682
C16   C     C_R   0.081677 0.255639 0.896830 -0.222677
C17   C     C_R   0.587187 0.212632 0.796765 -0.182919
C18   C     C_R   0.585681 0.789196 0.799586 -0.182334
C19   C     C_R   0.085651 0.710805 0.799771 -0.182527
C20   C     C_R   0.086329 0.290397 0.801940 -0.204733
C21   C     C_R   0.314424 0.815926 0.148216 -0.259694
C22   C     C_R   0.314994 0.184420 0.148960 -0.261315
C23   C     C_R   0.816204 0.314014 0.151853 -0.260664
C24   C     C_R   0.814471 0.684154 0.148359 -0.259703
C25   C     C_R   0.229252 0.851491 0.223824 -0.170319
C26   C     C_R   0.230875 0.151426 0.227596 -0.230108
C27   C     C_R   0.727500 0.354522 0.218552 -0.169609
C28   C     C_R   0.729131 0.648541 0.223564 -0.170580
C29   C     C_R   0.681753 0.157822 0.744423 -0.115024
C30   C     C_R   0.678602 0.839263 0.740006 -0.116849
C31   C     C_R   0.178491 0.660764 0.739895 -0.116961
C32   C     C_R   0.178281 0.338992 0.739497 -0.115765
C33   C     C_R   0.684510 0.999687 0.286120 -0.306237
C34   C     C_R   0.184516 0.499794 0.286136 -0.308442
C35   C     C_R   0.343571 0.000066 0.627524 0.068809
C36   C     C_R   0.843572 0.500148 0.627526 0.071675
C37   C     C_R   0.309198 0.000098 0.699234 -0.250270
C38   C     C_R   0.809203 0.500293 0.699240 -0.247469
C39   C     C_R   0.383996 0.098727 0.342331 0.803142
C40   C     C_R   0.383874 0.901427 0.342093 0.802480
C41   C     C_R   0.883857 0.598589 0.342102 0.801952
C42   C     C_R   0.883853 0.401499 0.342060 0.801076
C43   C     C_R   0.367922 0.000064 0.844766 -0.193002
C44   C     C_R   0.867929 0.500259 0.844773 -0.193174
C45   C     C_R   0.462564 1.000000 0.921266 -0.009767
C46   C     C_R   0.962571 0.500078 0.921272 -0.009164
C47   C     C_R   0.494742 0.999970 0.842850 0.285910
C48   C     C_R   0.994746 0.499989 0.842853 0.284512
C49   C     C_R   0.526359 0.999962 0.071989 -0.040630
C50   C     C_R   0.026366 0.500013 0.071996 -0.040810
C51   C     C_R   0.620383 0.999813 0.140016 0.174013
C52   C     C_R   0.120390 0.499875 0.140027 0.172675
C53   C     C_R   0.650236 0.999803 0.062198 -0.271772
C54   C     C_R   0.150241 0.499841 0.062206 -0.272110
C55   C     C_R   0.589076 0.999922 0.917520 -0.169944
C56   C     C_R   0.089080 0.499925 0.917526 -0.169792
C57   C     C_R   0.501707 0.000069 0.159542 0.010117
C58   C     C_R   0.001711 0.500070 0.159544 0.009645
C59   C     C_R   0.655910 0.999759 0.365545 0.089416
C60   C     C_R   0.155913 0.499859 0.365561 0.089444
C61   C     C_R   0.651228 0.319238 0.103284 0.151664
C62   C     C_R   0.652815 0.684701 0.109958 0.151706
C63   C     C_R   0.152933 0.815329 0.110306 0.151847
C64   C     C_R   0.154902 0.189328 0.115430 0.163276
C65   C     C_R   0.309198 0.853112 0.240814 -0.107875
C66   C     C_R   0.309904 0.147810 0.242089 -0.082745
C67   C     C_R   0.809135 0.353385 0.240538 -0.106955
C68   C     C_R   0.809166 0.646943 0.240805 -0.108224
C69   C     C_R   0.762237 0.161450 0.760213 0.162380
C70   C     C_R   0.756311 0.830949 0.748992 0.168113
C71   C     C_R   0.256075 0.669152 0.748579 0.168344
C72   C     C_R   0.255361 0.329883 0.747011 0.165960
C73   C     C_R   0.321962 0.720124 0.839667 -0.197837
C74   C     C_R   0.321314 0.278961 0.838274 -0.199741
C75   C     C_R   0.830736 0.209524 0.856077 -0.189804
C76   C     C_R   0.822279 0.780030 0.840229 -0.198075
C77   C     C_R   0.316498 0.758447 0.930628 -0.212054
C78   C     C_R   0.316360 0.241309 0.930291 -0.209427
C79   C     C_R   0.824012 0.250042 0.943745 -0.218565
C80   C     C_R   0.816769 0.741704 0.931081 -0.212398
C81   C     C_R   0.746248 0.245468 0.934997 0.096521
C82   C     C_R   0.742241 0.751007 0.929401 0.096841
C83   C     C_R   0.242099 0.749082 0.929215 0.096993
C84   C     C_R   0.242468 0.251369 0.929989 0.096457
C85   C     C_R   0.671148 0.204649 0.824808 0.031964
C86   C     C_R   0.668266 0.793958 0.822473 0.032102
C87   C     C_R   0.168173 0.706077 0.822439 0.031983
C88   C     C_R   0.168452 0.294368 0.823241 0.033537
Cu1   Cu    Cu3+1 0.526340 1.000000 0.421010 0.955879
Cu2   Cu    Cu3+1 0.026340 0.500000 0.421010 0.954396
Cu3   Cu    Cu3+1 0.473640 0.000000 0.578990 0.913084
Cu4   Cu    Cu3+1 0.973640 0.500000 0.578990 0.912820
H1    H     H_    0.224829 0.880622 0.295646 0.161207
H2    H     H_    0.227408 0.123052 0.300970 0.145314
H3    H     H_    0.721786 0.385344 0.287512 0.160837
H4    H     H_    0.724642 0.619388 0.295247 0.161755
H5    H     H_    0.722178 0.999729 0.113908 0.153622
H6    H     H_    0.222182 0.499769 0.113917 0.154360
H7    H     H_    0.756544 0.999525 0.338723 0.138599
H8    H     H_    0.256550 0.499683 0.338740 0.138882
H9    H     H_    0.431733 0.000198 0.116545 0.126226
H10   H     H_    0.931737 0.500154 0.116546 0.126992
H11   H     H_    0.297262 0.000101 0.514665 0.121598
H12   H     H_    0.797263 0.500188 0.514668 0.123135
H13   H     H_    0.337538 0.000078 0.894657 0.138618
H14   H     H_    0.837546 0.500388 0.894664 0.138833
H15   H     H_    0.236606 0.000150 0.641661 0.146497
H16   H     H_    0.736611 0.500439 0.641670 0.148363
H17   H     H_    0.619284 0.999979 0.868546 0.207658
H18   H     H_    0.119285 0.499962 0.868549 0.208220
H19   H     H_    0.514463 0.253364 0.861107 0.134563
H20   H     H_    0.515426 0.752481 0.870646 0.135299
H21   H     H_    0.015515 0.747505 0.871126 0.135313
H22   H     H_    0.017496 0.255739 0.876912 0.159669
H23   H     H_    0.379527 0.814195 0.171912 0.157627
H24   H     H_    0.379643 0.184812 0.171165 0.157237
H25   H     H_    0.882411 0.310582 0.179687 0.153352
H26   H     H_    0.879622 0.685891 0.172223 0.157611
H27   H     H_    0.370386 0.796749 0.997897 0.139879
H28   H     H_    0.370345 0.203082 0.997619 0.139652
H29   H     H_    0.880127 0.285851 0.014797 0.140800
H30   H     H_    0.870736 0.703455 0.998489 0.139917
H31   H     H_    0.379523 0.728516 0.842805 0.128485
H32   H     H_    0.378599 0.270120 0.840794 0.129097
H33   H     H_    0.891217 0.213736 0.865679 0.158399
H34   H     H_    0.879935 0.771683 0.843574 0.128520
H35   H     H_    0.524890 0.191417 0.702904 0.170206
H36   H     H_    0.523241 0.811378 0.707465 0.173407
H37   H     H_    0.023211 0.688597 0.707734 0.173442
H38   H     H_    0.023594 0.312137 0.709705 0.176542
H39   H     H_    0.705302 0.999591 0.478176 0.156617
H40   H     H_    0.205306 0.499787 0.478209 0.155170
N1    N     N_R   0.566260 0.000000 0.302220 -0.179906
N2    N     N_R   0.066260 0.500000 0.302220 -0.180147
N3    N     N_R   0.434410 1.000000 0.697680 -0.205622
N4    N     N_R   0.934410 0.500000 0.697680 -0.206712
O1    O     O_R   0.608610 0.924520 0.551740 -0.537178
O2    O     O_R   0.608610 0.075480 0.551740 -0.538621
O3    O     O_R   0.108610 0.424520 0.551740 -0.538906
O4    O     O_R   0.108610 0.575480 0.551740 -0.537357
O5    O     O_R   0.564110 0.924510 0.685150 -0.612268
O6    O     O_R   0.564110 0.075490 0.685150 -0.611119
O7    O     O_R   0.064110 0.424510 0.685150 -0.611267
O8    O     O_R   0.064110 0.575490 0.685150 -0.611830
O9    O     O_R   0.435880 0.075470 0.314850 -0.586874
O10   O     O_R   0.435880 0.924530 0.314850 -0.584952
O11   O     O_R   0.935880 0.575470 0.314850 -0.584809
O12   O     O_R   0.935880 0.424530 0.314850 -0.585178
O13   O     O_R   0.391380 0.075460 0.448260 -0.595217
O14   O     O_R   0.391380 0.924540 0.448260 -0.596202
O15   O     O_R   0.891380 0.575460 0.448260 -0.596443
O16   O     O_R   0.891380 0.424540 0.448260 -0.595763
N5    N     N_3   0.568867 0.322799 0.084675 -0.603554
H41   H     H_    0.547159 0.269813 0.079970 0.218730
H42   H     H_    0.519674 0.349329 0.990538 0.210147
N6    N     N_3   0.572156 0.683918 0.096322 -0.603851
H43   H     H_    0.552295 0.737582 0.092009 0.218942
H44   H     H_    0.521072 0.657411 0.003360 0.210810
N7    N     N_3   0.072364 0.816097 0.096918 -0.604980
H45   H     H_    0.052587 0.762431 0.092615 0.219039
H46   H     H_    0.021193 0.842616 0.004025 0.210862
N8    N     N_3   0.073875 0.193260 0.101290 -0.624005
H47   H     H_    0.066374 0.247243 0.119133 0.212282
H48   H     H_    0.080689 0.162136 0.178259 0.218422
N9    N     N_3   0.776036 0.115287 0.681505 -0.581729
H49   H     H_    0.834352 0.084206 0.751545 0.211968
H50   H     H_    0.787639 0.148230 0.625202 0.215367
N10   N     N_3   0.769733 0.874755 0.667407 -0.580363
H51   H     H_    0.830725 0.903113 0.735509 0.203861
H52   H     H_    0.776127 0.840163 0.606824 0.216289
N11   N     N_3   0.269440 0.625396 0.666795 -0.580716
H53   H     H_    0.330549 0.597124 0.734754 0.203465
H54   H     H_    0.275576 0.660019 0.606025 0.216407
N12   N     N_3   0.268176 0.372857 0.663878 -0.581498
H55   H     H_    0.329425 0.401033 0.730906 0.203764
H56   H     H_    0.273738 0.337697 0.603040 0.213113

loop_
_geom_bond_atom_site_label_1
_geom_bond_atom_site_label_2
_ccdc_geom_bond_type
C26   H2    S    
C74   H32   S    
N11   H53   S    
C25   H1    S    
N9    H49   S    
C8    C24   A    
C76   H34   S    
C14   C18   A    
C83   C87   A    
C63   N7    S    
C21   H23   S    
C42   O12   A    
C60   H40   S    
Cu3   N3    S    
Cu2   O3    S    
C32   C72   A    
C80   H30   S    
C78   H28   S    
C58   N2    A    
C14   H20   S    
C79   H29   S    
C59   H39   S    
C18   C86   A    
C2    C29   S    
C17   C85   A    
N6    H43   S    
C28   C68   A    
C5    C11   A    
C35   H11   S    
C6    C12   A    
Cu2   N2    S    
N10   H52   S    
C77   C83   A    
Cu3   O13   S    
C6    C22   A    
C49   C57   A    
C48   C56   A    
C43   H13   S    
C45   C47   A    
C23   C67   A    
Cu4   O7    S    
C26   C64   A    
N12   H55   S    
C22   C66   A    
C9    C13   A    
C27   C61   A    
C18   H36   S    
C15   C19   A    
C27   H3    S    
C1    O5    A    
C12   C16   A    
C44   C46   A    
C49   C51   A    
Cu4   O16   S    
C50   C52   A    
N7    H46   S    
C58   H10   S    
C72   N12   S    
C30   C86   A    
C42   O16   A    
C29   C85   A    
Cu3   O6    S    
C21   C65   A    
C22   H24   S    
N9    H50   S    
C55   H17   S    
C34   C60   A    
C57   N1    A    
C10   C62   A    
C11   C15   A    
C36   N4    A    
C56   H18   S    
C30   C70   A    
C52   C54   A    
C41   C68   S    
N8    H48   S    
C53   C55   A    
Cu1   O10   S    
C54   C56   A    
Cu1   N1    S    
C40   O14   A    
C2    O2    A    
C76   C80   A    
C6    C84   A    
C64   N8    S    
C10   C14   A    
C35   N3    A    
C79   C81   A    
C17   H35   S    
C53   H5    S    
C82   C86   A    
C59   N1    A    
C16   H22   S    
C75   H33   S    
C26   C66   A    
C23   H25   S    
C37   C43   A    
Cu1   O9    S    
C38   C44   A    
Cu2   O11   S    
C70   N10   S    
C4    O4    A    
N11   H54   S    
C34   H8    S    
N7    H45   S    
C41   O11   A    
C45   C49   A    
C16   C20   A    
C39   O9    A    
Cu4   O15   S    
C15   H21   S    
C50   C58   A    
C3    O7    A    
N12   H56   S    
Cu4   N4    S    
C43   C45   A    
N5    H42   S    
C72   C74   A    
N10   H51   S    
C7    C81   A    
Cu1   O2    S    
Cu1   O1    S    
C40   C65   S    
C70   C76   A    
C42   C67   S    
C2    O6    A    
C39   C66   S    
C9    C61   A    
C31   C87   A    
C3    O3    A    
Cu2   O12   S    
C36   C38   A    
C60   N2    A    
C1    O1    A    
C35   C37   A    
C47   C55   A    
N8    H47   S    
C19   H37   S    
C7    C9    A    
C12   C64   A    
C46   C50   A    
C25   C63   A    
C47   N3    A    
C24   H26   S    
C48   N4    A    
C8    C10   A    
C54   H6    S    
C84   C88   A    
C20   H38   S    
C77   H27   S    
C61   N5    S    
C4    O8    A    
Cu3   O14   S    
Cu2   O4    S    
C5    C83   A    
C37   H15   S    
C41   O15   A    
C44   H14   S    
C33   C51   A    
C57   H9    S    
C39   O13   A    
C34   C52   A    
C40   O10   A    
C28   H4    S    
C33   H7    S    
N6    H44   S    
C19   C87   A    
C13   H19   S    
C73   H31   S    
C36   H12   S    
C7    C23   A    
C20   C88   A    
C31   C71   A    
C1    C30   S    
Cu2   Cu4   S    
C80   C82   A    
C62   N6    S    
C69   C75   A    
C71   N11   S    
C38   H16   S    
C3    C32   S    
Cu4   O8    S    
C69   N9    S    
C4    C31   S    
C27   C67   A    
C24   C68   A    
C13   C17   A    
C46   C48   A    
C78   C84   A    
C8    C82   A    
C5    C21   A    
C33   C59   A    
Cu1   Cu3   S    
C74   C78   A    
C71   C73   A    
C25   C65   A    
C73   C77   A    
C29   C69   A    
C51   C53   A    
N5    H41   S    
C11   C63   A    
C75   C79   A    
C81   C85   A    
C28   C62   A    
Cu3   O5    S    
C32   C88   A    
