data_mof_unit_26259.cif
_audit_creation_date              2012-12-10T18:23:51-0500
_audit_creation_method            fapswitch 2.2
_symmetry_space_group_name_H-M    P1
_symmetry_Int_Tables_number       1
_space_group_crystal_system       triclinic
_cell_length_a                    22.494501
_cell_length_b                    22.407641
_cell_length_c                    14.628564
_cell_angle_alpha                 90.406881
_cell_angle_beta                  89.512572
_cell_angle_gamma                 90.010348
_cell_volume                      7373.05592088

loop_
_atom_site_label
_atom_site_type_symbol
_atom_type_description
_atom_site_fract_x
_atom_site_fract_y
_atom_site_fract_z
_atom_type_partial_charge
C1    C     C_R   0.419735 0.919693 0.500041 0.821255
C2    C     C_R   0.580297 0.080267 0.499995 0.820207
C3    C     C_R   0.580333 0.919782 0.499515 0.820927
C4    C     C_R   0.419803 0.080394 0.500501 0.820694
C5    C     C_R   0.919736 0.419691 0.500041 0.821257
C6    C     C_R   0.080298 0.580267 0.499995 0.820205
C7    C     C_R   0.080333 0.419782 0.499516 0.820922
C8    C     C_R   0.919804 0.580395 0.500502 0.820699
C9    C     C_1   0.337856 0.163574 0.502602 0.000226
C10   C     C_1   0.663371 0.837824 0.497722 0.001499
C11   C     C_1   0.663105 0.162508 0.500601 0.005213
C12   C     C_1   0.337217 0.837134 0.500278 0.003741
C13   C     C_1   0.837863 0.663582 0.502608 0.000218
C14   C     C_1   0.163373 0.337826 0.497732 0.001504
C15   C     C_1   0.163103 0.662510 0.500607 0.005220
C16   C     C_1   0.837226 0.337124 0.500279 0.003734
C17   C     C_1   0.499941 0.999701 0.194174 0.190296
C18   C     C_1   0.500208 0.999894 0.805792 0.191355
C19   C     C_1   0.999940 0.499704 0.194174 0.190292
C20   C     C_1   0.000207 0.499895 0.805792 0.191347
C21   C     C_3   0.510285 0.055692 0.969793 -0.288259
C22   C     C_3   0.490008 0.943305 0.030101 -0.295290
C23   C     C_3   0.456946 0.036572 0.031670 -0.285260
C24   C     C_3   0.543294 0.962398 0.968046 -0.291903
C25   C     C_3   0.010242 0.555701 0.969792 -0.288189
C26   C     C_3   0.990046 0.443301 0.030103 -0.295291
C27   C     C_3   0.956916 0.536543 0.031669 -0.285255
C28   C     C_3   0.043318 0.462432 0.968048 -0.291990
C29   C     C_3   0.699735 0.728669 0.536050 -0.302055
C30   C     C_3   0.301905 0.273263 0.464400 -0.305949
C31   C     C_3   0.288366 0.739489 0.430054 -0.297620
C32   C     C_3   0.712006 0.260028 0.571418 -0.300176
C33   C     C_3   0.199733 0.228669 0.536066 -0.302036
C34   C     C_3   0.801911 0.773272 0.464406 -0.306277
C35   C     C_3   0.788375 0.239480 0.430051 -0.297646
C36   C     C_3   0.211999 0.760034 0.571425 -0.300182
C37   C     C_3   0.232744 0.203004 0.450657 -0.303799
C38   C     C_3   0.768813 0.798957 0.549768 -0.294112
C39   C     C_3   0.776271 0.195533 0.509884 -0.301774
C40   C     C_3   0.224129 0.804012 0.491596 -0.303048
C41   C     C_3   0.732757 0.703008 0.450649 -0.303486
C42   C     C_3   0.268819 0.298953 0.549769 -0.294144
C43   C     C_3   0.276267 0.695543 0.509890 -0.301766
C44   C     C_3   0.724140 0.304005 0.491592 -0.303020
C45   C     C_1   0.375310 0.125541 0.501849 -0.170815
C46   C     C_1   0.625394 0.875285 0.498275 -0.171028
C47   C     C_1   0.625234 0.124920 0.500099 -0.167766
C48   C     C_1   0.374947 0.874874 0.500203 -0.168970
C49   C     C_1   0.875314 0.625545 0.501852 -0.170822
C50   C     C_1   0.125396 0.375286 0.498279 -0.171027
C51   C     C_1   0.125234 0.624921 0.500101 -0.167759
C52   C     C_1   0.874953 0.374868 0.500204 -0.168975
C53   C     C_3   0.259680 0.235018 0.585476 0.554732
C54   C     C_3   0.741939 0.766977 0.414939 0.541801
C55   C     C_3   0.721096 0.251433 0.423175 0.556088
C56   C     C_3   0.279299 0.748098 0.578287 0.554497
C57   C     C_3   0.759676 0.735024 0.585475 0.554736
C58   C     C_3   0.241928 0.266974 0.414948 0.541809
C59   C     C_3   0.221086 0.751438 0.423182 0.556083
C60   C     C_3   0.779305 0.248087 0.578284 0.554495
C61   C     C_3   0.292300 0.209565 0.501761 0.070324
C62   C     C_3   0.709324 0.792309 0.498712 0.074253
C63   C     C_3   0.709016 0.208123 0.501431 0.066904
C64   C     C_3   0.291414 0.791396 0.500025 0.067280
C65   C     C_3   0.792308 0.709573 0.501767 0.070331
C66   C     C_3   0.209325 0.292309 0.498728 0.074227
C67   C     C_3   0.209011 0.708128 0.501440 0.066900
C68   C     C_3   0.791424 0.291385 0.500024 0.067283
C69   C     C_3   0.552010 0.017980 0.029736 0.568221
C70   C     C_3   0.448312 0.981028 0.970003 0.567040
C71   C     C_3   0.051993 0.518022 0.029737 0.568198
C72   C     C_3   0.948322 0.480992 0.970003 0.567043
C73   C     C_3   0.499726 0.999313 0.091518 -0.033216
C74   C     C_3   0.500578 0.999803 0.908372 -0.031358
C75   C     C_3   0.999723 0.499317 0.091518 -0.033212
C76   C     C_3   0.000576 0.499804 0.908373 -0.031355
Cu1   Cu    Cu3+1 0.500000 0.000000 0.590220 0.991257
Cu2   Cu    Cu3+1 0.500000 0.000000 0.409780 0.991244
Cu3   Cu    Cu3+1 0.000000 0.500000 0.590220 0.991255
Cu4   Cu    Cu3+1 0.000000 0.500000 0.409780 0.991241
H1    H     H_    0.218876 0.163530 0.409816 0.147792
H2    H     H_    0.782345 0.838584 0.590472 0.148657
H3    H     H_    0.796745 0.150938 0.519166 0.151579
H4    H     H_    0.204117 0.848897 0.483642 0.148494
H5    H     H_    0.718898 0.663539 0.409791 0.147876
H6    H     H_    0.282362 0.338578 0.590467 0.148669
H7    H     H_    0.296745 0.650949 0.519172 0.151585
H8    H     H_    0.704131 0.348893 0.483639 0.148499
H9    H     H_    0.420692 0.066028 0.057245 0.149600
H10   H     H_    0.578781 0.932374 0.941606 0.146351
H11   H     H_    0.519777 0.101569 0.945526 0.150300
H12   H     H_    0.481239 0.897464 0.055013 0.146662
H13   H     H_    0.920641 0.565974 0.057241 0.149593
H14   H     H_    0.078831 0.432437 0.941611 0.146380
H15   H     H_    0.019702 0.601584 0.945525 0.150316
H16   H     H_    0.981312 0.397454 0.055015 0.146659
N1    N     N_1   0.499980 0.000000 0.274190 -0.155820
N2    N     N_1   0.500020 0.000000 0.725810 -0.155964
N3    N     N_1   0.999980 0.500000 0.274190 -0.155821
N4    N     N_1   0.000020 0.500000 0.725810 -0.155964
O1    O     O_R   0.439540 0.939530 0.576170 -0.556225
O2    O     O_R   0.560460 0.060470 0.423830 -0.555340
O3    O     O_R   0.560460 0.939530 0.423830 -0.561281
O4    O     O_R   0.439540 0.060470 0.576170 -0.560082
O5    O     O_R   0.939540 0.439530 0.576170 -0.556221
O6    O     O_R   0.060460 0.560470 0.423830 -0.555336
O7    O     O_R   0.060460 0.439530 0.423830 -0.561290
O8    O     O_R   0.939540 0.560470 0.576170 -0.560088
O9    O     O_R   0.439530 0.939530 0.423800 -0.582007
O10   O     O_R   0.560470 0.060470 0.576200 -0.582466
O11   O     O_R   0.560470 0.939530 0.576200 -0.579114
O12   O     O_R   0.439530 0.060470 0.423800 -0.579043
O13   O     O_R   0.939530 0.439530 0.423800 -0.582009
O14   O     O_R   0.060470 0.560470 0.576200 -0.582468
O15   O     O_R   0.060470 0.439530 0.576200 -0.579113
O16   O     O_R   0.939530 0.560470 0.423800 -0.579035
O17   O     O_3   0.393558 0.962720 0.932684 -0.609299
C77   C     C_3   0.355215 0.940085 0.001290 0.049936
H17   H     H_    0.311288 0.962052 0.993537 0.168051
H18   H     H_    0.369835 0.949526 0.072711 0.120091
C78   C     C_3   0.347501 0.872802 0.987227 -0.319513
H19   H     H_    0.332118 0.863979 0.916408 0.231212
H20   H     H_    0.390883 0.850037 0.996252 0.210185
C79   C     C_3   0.302336 0.846967 0.054537 -0.954546
H21   H     H_    0.316626 0.855173 0.126045 0.256204
H22   H     H_    0.298412 0.798074 0.043210 0.260211
H23   H     H_    0.258103 0.867601 0.043937 0.258391
O18   O     O_3   0.606510 0.038141 0.065819 -0.607262
C80   C     C_3   0.648651 0.047879 0.995050 0.048588
H24   H     H_    0.668899 0.092522 0.006434 0.171317
H25   H     H_    0.629458 0.048568 0.924908 0.122255
C81   C     C_3   0.697638 0.000635 0.999671 -0.327716
H26   H     H_    0.719820 0.003559 0.067167 0.231958
H27   H     H_    0.677919 0.955409 0.992736 0.214747
C82   C     C_3   0.743952 0.009216 0.924078 -0.936058
H28   H     H_    0.722934 0.005031 0.855881 0.257207
H29   H     H_    0.778938 0.974519 0.929686 0.258168
H30   H     H_    0.765095 0.053822 0.930432 0.257940
O19   O     O_3   0.893581 0.462644 0.932681 -0.609302
C83   C     C_3   0.855255 0.439972 0.001281 0.049940
H31   H     H_    0.811309 0.461900 0.993526 0.168064
H32   H     H_    0.869864 0.449424 0.072704 0.120087
C84   C     C_3   0.847599 0.372683 0.987209 -0.319509
H33   H     H_    0.832230 0.363849 0.916387 0.231208
H34   H     H_    0.891000 0.349955 0.996239 0.210180
C85   C     C_3   0.802453 0.346802 0.054508 -0.954540
H35   H     H_    0.816724 0.355026 0.126020 0.256199
H36   H     H_    0.798582 0.297904 0.043186 0.260220
H37   H     H_    0.758198 0.367386 0.043894 0.258379
O20   O     O_3   0.106478 0.538230 0.065817 -0.607250
C86   C     C_3   0.148629 0.547938 0.995054 0.048556
H38   H     H_    0.168851 0.592601 0.006365 0.171267
H39   H     H_    0.129453 0.548560 0.924900 0.122298
C87   C     C_3   0.197644 0.500729 0.999796 -0.327657
H40   H     H_    0.219847 0.503764 0.067265 0.231912
H41   H     H_    0.177947 0.455482 0.993035 0.214803
C88   C     C_3   0.243927 0.509223 0.924133 -0.936079
H42   H     H_    0.222895 0.504883 0.855967 0.257204
H43   H     H_    0.278956 0.474580 0.929869 0.258171
H44   H     H_    0.265019 0.553866 0.930272 0.257940
H45   H     H_    0.657840 0.711412 0.566592 0.151888
H46   H     H_    0.343960 0.290628 0.434551 0.150379
H47   H     H_    0.319320 0.732467 0.371457 0.152798
H48   H     H_    0.680704 0.267048 0.629548 0.149847
H49   H     H_    0.157840 0.211417 0.566623 0.151875
H50   H     H_    0.843973 0.790642 0.434591 0.150278
H51   H     H_    0.819330 0.232456 0.371457 0.152791
H52   H     H_    0.180696 0.767054 0.629554 0.149841
O21   O     O_3   0.729853 0.786981 0.325740 -0.603769
C89   C     C_3   0.765278 0.754839 0.262367 0.050942
H53   H     H_    0.753091 0.706674 0.262846 0.138882
H54   H     H_    0.813376 0.759789 0.278321 0.138552
C90   C     C_3   0.754823 0.779149 0.166523 -0.307878
H55   H     H_    0.707060 0.774363 0.148994 0.223957
H56   H     H_    0.766484 0.827350 0.165017 0.225050
C91   C     C_3   0.792439 0.745868 0.095332 -0.942499
H57   H     H_    0.840449 0.750528 0.111056 0.258487
H58   H     H_    0.784429 0.764787 0.026684 0.265348
H59   H     H_    0.780423 0.697785 0.093976 0.257221
O22   O     O_3   0.271150 0.215712 0.675275 -0.604710
C92   C     C_3   0.235790 0.247907 0.739280 0.052022
H60   H     H_    0.213837 0.215147 0.785151 0.163169
H61   H     H_    0.199378 0.274701 0.708270 0.128667
C93   C     C_3   0.275323 0.288715 0.797023 -0.330638
H62   H     H_    0.306558 0.261041 0.837182 0.226489
H63   H     H_    0.301908 0.318183 0.751658 0.216395
C94   C     C_3   0.238362 0.327480 0.862300 -0.948638
H64   H     H_    0.209119 0.357824 0.823193 0.261854
H65   H     H_    0.268341 0.354982 0.905361 0.260019
H66   H     H_    0.210524 0.299131 0.907615 0.257276
O23   O     O_3   0.313079 0.749195 0.659125 -0.606953
C95   C     C_3   0.291469 0.706665 0.722324 0.044687
H67   H     H_    0.329611 0.678678 0.743662 0.164817
H68   H     H_    0.257296 0.675488 0.694340 0.124680
C96   C     C_3   0.266116 0.738931 0.806499 -0.316512
H69   H     H_    0.300908 0.768184 0.836380 0.228527
H70   H     H_    0.228109 0.767369 0.785992 0.212520
C97   C     C_3   0.245013 0.694852 0.878943 -0.951285
H71   H     H_    0.209767 0.665345 0.850984 0.254499
H72   H     H_    0.226526 0.719711 0.938650 0.258822
H73   H     H_    0.282782 0.667114 0.902350 0.255290
O24   O     O_3   0.687935 0.249103 0.341766 -0.605065
C98   C     C_3   0.703874 0.296484 0.283039 0.049755
H74   H     H_    0.711076 0.277400 0.213506 0.172749
H75   H     H_    0.745996 0.319775 0.301766 0.122335
C99   C     C_3   0.652861 0.341535 0.279352 -0.328545
H76   H     H_    0.611330 0.318246 0.259023 0.232394
H77   H     H_    0.645626 0.361661 0.348114 0.208712
C100  C     C_3   0.665967 0.391098 0.211131 -0.934649
H78   H     H_    0.708093 0.414234 0.228646 0.256561
H79   H     H_    0.629229 0.424183 0.212869 0.258447
H80   H     H_    0.669452 0.372275 0.140897 0.256362
O25   O     O_3   0.229872 0.287013 0.325761 -0.603774
C101  C     C_3   0.265068 0.254656 0.262345 0.050900
H81   H     H_    0.252393 0.206618 0.262585 0.139008
H82   H     H_    0.313197 0.259078 0.278443 0.138442
C102  C     C_3   0.254973 0.279264 0.166589 -0.307869
H83   H     H_    0.207189 0.274990 0.148898 0.224015
H84   H     H_    0.267110 0.327350 0.165343 0.225001
C103  C     C_3   0.292351 0.245758 0.095355 -0.942574
H85   H     H_    0.340384 0.249912 0.111239 0.258491
H86   H     H_    0.284616 0.264897 0.026774 0.265371
H87   H     H_    0.279866 0.197797 0.093743 0.257236
O26   O     O_3   0.771131 0.715719 0.675281 -0.604708
C104  C     C_3   0.735779 0.747934 0.739274 0.052011
H88   H     H_    0.713838 0.715189 0.785183 0.163155
H89   H     H_    0.699357 0.774709 0.708256 0.128692
C105  C     C_3   0.775319 0.788767 0.796967 -0.330659
H90   H     H_    0.806551 0.761107 0.837155 0.226472
H91   H     H_    0.801909 0.818206 0.751565 0.216399
C106  C     C_3   0.738369 0.827573 0.862201 -0.948637
H92   H     H_    0.709150 0.857922 0.823061 0.261871
H93   H     H_    0.768357 0.855070 0.905253 0.260043
H94   H     H_    0.710506 0.799256 0.907527 0.257215
O27   O     O_3   0.813081 0.249178 0.659125 -0.606951
C107  C     C_3   0.791473 0.206637 0.722310 0.044672
H95   H     H_    0.829614 0.178645 0.743634 0.164813
H96   H     H_    0.757296 0.175466 0.694318 0.124688
C108  C     C_3   0.766123 0.238891 0.806498 -0.316512
H97   H     H_    0.800919 0.268133 0.836390 0.228527
H98   H     H_    0.728120 0.267337 0.786003 0.212531
C109  C     C_3   0.745015 0.194799 0.878921 -0.951276
H99   H     H_    0.709764 0.165304 0.850950 0.254515
H100  H     H_    0.726534 0.219651 0.938640 0.258827
H101  H     H_    0.782780 0.167051 0.902312 0.255288
O28   O     O_3   0.187925 0.749103 0.341776 -0.605069
C110  C     C_3   0.203843 0.796497 0.283062 0.049769
H102  H     H_    0.211056 0.777424 0.213525 0.172754
H103  H     H_    0.245955 0.819806 0.301797 0.122324
C111  C     C_3   0.152809 0.841524 0.279387 -0.328533
H104  H     H_    0.111287 0.818215 0.259073 0.232404
H105  H     H_    0.145574 0.861650 0.348148 0.208695
C112  C     C_3   0.165884 0.891089 0.211155 -0.934699
H106  H     H_    0.208001 0.914247 0.228655 0.256570
H107  H     H_    0.129130 0.924156 0.212898 0.258439
H108  H     H_    0.169370 0.872262 0.140924 0.256385

loop_
_geom_bond_atom_site_label_1
_geom_bond_atom_site_label_2
_ccdc_geom_bond_type
C84   C85   S    
Cu1   Cu2   S    
C98   H74   S    
C9    C45   T    
C88   H42   S    
Cu3   O15   S    
Cu2   O2    S    
C26   C72   S    
O21   C89   S    
C40   H4    S    
Cu1   O1    S    
C108  H97   S    
C23   C70   S    
C83   C84   S    
C72   C76   S    
O18   C80   S    
C100  H80   S    
C103  H86   S    
C36   C67   S    
C82   H28   S    
C13   C65   S    
O25   C101  S    
C93   H62   S    
C102  C103  S    
C80   H25   S    
C98   H75   S    
Cu4   O7    S    
Cu3   O5    S    
C31   C43   S    
C9    C61   S    
C107  H96   S    
C83   H32   S    
C80   H24   S    
C11   C63   S    
C42   C53   S    
C112  H106  S    
C12   C64   S    
C94   H65   S    
C99   H77   S    
C90   C91   S    
C71   O20   S    
C89   H53   S    
C2    O2    A    
C70   O17   S    
C111  H105  S    
C84   H33   S    
C38   C57   S    
Cu4   O6    S    
C36   H52   S    
C104  C105  S    
C107  H95   S    
C20   C76   S    
C28   H14   S    
C5    O13   A    
C86   C87   S    
C7    O15   A    
Cu1   O11   S    
C77   H17   S    
C6    O14   A    
C94   H66   S    
C59   C67   S    
O28   C110  S    
C11   C47   T    
C58   C66   S    
C91   H59   S    
Cu4   O16   S    
C69   O18   S    
C3    O11   A    
C81   H26   S    
C78   C79   S    
C55   C63   S    
C44   C55   S    
C70   C74   S    
C35   H51   S    
C86   H38   S    
C56   C64   S    
C5    C52   S    
C69   C73   S    
C97   H71   S    
C25   C71   S    
C15   C51   T    
C6    C51   S    
Cu2   O9    S    
C87   H41   S    
C37   C58   S    
C12   C48   T    
C57   O26   S    
C96   C97   S    
C1    O9    A    
C111  C112  S    
C91   H58   S    
C4    O12   A    
C56   O23   S    
C88   H43   S    
C40   C59   S    
C82   H29   S    
C38   H2    S    
C33   C53   S    
C54   O21   S    
C37   H1    S    
C10   C62   S    
C60   O27   S    
C53   C61   S    
C23   C73   S    
C27   C75   S    
C8    O8    A    
C34   C65   S    
C105  H91   S    
C103  H85   S    
C24   C69   S    
C100  H78   S    
C85   H36   S    
C4    C45   S    
C72   O19   S    
C26   H16   S    
C32   H48   S    
C98   C99   S    
C31   H47   S    
C79   H21   S    
C109  H101  S    
C78   H19   S    
O24   C98   S    
C35   C55   S    
O23   C95   S    
C95   C96   S    
C29   H45   S    
Cu3   N4    S    
C36   C40   S    
C83   H31   S    
C32   C63   S    
C87   C88   S    
C106  H93   S    
C92   H61   S    
C112  H107  S    
C19   N3    T    
C99   H76   S    
C34   C38   S    
C5    O5    A    
C54   C62   S    
O26   C104  S    
C111  H104  S    
C90   H55   S    
C55   O24   S    
C21   C74   S    
C33   C37   S    
C96   H69   S    
C21   C69   S    
C77   C78   S    
C95   H68   S    
C92   H60   S    
C35   C39   S    
C43   C67   S    
C10   C46   T    
C36   C56   S    
C100  H79   S    
C85   H37   S    
C109  H100  S    
C20   N4    T    
C110  H102  S    
C15   C67   S    
C33   C66   S    
Cu2   N1    S    
C23   H9    S    
C109  H99   S    
C14   C66   S    
C110  H103  S    
Cu1   N2    S    
C108  H98   S    
C6    O6    A    
C60   C68   S    
C87   H40   S    
C13   C49   T    
C82   H30   S    
C79   H23   S    
C42   H6    S    
C103  H87   S    
C81   H27   S    
C91   H57   S    
C29   C57   S    
C34   C54   S    
C88   H44   S    
C21   C23   S    
Cu4   N3    S    
C22   C24   S    
C27   H13   S    
C28   C71   S    
C25   C27   S    
C59   O28   S    
C32   C60   S    
C28   C76   S    
C53   O22   S    
C1    O1    A    
C41   H5    S    
O22   C92   S    
C79   H22   S    
C85   H35   S    
C21   H11   S    
C92   C93   S    
C3    O3    A    
C84   H34   S    
Cu3   O14   S    
C29   C62   S    
C2    O10   A    
O27   C107  S    
C22   H12   S    
C29   C41   S    
Cu2   O3    S    
C101  H81   S    
C31   C64   S    
C33   H49   S    
C16   C52   T    
C7    C50   S    
C57   C65   S    
C97   H72   S    
C101  C102  S    
C24   H10   S    
C112  H108  S    
C37   C61   S    
O19   C83   S    
C107  C108  S    
C1    C48   S    
C25   H15   S    
C2    C47   S    
C102  H84   S    
C39   C63   S    
C3    C46   S    
C26   C28   S    
C40   C64   S    
C93   C94   S    
C16   C68   S    
C43   H7    S    
C26   C75   S    
C80   C81   S    
C19   C75   S    
C102  H83   S    
C101  H82   S    
C39   H3    S    
C94   H64   S    
C44   H8    S    
O17   C77   S    
C95   H67   S    
C71   C75   S    
C99   C100  S    
C24   C74   S    
C90   H56   S    
C14   C50   T    
C89   H54   S    
C35   C68   S    
C81   C82   S    
C31   C59   S    
C39   C60   S    
C30   C58   S    
C104  H89   S    
C104  H88   S    
C93   H63   S    
Cu3   O8    S    
C4    O4    A    
C108  C109  S    
C7    O7    A    
C86   H39   S    
C41   C65   S    
Cu1   O10   S    
C77   H18   S    
C41   C54   S    
C78   H20   S    
C17   C73   S    
C106  H94   S    
C8    O16   A    
C105  H90   S    
Cu3   Cu4   S    
C58   O25   S    
C97   H73   S    
C43   C56   S    
Cu4   O13   S    
C32   C44   S    
C25   C76   S    
C18   C74   S    
C30   C61   S    
C106  H92   S    
C42   C66   S    
C30   H46   S    
C44   C68   S    
C30   C42   S    
Cu1   O4    S    
Cu2   O12   S    
C18   N2    T    
C22   C73   S    
C38   C62   S    
C34   H50   S    
C17   N1    T    
C8    C49   S    
C22   C70   S    
C105  C106  S    
C27   C72   S    
C110  C111  S    
O20   C86   S    
C96   H70   S    
C89   C90   S    
