data_mof_unit_64093.cif
_audit_creation_date              2012-12-10T16:41:29-0500
_audit_creation_method            fapswitch 2.2
_symmetry_space_group_name_H-M    P1
_symmetry_Int_Tables_number       1
_space_group_crystal_system       triclinic
_cell_length_a                    18.909826
_cell_length_b                    18.999764
_cell_length_c                    19.041698
_cell_angle_alpha                 109.96287
_cell_angle_beta                  109.44564
_cell_angle_gamma                 109.357275
_cell_volume                      5243.32948226

loop_
_atom_site_label
_atom_site_type_symbol
_atom_type_description
_atom_site_fract_x
_atom_site_fract_y
_atom_site_fract_z
_atom_type_partial_charge
C1    C     C_R   0.381962 0.384486 0.501548 0.864822
C2    C     C_R   0.413173 0.669187 0.675728 0.095631
C3    C     C_R   0.493504 0.678405 0.684081 -0.094935
C4    C     C_R   0.571585 0.751857 0.753450 -0.203570
C5    C     C_R   0.571381 0.817457 0.814172 -0.201524
C6    C     C_R   0.493080 0.811051 0.806421 -0.098191
C7    C     C_2   0.252912 0.259799 0.578005 0.478585
C8    C     C_2   0.192440 0.182024 0.506554 -0.384320
C9    C     C_2   0.326431 0.317183 0.574977 -0.298416
C10   C     C_2   0.312941 0.324637 0.504882 -0.377798
C11   C     C_2   0.493797 0.174884 0.248356 -0.156756
C12   C     C_R   0.497607 0.615592 0.618089 0.776930
C13   C     C_2   0.508824 0.184690 0.187371 -0.309139
C14   C     C_2   0.506029 0.248102 0.321557 -0.158507
C15   C     C_2   0.490939 0.309307 0.311992 -0.303922
C16   C     C_2   0.753465 0.738495 0.425460 -0.273825
C17   C     C_2   0.808270 0.818483 0.494367 -0.372534
C18   C     C_2   0.676641 0.677308 0.421693 0.529708
C19   C     C_2   0.686787 0.675095 0.494218 -0.399608
C20   C     C_R   0.382397 0.995545 0.877939 0.874623
C21   C     C_R   0.497303 0.878589 0.876175 0.786173
C22   C     C_R   0.618075 0.998937 0.115844 0.848353
C23   C     C_R   0.617956 0.614850 0.497734 0.893246
C24   C     C_R   0.502227 0.115467 0.116877 0.847037
C25   C     C_R   0.880750 0.998540 0.382796 0.832856
C26   C     C_R   0.120161 0.117457 0.502526 0.879661
C27   C     C_R   0.114735 0.996830 0.617066 0.892392
C28   C     C_R   0.880545 0.882587 0.498254 0.882281
C29   C     C_2   0.176510 0.919352 0.674723 0.533390
C30   C     C_2   0.174743 0.992486 0.685268 -0.392461
C31   C     C_2   0.237784 0.922963 0.751326 -0.289176
C32   C     C_2   0.317975 0.991575 0.805945 -0.376312
C33   C     C_2   0.749885 0.008328 0.323187 -0.158373
C34   C     C_R   0.497746 0.379889 0.381333 0.856345
C35   C     C_2   0.810864 0.992068 0.313754 -0.310312
C36   C     C_2   0.677018 0.995030 0.249297 -0.157857
C37   C     C_2   0.687148 0.007033 0.187101 -0.312187
C38   C     C_R   0.333307 0.592785 0.609963 -0.177966
C39   C     C_R   0.254926 0.587217 0.600242 -0.138131
C40   C     C_R   0.254422 0.657236 0.655336 -0.150829
C41   C     C_R   0.332359 0.732123 0.722365 -0.175704
C42   C     C_R   0.412836 0.737979 0.735704 0.099776
Cu1   Cu    Cu3+1 0.561020 0.499620 0.560640 0.948923
Cu2   Cu    Cu3+1 0.438980 0.500380 0.439360 0.973494
Cu3   Cu    Cu3+1 0.561070 0.057880 0.996780 0.952536
Cu4   Cu    Cu3+1 0.439050 0.935860 0.996810 0.943492
Cu5   Cu    Cu3+1 0.000000 0.061410 0.561410 0.970809
Cu6   Cu    Cu3+1 0.000000 0.938590 0.438590 0.976441
H1    H     H_    0.633101 0.759065 0.759893 0.153932
H2    H     H_    0.247447 0.291379 0.450798 0.154202
H3    H     H_    0.477138 0.113970 0.247449 0.160469
H4    H     H_    0.534716 0.248059 0.193404 0.157423
H5    H     H_    0.522855 0.248887 0.382317 0.163319
H6    H     H_    0.464928 0.303433 0.248808 0.158093
H7    H     H_    0.762422 0.719050 0.369881 0.177290
H8    H     H_    0.795439 0.840384 0.547020 0.153035
H9    H     H_    0.750306 0.714671 0.552375 0.120397
H10   H     H_    0.330426 0.536303 0.566262 0.145753
H11   H     H_    0.214325 0.050646 0.748834 0.121902
H12   H     H_    0.218384 0.867642 0.760366 0.171524
H13   H     H_    0.339900 0.043959 0.793144 0.158930
H14   H     H_    0.750378 0.026494 0.384051 0.162019
H15   H     H_    0.805026 0.964709 0.250480 0.153586
H16   H     H_    0.615964 0.979615 0.248504 0.158796
H17   H     H_    0.750661 0.032011 0.192808 0.152050
H18   H     H_    0.194301 0.528549 0.549299 0.134955
H19   H     H_    0.193372 0.653243 0.646540 0.125996
H20   H     H_    0.328497 0.785280 0.762474 0.143565
H21   H     H_    0.632843 0.873141 0.868274 0.155225
H22   H     H_    0.199418 0.161770 0.449700 0.122185
H23   H     H_    0.390719 0.356255 0.631939 0.173204
O1    O     O_R   0.462500 0.410660 0.551220 -0.582258
O2    O     O_R   0.359500 0.945890 0.908340 -0.587980
O3    O     O_R   0.551580 0.958790 0.907180 -0.584782
O4    O     O_R   0.448540 0.855750 0.907210 -0.590915
O5    O     O_R   0.640630 0.047850 0.085250 -0.587596
O6    O     O_R   0.537580 0.944800 0.085280 -0.581253
O7    O     O_R   0.551590 0.137990 0.086380 -0.586321
O8    O     O_R   0.448540 0.034950 0.086410 -0.582643
O9    O     O_R   0.910970 0.052410 0.463390 -0.586439
O10   O     O_R   0.910970 0.948690 0.359670 -0.595604
O11   O     O_R   0.089030 0.140870 0.551850 -0.536446
O12   O     O_R   0.359440 0.411300 0.448810 -0.601061
O13   O     O_R   0.089030 0.037160 0.448130 -0.602353
O14   O     O_R   0.089030 0.051310 0.640330 -0.592145
O15   O     O_R   0.089030 0.947590 0.536610 -0.537947
O16   O     O_R   0.910970 0.962840 0.551870 -0.598776
O17   O     O_R   0.910970 0.859130 0.448150 -0.574974
O18   O     O_R   0.551530 0.589280 0.640810 -0.589624
O19   O     O_R   0.448470 0.589920 0.538390 -0.591512
O20   O     O_R   0.640560 0.588700 0.551190 -0.597156
O21   O     O_R   0.537500 0.589340 0.448780 -0.533667
O22   O     O_R   0.551530 0.410080 0.461610 -0.583611
O23   O     O_R   0.448470 0.410720 0.359190 -0.579202
O24   O     O_R   0.462540 0.048930 0.908310 -0.586766
O25   O     O_3   0.598639 0.615608 0.344361 -0.558664
C43   C     C_3   0.581584 0.646287 0.286364 -0.294812
H24   H     H_    0.620851 0.643083 0.254321 0.156444
H25   H     H_    0.592324 0.713038 0.318613 0.157443
H26   H     H_    0.512363 0.603396 0.234986 0.187483
O26   O     O_3   0.115045 0.842275 0.596174 -0.556152
C44   C     C_3   0.141326 0.779792 0.582413 -0.293007
H27   H     H_    0.131882 0.748879 0.621097 0.148043
H28   H     H_    0.209566 0.807561 0.596209 0.162868
H29   H     H_    0.099516 0.728136 0.513332 0.189509
O27   O     O_3   0.250597 0.279077 0.654453 -0.560087
C45   C     C_3   0.285236 0.368818 0.707066 0.081218
H30   H     H_    0.260825 0.397136 0.668697 0.142411
H31   H     H_    0.357287 0.403070 0.741059 0.140570
C46   C     C_3   0.257905 0.383205 0.775001 -0.768460
H32   H     H_    0.282300 0.356998 0.815524 0.248388
H33   H     H_    0.285075 0.453586 0.817135 0.196348
H34   H     H_    0.186055 0.350102 0.743171 0.248487

loop_
_geom_bond_atom_site_label_1
_geom_bond_atom_site_label_2
_ccdc_geom_bond_type
Cu1   O1    S    
C25   O9    A    
C18   O25   S    
C41   C42   A    
C34   O22   A    
C22   O5    A    
Cu2   O12   S    
C43   H24   S    
C7    C8    D    
Cu3   Cu4   S    
C19   H9    S    
Cu1   O18   S    
Cu3   O5    S    
Cu5   O14   S    
C12   O19   A    
C36   C37   D    
C32   H13   S    
C5    C6    A    
C11   C14   S    
O27   C45   S    
C11   C13   D    
C33   C36   S    
C8    C26   S    
Cu6   O10   S    
C44   H29   S    
C18   C19   D    
Cu5   O11   S    
C27   O14   A    
C46   H32   S    
C5    H21   S    
C3    C12   S    
C33   C35   D    
C38   H10   S    
Cu5   Cu6   S    
C33   H14   S    
C40   H19   S    
C37   H17   S    
C28   O17   A    
C45   H30   S    
Cu6   O17   S    
Cu3   O7    S    
C9    C10   D    
C15   C34   S    
Cu2   O21   S    
C26   O11   A    
C30   H11   S    
C27   C30   S    
C25   O10   A    
C45   H31   S    
Cu5   O9    S    
Cu4   O4    S    
C43   H25   S    
C41   H20   S    
C38   C39   A    
C1    O1    A    
O26   C44   S    
C34   O23   A    
C12   O18   A    
Cu2   O23   S    
C39   C40   A    
C16   C17   D    
C6    C21   S    
C21   O3    A    
Cu1   O20   S    
Cu6   O13   S    
C13   C24   S    
Cu3   O3    S    
Cu5   O16   S    
C31   H12   S    
C27   O15   A    
C19   C23   S    
Cu1   Cu2   S    
C15   H6    S    
C29   C30   D    
C13   H4    S    
C2    C38   A    
C24   O8    A    
C31   C32   D    
C17   H8    S    
O25   C43   S    
C28   O16   A    
C7    O27   S    
C29   O26   S    
C44   H28   S    
C46   H34   S    
C25   C35   S    
C24   O7    A    
C40   C41   A    
C20   O24   A    
C39   H18   S    
Cu6   O15   S    
C3    C4    A    
C10   H2    S    
C43   H26   S    
Cu2   O19   S    
C20   C32   S    
C7    C9    S    
C26   O13   A    
C23   O21   A    
C17   C28   S    
C1    C10   S    
C9    H23   S    
C22   O6    A    
C4    C5    A    
Cu4   O6    S    
C1    O12   A    
C21   O4    A    
C8    H22   S    
C4    H1    S    
C45   C46   S    
C2    C3    A    
C16   H7    S    
C29   C31   S    
C22   C37   S    
Cu4   O8    S    
C2    C42   A    
Cu1   O22   S    
C20   O2    A    
C23   O20   A    
C44   H27   S    
C46   H33   S    
C11   H3    S    
C14   H5    S    
C16   C18   S    
C6    C42   A    
C14   C15   D    
C35   H15   S    
C36   H16   S    
Cu4   O2    S    
Cu3   O24   S    
