data_mof_unit_68234.cif
_audit_creation_date              2012-12-11T17:19:13-0500
_audit_creation_method            fapswitch 2.2
_symmetry_space_group_name_H-M    P1
_symmetry_Int_Tables_number       1
_space_group_crystal_system       triclinic
_cell_length_a                    14.672437
_cell_length_b                    7.303098
_cell_length_c                    13.38679
_cell_angle_alpha                 90.000187
_cell_angle_beta                  100.111864
_cell_angle_gamma                 89.999767
_cell_volume                      1412.16982595

loop_
_atom_site_label
_atom_site_type_symbol
_atom_type_description
_atom_site_fract_x
_atom_site_fract_y
_atom_site_fract_z
_atom_type_partial_charge
O1    O     O_R   0.648180 0.355050 0.151550 -0.532719
O2    O     O_R   0.351820 0.644950 0.848450 -0.532718
O3    O     O_R   0.851820 0.855050 0.348450 -0.532726
O4    O     O_R   0.148180 0.144950 0.651550 -0.532718
O5    O     O_R   0.835240 0.681980 0.154280 -0.540729
O6    O     O_R   0.164760 0.318020 0.845720 -0.540729
O7    O     O_R   0.664760 0.181980 0.345720 -0.540726
O8    O     O_R   0.335240 0.818020 0.654280 -0.540735
C1    C     C_R   0.867206 0.517134 0.137495 0.710409
C2    C     C_R   0.132791 0.482865 0.862502 0.710425
C3    C     C_R   0.632792 0.017136 0.362503 0.710421
C4    C     C_R   0.367208 0.982865 0.637498 0.710424
O9    O     O_R   0.647870 0.684600 0.139630 -0.536135
O10   O     O_R   0.352130 0.315400 0.860370 -0.536135
O11   O     O_R   0.852130 0.184600 0.360370 -0.536140
O12   O     O_R   0.147870 0.815400 0.639630 -0.536136
O13   O     O_R   0.663110 0.857440 0.333700 -0.534448
O14   O     O_R   0.336890 0.142560 0.666300 -0.534442
O15   O     O_R   0.836890 0.357440 0.166300 -0.534449
O16   O     O_R   0.163110 0.642560 0.833700 -0.534447
C5    C     C_R   0.615178 0.516097 0.113377 0.722255
C6    C     C_R   0.384823 0.483902 0.886621 0.722254
C7    C     C_R   0.884822 0.016097 0.386622 0.722248
C8    C     C_R   0.115177 0.983902 0.613378 0.722253
O17   O     O_3   0.755220 0.522230 0.313690 -0.377302
O18   O     O_3   0.244780 0.477770 0.686310 -0.377308
O19   O     O_3   0.744780 0.022230 0.186310 -0.377308
O20   O     O_3   0.255220 0.977770 0.813690 -0.377309
V1    V     V_3+5 0.749030 0.796100 0.238190 1.373945
V2    V     V_3+5 0.250970 0.203900 0.761810 1.373936
V3    V     V_3+5 0.750970 0.296100 0.261810 1.373934
V4    V     V_3+5 0.249030 0.703900 0.738190 1.373927
C9    C     C_1   0.965992 0.005515 0.466660 -0.200307
C10   C     C_1   0.034007 0.994484 0.533342 -0.200304
C11   C     C_1   0.534009 0.505515 0.033339 -0.200305
C12   C     C_1   0.465994 0.494484 0.966657 -0.200313
C13   C     C_R   0.576313 0.949916 0.714754 0.013638
C14   C     C_R   0.423687 0.050098 0.285249 0.013628
C15   C     C_R   0.923687 0.449906 0.785248 0.013640
C16   C     C_R   0.076317 0.550003 0.214761 0.013638
C17   C     C_R   0.675059 0.958089 0.748733 0.158961
C18   C     C_R   0.324942 0.041912 0.251269 0.158962
C19   C     C_R   0.824942 0.458085 0.751269 0.158962
C20   C     C_R   0.175065 0.541866 0.248734 0.158986
C21   C     C_R   0.732736 0.968855 0.674402 0.183251
C22   C     C_R   0.267265 0.031136 0.325599 0.183290
C23   C     C_R   0.767265 0.468841 0.825599 0.183251
C24   C     C_R   0.232738 0.531136 0.174399 0.183262
C25   C     C_R   0.692967 0.989621 0.572623 -0.217928
C26   C     C_R   0.307034 0.010381 0.427378 -0.217894
C27   C     C_R   0.807033 0.489607 0.927378 -0.217923
C28   C     C_R   0.192967 0.510387 0.072620 -0.217938
C29   C     C_R   0.596538 0.994616 0.537177 -0.015878
C30   C     C_R   0.403462 0.005390 0.462825 -0.015903
C31   C     C_R   0.903462 0.494607 0.962825 -0.015885
C32   C     C_R   0.096538 0.505382 0.037176 -0.015884
C33   C     C_R   0.535635 0.978063 0.608361 0.023775
C34   C     C_R   0.464366 0.021945 0.391641 0.023762
C35   C     C_R   0.964365 0.478056 0.891641 0.023767
C36   C     C_R   0.035636 0.521909 0.108363 0.023779
C37   C     C_R   0.562530 0.011950 0.430544 -0.107698
C38   C     C_R   0.437471 0.988054 0.569457 -0.107698
C39   C     C_R   0.937471 0.511935 0.069458 -0.107691
C40   C     C_R   0.062529 0.488054 0.930544 -0.107701
H1    H     H_    0.740632 0.000319 0.519950 0.123399
H2    H     H_    0.259369 0.999677 0.480051 0.123397
H3    H     H_    0.759368 0.500300 0.980051 0.123399
H4    H     H_    0.240629 0.499711 0.019944 0.123406
C41   C     C_3   0.712446 0.951231 0.864284 -0.322925
C42   C     C_3   0.812125 0.004784 0.908716 -0.719804
H5    H     H_    0.861499 0.893045 0.901440 0.224384
H6    H     H_    0.832304 0.133162 0.875623 0.237687
H7    H     H_    0.817484 0.028839 0.991502 0.226362
H8    H     H_    0.669693 0.047770 0.900820 0.188891
H9    H     H_    0.701831 0.811740 0.892642 0.186177
C43   C     C_3   0.287558 0.048768 0.135717 -0.322940
C44   C     C_3   0.187882 0.995204 0.091279 -0.719794
H10   H     H_    0.167708 0.866809 0.124364 0.237676
H11   H     H_    0.138504 0.106934 0.098563 0.224388
H12   H     H_    0.182524 0.971170 0.008490 0.226362
H13   H     H_    0.298168 0.188261 0.107360 0.186189
H14   H     H_    0.330316 0.952237 0.099182 0.188894
C45   C     C_3   0.787555 0.451241 0.635717 -0.322932
C46   C     C_3   0.687880 0.504831 0.591290 -0.719785
H15   H     H_    0.638500 0.393089 0.598542 0.224374
H16   H     H_    0.667704 0.633188 0.624411 0.237690
H17   H     H_    0.682523 0.528944 0.508509 0.226359
H18   H     H_    0.830315 0.547770 0.599185 0.188892
H19   H     H_    0.798160 0.311749 0.607354 0.186180
C47   C     C_3   0.212456 0.548709 0.364286 -0.322930
C48   C     C_3   0.312149 0.495263 0.408717 -0.719842
H20   H     H_    0.332351 0.366867 0.375659 0.237670
H21   H     H_    0.361496 0.607030 0.401406 0.224409
H22   H     H_    0.317520 0.471279 0.491509 0.226358
H23   H     H_    0.201801 0.688173 0.392656 0.186182
H24   H     H_    0.169737 0.452095 0.400814 0.188900
C49   C     C_3   0.516505 0.893951 0.791652 -0.754996
H25   H     H_    0.552829 0.850050 0.866900 0.185622
H26   H     H_    0.471433 0.008575 0.806935 0.216105
H27   H     H_    0.478177 0.769059 0.763404 0.224982
C50   C     C_3   0.483495 0.106087 0.208355 -0.754986
H28   H     H_    0.447170 0.150002 0.133111 0.185623
H29   H     H_    0.521821 0.230977 0.236612 0.224982
H30   H     H_    0.528569 0.991472 0.193064 0.216102
C51   C     C_3   0.983495 0.393922 0.708351 -0.754988
H31   H     H_    0.947168 0.350008 0.633107 0.185624
H32   H     H_    0.028567 0.508541 0.693061 0.216101
H33   H     H_    0.021822 0.269032 0.736606 0.224981
C52   C     C_3   0.016502 0.605816 0.291680 -0.755065
H34   H     H_    0.052816 0.649620 0.366947 0.185629
H35   H     H_    0.978161 0.730718 0.263485 0.225005
H36   H     H_    0.971443 0.491140 0.306909 0.216126
C53   C     C_3   0.163501 0.058751 0.303674 -0.772314
H37   H     H_    0.127558 0.935852 0.268495 0.215585
H38   H     H_    0.134774 0.084742 0.373669 0.191889
H39   H     H_    0.145577 0.181574 0.256483 0.225867
C54   C     C_3   0.836496 0.941191 0.696323 -0.772343
H40   H     H_    0.872455 0.064077 0.731494 0.215586
H41   H     H_    0.854408 0.818375 0.743522 0.225878
H42   H     H_    0.865215 0.915160 0.626329 0.191908
C55   C     C_3   0.336499 0.558787 0.196316 -0.772349
H43   H     H_    0.372454 0.435916 0.231510 0.215600
H44   H     H_    0.365222 0.584755 0.126319 0.191898
H45   H     H_    0.354414 0.681631 0.243488 0.225868
C56   C     C_3   0.663506 0.441165 0.803677 -0.772340
H46   H     H_    0.627543 0.564067 0.768530 0.215572
H47   H     H_    0.645596 0.318376 0.756455 0.225885
H48   H     H_    0.634791 0.415082 0.873669 0.191913

loop_
_geom_bond_atom_site_label_1
_geom_bond_atom_site_label_2
_ccdc_geom_bond_type
O17   V3    S    
O18   V4    S    
C50   H28   S    
C16   C36   A    
C31   C35   A    
O19   V1    S    
O13   V1    S    
O3    C7    A    
C11   C12   T    
C46   H17   S    
O15   V3    S    
C13   C49   S    
C49   H25   S    
C47   H23   S    
C44   H10   S    
O1    C5    A    
C51   H32   S    
C35   C40   A    
C26   C30   A    
C25   H1    S    
C36   C39   A    
O9    V1    S    
C46   H16   S    
C14   C18   A    
C14   C50   S    
C52   H35   S    
C30   C34   A    
O4    C8    A    
O1    V3    S    
C19   C45   S    
O2    V4    S    
C18   C22   A    
O3    V1    S    
C55   H45   S    
C14   C34   A    
C29   C37   A    
C1    O15   A    
C2    O16   A    
C7    C9    S    
C31   C39   A    
O2    C6    A    
C56   H48   S    
C32   C40   A    
C42   H5    S    
O14   V2    S    
C16   C20   A    
C28   H4    S    
C53   H39   S    
C34   C37   A    
O11   C7    A    
C45   H18   S    
O12   C8    A    
O10   V2    S    
C49   H26   S    
C23   C56   S    
O5    V1    S    
C44   H11   S    
C45   H19   S    
C51   H33   S    
O7    V3    S    
O8    V4    S    
C33   C38   A    
C46   H15   S    
C54   H42   S    
C43   H14   S    
C48   H20   S    
C29   C33   A    
C15   C19   A    
C30   C38   A    
C8    C10   S    
C32   C36   A    
O7    C3    A    
O5    C1    A    
C48   H21   S    
C4    C38   S    
C45   C46   S    
C21   C25   A    
O8    C4    A    
C15   C35   A    
C42   H7    S    
C9    C10   T    
O9    C5    A    
C41   H8    S    
C27   H3    S    
C43   C44   S    
C47   H24   S    
C26   H2    S    
C55   H43   S    
O6    V2    S    
C50   H30   S    
C56   H46   S    
C52   H36   S    
C24   C55   S    
C49   H27   S    
C20   C47   S    
C17   C41   S    
C53   H37   S    
O16   V4    S    
C44   H12   S    
C21   C54   S    
C15   C51   S    
C3    O13   A    
C22   C53   S    
C1    C39   S    
C2    C40   S    
C3    C37   S    
C43   H13   S    
O6    C2    A    
C23   C27   A    
O11   V3    S    
C16   C52   S    
C5    C11   S    
O12   V4    S    
C6    C12   S    
C51   H31   S    
C22   C26   A    
C18   C43   S    
O10   C6    A    
C54   H41   S    
C52   H34   S    
C48   H22   S    
C47   C48   S    
C25   C29   A    
O20   V2    S    
C41   H9    S    
C27   C31   A    
C13   C17   A    
C41   C42   S    
O4    V2    S    
C55   H44   S    
C28   C32   A    
C24   C28   A    
C50   H29   S    
C4    O14   A    
C56   H47   S    
C17   C21   A    
C42   H6    S    
C54   H40   S    
C19   C23   A    
C13   C33   A    
C20   C24   A    
C53   H38   S    
