data_mof_unit_32652.cif
_audit_creation_date              2012-12-11T14:01:42-0500
_audit_creation_method            fapswitch 2.2
_symmetry_space_group_name_H-M    P1
_symmetry_Int_Tables_number       1
_space_group_crystal_system       triclinic
_cell_length_a                    19.079566
_cell_length_b                    10.934559
_cell_length_c                    18.835403
_cell_angle_alpha                 90.314159
_cell_angle_beta                  89.781413
_cell_angle_gamma                 89.8643
_cell_volume                      3929.4679598

loop_
_atom_site_label
_atom_site_type_symbol
_atom_type_description
_atom_site_fract_x
_atom_site_fract_y
_atom_site_fract_z
_atom_type_partial_charge
C1    C     C_R   0.272201 0.042225 0.853464 0.546182
C2    C     C_R   0.010012 0.665761 0.966236 0.480762
C3    C     C_R   0.487966 0.165475 0.036669 0.481976
C4    C     C_R   0.510012 0.165761 0.966236 0.480762
C5    C     C_2   0.248461 0.575848 0.918569 0.384729
C6    C     C_2   0.751693 0.574740 0.081450 0.383930
C7    C     C_2   0.748461 0.075848 0.918569 0.384729
C8    C     C_2   0.251693 0.074740 0.081450 0.383930
C9    C     C_2   0.253301 0.587716 0.078109 0.282211
C10   C     C_2   0.746786 0.587585 0.922298 0.281654
C11   C     C_2   0.753301 0.087716 0.078109 0.282211
C12   C     C_R   0.727862 0.042150 0.146626 0.544265
C13   C     C_2   0.246786 0.087585 0.922298 0.281654
C14   C     C_2   0.290602 0.512045 0.034799 0.331302
C15   C     C_2   0.709610 0.511699 0.964991 0.331514
C16   C     C_2   0.790602 0.012044 0.034799 0.331302
C17   C     C_2   0.209610 0.011699 0.964991 0.331514
C18   C     C_2   0.302580 0.545971 0.960700 0.368755
C19   C     C_2   0.697587 0.545245 0.039235 0.370097
C20   C     C_2   0.802580 0.045971 0.960700 0.368755
C21   C     C_2   0.197586 0.045245 0.039235 0.370097
C22   C     C_2   0.463751 0.825183 0.567529 0.464833
C23   C     C_R   0.772201 0.542226 0.853464 0.546182
C24   C     C_2   0.480304 0.837630 0.410730 0.403604
C25   C     C_2   0.963751 0.325184 0.567529 0.464833
C26   C     C_2   0.980304 0.337630 0.410730 0.403604
C27   C     C_2   0.460202 0.738830 0.447656 0.439334
C28   C     C_2   0.435227 0.747925 0.520409 0.396678
C29   C     C_2   0.960202 0.238830 0.447656 0.439334
C30   C     C_2   0.935227 0.247925 0.520409 0.396678
C31   C     C_2   0.246115 0.556589 0.586253 0.359028
C32   C     C_2   0.754620 0.566050 0.415743 0.313499
C33   C     C_2   0.746115 0.056589 0.586253 0.359028
C34   C     C_R   0.227862 0.542150 0.146626 0.544265
C35   C     C_2   0.254620 0.066050 0.415743 0.313499
C36   C     C_2   0.238605 0.581245 0.424515 0.304254
C37   C     C_2   0.758754 0.582338 0.576385 0.266140
C38   C     C_2   0.738605 0.081245 0.424515 0.304254
C39   C     C_2   0.258754 0.082338 0.576385 0.266140
C40   C     C_R   0.471653 0.822078 0.853420 0.557259
C41   C     C_R   0.528314 0.821883 0.146650 0.540729
C42   C     C_R   0.971653 0.322078 0.853420 0.557259
C43   C     C_R   0.028314 0.321883 0.146650 0.540729
C44   C     C_2   0.192117 0.535854 0.472463 0.431525
C45   C     C_R   0.478563 0.055591 0.072838 0.290271
C46   C     C_2   0.812161 0.566468 0.529303 0.404027
C47   C     C_2   0.692117 0.035854 0.472463 0.431525
C48   C     C_2   0.312161 0.066468 0.529303 0.404027
C49   C     C_2   0.190282 0.576459 0.545628 0.416197
C50   C     C_2   0.808763 0.599522 0.456014 0.427447
C51   C     C_2   0.690282 0.076459 0.545628 0.416197
C52   C     C_2   0.308763 0.099522 0.456014 0.427447
C53   C     C_R   0.260939 0.635879 0.851072 0.585256
C54   C     C_R   0.739146 0.635458 0.149013 0.580591
C55   C     C_R   0.760939 0.135879 0.851072 0.585256
C56   C     C_R   0.519974 0.056156 0.929148 0.286836
C57   C     C_R   0.239146 0.135458 0.149013 0.580591
C58   C     C_R   0.272986 0.045304 0.647975 0.608833
C59   C     C_R   0.727033 0.046274 0.351918 0.631736
C60   C     C_R   0.772986 0.545304 0.647975 0.608833
C61   C     C_R   0.227033 0.546273 0.351918 0.631736
C62   C     C_R   0.440053 0.819439 0.639999 0.598139
C63   C     C_R   0.526596 0.824349 0.349848 0.606476
C64   C     C_R   0.940053 0.319440 0.639999 0.598139
C65   C     C_R   0.026596 0.324349 0.349848 0.606476
C66   C     C_R   0.259966 0.632827 0.647844 0.573869
C67   C     C_R   0.978563 0.555591 0.072838 0.290271
C68   C     C_R   0.740163 0.633930 0.352104 0.571567
C69   C     C_R   0.759966 0.132827 0.647844 0.573869
C70   C     C_R   0.240163 0.133930 0.352104 0.571568
C71   C     C_R   0.498002 0.829212 0.074711 -0.067373
C72   C     C_R   0.501869 0.829639 0.925463 -0.070714
C73   C     C_R   0.998002 0.329212 0.074711 -0.067373
C74   C     C_R   0.001869 0.329639 0.925463 -0.070714
C75   C     C_R   0.493699 0.942377 0.037896 -0.151641
C76   C     C_R   0.505429 0.942644 0.963151 -0.154586
C77   C     C_R   0.993699 0.442377 0.037896 -0.151641
C78   C     C_R   0.019974 0.556156 0.929148 0.286836
C79   C     C_R   0.005429 0.442644 0.963151 -0.154586
C80   C     C_R   0.503730 0.719539 0.963424 0.463601
C81   C     C_R   0.496929 0.719321 0.035951 0.465630
C82   C     C_R   0.003730 0.219539 0.963424 0.463601
C83   C     C_R   0.996929 0.219321 0.035951 0.465630
C84   C     C_R   0.987966 0.665475 0.036669 0.481976
Cr1   Cr    Cr6+3 0.230530 0.836340 0.748870 1.195719
Cr2   Cr    Cr6+3 0.614360 0.677860 0.250770 1.209892
Cr3   Cr    Cr6+3 0.885640 0.177860 0.749230 1.200511
Cr4   Cr    Cr6+3 0.114360 0.177860 0.250770 1.209892
Cr5   Cr    Cr6+3 0.769470 0.836340 0.251130 1.214321
Cr6   Cr    Cr6+3 0.730530 0.336340 0.748870 1.195719
Cr7   Cr    Cr6+3 0.269470 0.336340 0.251130 1.214321
Cr8   Cr    Cr6+3 0.387420 0.989430 0.750820 1.177392
Cr9   Cr    Cr6+3 0.612580 0.989430 0.249180 1.179873
Cr10  Cr    Cr6+3 0.887420 0.489430 0.750820 1.177392
Cr11  Cr    Cr6+3 0.112580 0.489430 0.249180 1.179873
Cr12  Cr    Cr6+3 0.385640 0.677860 0.749230 1.200511
F1    F     F_    0.509697 0.609297 0.930146 -0.455909
F2    F     F_    0.862822 0.668234 0.430849 -0.484441
F3    F     F_    0.635345 0.147240 0.567194 -0.512263
F4    F     F_    0.362822 0.168234 0.430849 -0.484441
F5    F     F_    0.296920 0.476979 0.564125 -0.557093
F6    F     F_    0.706093 0.484743 0.439806 -0.596991
F7    F     F_    0.796920 0.976979 0.564125 -0.557093
F8    F     F_    0.206093 0.984743 0.439806 -0.596991
F9    F     F_    0.975341 0.773386 0.070353 -0.476051
F10   F     F_    0.022164 0.773959 0.933486 -0.474336
F11   F     F_    0.475341 0.273386 0.070353 -0.476051
F12   F     F_    0.491675 0.608938 0.068421 -0.454103
F13   F     F_    0.522164 0.273959 0.933485 -0.474336
F14   F     F_    0.369957 0.546773 0.936958 -0.559990
F15   F     F_    0.630228 0.546094 0.063009 -0.558642
F16   F     F_    0.869957 0.046773 0.936958 -0.559990
F17   F     F_    0.130227 0.046094 0.063009 -0.558642
F18   F     F_    0.181372 0.567451 0.942836 -0.638759
F19   F     F_    0.818767 0.565930 0.057076 -0.640599
F20   F     F_    0.681372 0.067451 0.942836 -0.638759
F21   F     F_    0.318767 0.065930 0.057076 -0.640600
F22   F     F_    0.466612 0.623688 0.420430 -0.518281
F23   F     F_    0.009697 0.109297 0.930146 -0.455909
F24   F     F_    0.389736 0.660893 0.542756 -0.572479
F25   F     F_    0.966612 0.123688 0.420430 -0.518281
F26   F     F_    0.889736 0.160893 0.542756 -0.572478
F27   F     F_    0.463101 0.952670 0.432724 -0.506444
F28   F     F_    0.516840 0.902907 0.550614 -0.499974
F29   F     F_    0.963101 0.452670 0.432724 -0.506444
F30   F     F_    0.016839 0.402907 0.550614 -0.499975
F31   F     F_    0.991675 0.108938 0.068421 -0.454103
F32   F     F_    0.142231 0.453932 0.452287 -0.577016
F33   F     F_    0.876140 0.526896 0.550605 -0.559161
F34   F     F_    0.642231 0.953932 0.452287 -0.577016
F35   F     F_    0.376140 0.026896 0.550605 -0.559161
F36   F     F_    0.135345 0.647240 0.567194 -0.512263
H1    H     H_    0.274668 0.714846 0.483019 0.338406
H2    H     H_    0.657441 0.360996 0.978790 0.408598
H3    H     H_    0.843473 0.861742 0.020099 0.407889
H4    H     H_    0.157441 0.860996 0.978791 0.408598
H5    H     H_    0.209549 0.746382 0.093774 0.342602
H6    H     H_    0.790151 0.746214 0.907786 0.342128
H7    H     H_    0.709549 0.246382 0.093774 0.342602
H8    H     H_    0.290151 0.246213 0.907787 0.342129
H9    H     H_    0.698457 0.686469 0.519408 0.341421
H10   H     H_    0.774668 0.214846 0.483019 0.338406
H11   H     H_    0.198458 0.186469 0.519408 0.341421
H12   H     H_    0.425073 0.984956 0.150166 0.333717
H13   H     H_    0.573976 0.986396 0.851344 0.338877
H14   H     H_    0.925072 0.484956 0.150166 0.333717
H15   H     H_    0.073976 0.486396 0.851344 0.338877
H16   H     H_    0.343473 0.361742 0.020099 0.407889
O1    O     O_R   0.215090 0.709860 0.828130 -0.414439
O2    O     O_R   0.543740 0.718170 0.330000 -0.464006
O3    O     O_R   0.956260 0.218170 0.670000 -0.471900
O4    O     O_R   0.043740 0.218170 0.330000 -0.464006
O5    O     O_R   0.320940 0.626760 0.674370 -0.451970
O6    O     O_R   0.679060 0.626760 0.325630 -0.457427
O7    O     O_R   0.820940 0.126760 0.674370 -0.451970
O8    O     O_R   0.179060 0.126760 0.325630 -0.457427
O9    O     O_3   0.334530 0.834540 0.749640 -0.366455
O10   O     O_3   0.665470 0.834540 0.250360 -0.338297
O11   O     O_3   0.834530 0.334540 0.749640 -0.366455
O12   O     O_R   0.784910 0.709860 0.171870 -0.416473
O13   O     O_3   0.165470 0.334540 0.250360 -0.338297
O14   O     O_R   0.236990 0.958390 0.823710 -0.451238
O15   O     O_R   0.763010 0.958390 0.176290 -0.454727
O16   O     O_R   0.736990 0.458390 0.823710 -0.451238
O17   O     O_R   0.263010 0.458390 0.176290 -0.454727
O18   O     O_R   0.332380 0.074750 0.830850 -0.510258
O19   O     O_R   0.667620 0.074750 0.169150 -0.512268
O20   O     O_R   0.832380 0.574750 0.830850 -0.510258
O21   O     O_R   0.167620 0.574750 0.169150 -0.512268
O22   O     O_R   0.445800 0.917770 0.825070 -0.484636
O23   O     O_R   0.715090 0.209860 0.828130 -0.414439
O24   O     O_R   0.554200 0.917770 0.174930 -0.494561
O25   O     O_R   0.945800 0.417770 0.825070 -0.484636
O26   O     O_R   0.054200 0.417770 0.174930 -0.494561
O27   O     O_R   0.456410 0.716580 0.829970 -0.396467
O28   O     O_R   0.543590 0.716580 0.170030 -0.402385
O29   O     O_R   0.956410 0.216580 0.829970 -0.396467
O30   O     O_R   0.043590 0.216580 0.170030 -0.402385
O31   O     O_R   0.321080 0.625290 0.822650 -0.485584
O32   O     O_R   0.678920 0.625290 0.177350 -0.485639
O33   O     O_R   0.821080 0.125290 0.822650 -0.485584
O34   O     O_R   0.284910 0.209860 0.171870 -0.416473
O35   O     O_R   0.178920 0.125290 0.177350 -0.485639
O36   O     O_R   0.214930 0.711450 0.668160 -0.467045
O37   O     O_R   0.785070 0.711450 0.331840 -0.456985
O38   O     O_R   0.714930 0.211450 0.668160 -0.467045
O39   O     O_R   0.285070 0.211450 0.331840 -0.456985
O40   O     O_R   0.236850 0.959870 0.675420 -0.478073
O41   O     O_R   0.763150 0.959870 0.324580 -0.473755
O42   O     O_R   0.736850 0.459870 0.675420 -0.478073
O43   O     O_R   0.263150 0.459870 0.324580 -0.473755
O44   O     O_R   0.332230 0.076350 0.670880 -0.461153
O45   O     O_R   0.445660 0.919250 0.676780 -0.419122
O46   O     O_R   0.667770 0.076350 0.329120 -0.465804
O47   O     O_R   0.832230 0.576350 0.670880 -0.461153
O48   O     O_R   0.167770 0.576350 0.329120 -0.465805
O49   O     O_3   0.286913 0.672450 0.438121 -0.647415
O50   O     O_3   0.693839 0.631923 0.560916 -0.624193
O51   O     O_3   0.786912 0.172450 0.438121 -0.647415
O52   O     O_3   0.193839 0.131923 0.560916 -0.624193
O53   O     O_3   0.449458 0.062837 0.139970 -0.569150
O54   O     O_3   0.549127 0.064001 0.862123 -0.563671
O55   O     O_3   0.949458 0.562837 0.139970 -0.569150
O56   O     O_R   0.554340 0.919250 0.323220 -0.423016
O57   O     O_3   0.049127 0.564001 0.862123 -0.563671
O58   O     O_3   0.316634 0.401687 0.059027 -0.599055
O59   O     O_3   0.683919 0.401296 0.940060 -0.600311
O60   O     O_3   0.816634 0.901688 0.059027 -0.599054
O61   O     O_3   0.183919 0.901296 0.940060 -0.600311
O62   O     O_3   0.234307 0.702905 0.054721 -0.706377
O63   O     O_3   0.765486 0.702684 0.946527 -0.705377
O64   O     O_3   0.734307 0.202905 0.054721 -0.706377
O65   O     O_3   0.265486 0.202684 0.946527 -0.705378
O66   O     O_R   0.945660 0.419250 0.676780 -0.419122
O67   O     O_R   0.054340 0.419250 0.323220 -0.423017
O68   O     O_R   0.456260 0.718170 0.670000 -0.471900

loop_
_geom_bond_atom_site_label_1
_geom_bond_atom_site_label_2
_ccdc_geom_bond_type
C44   C49   S    
C43   C73   S    
C31   C66   S    
C39   O52   S    
C43   O30   A    
Cr10  O11   S    
C56   C76   A    
Cr12  O27   S    
C5    F18   S    
Cr11  O67   S    
H10   O51   S    
C14   C18   S    
C2    C84   A    
Cr9   O46   S    
C67   C77   A    
C24   C27   D    
C7    C55   S    
C9    C14   D    
C46   F33   S    
C40   O22   A    
C31   C49   D    
Cr5   O10   S    
Cr9   O24   S    
C32   C68   S    
C15   C19   S    
C6    C19   D    
C69   O7    A    
C70   O8    A    
Cr4   O8    S    
C64   O66   A    
Cr11  O26   S    
C6    C54   S    
C65   O67   A    
C68   O6    A    
C10   C15   D    
Cr2   O2    S    
H13   O54   S    
C11   O64   S    
C43   O26   A    
C73   C83   A    
H4    O61   S    
C56   O54   S    
C42   O29   A    
Cr4   O13   S    
H6    O63   S    
C13   O65   S    
Cr6   O11   S    
H15   O57   S    
Cr9   O56   S    
C12   O19   A    
C75   C76   A    
C20   F16   S    
C30   F26   S    
C35   C70   S    
Cr8   O22   S    
C29   F25   S    
Cr6   O23   S    
C48   F35   S    
C34   O17   A    
C40   C72   S    
C9    O62   S    
Cr2   O28   S    
C33   C69   S    
C41   C71   S    
C39   C48   D    
Cr1   O40   S    
Cr12  O9    S    
C81   F12   S    
C67   C84   A    
Cr3   O3    S    
C4    C56   A    
C53   O1    A    
Cr1   O14   S    
Cr4   O4    S    
Cr9   O10   S    
Cr1   O9    S    
C82   F23   S    
C74   C82   A    
C53   O31   A    
C55   O23   A    
C57   O34   A    
C49   F36   S    
C8    F21   S    
C8    C21   D    
C77   C79   A    
C59   O46   A    
C51   F3    S    
C41   O24   A    
C42   C74   S    
Cr10  O66   S    
C63   O56   A    
C47   F34   S    
C58   O40   A    
Cr10  O47   S    
C36   O49   S    
C21   F17   S    
C35   F8    S    
C28   F24   S    
C50   F2    S    
Cr10  O20   S    
C78   C79   A    
Cr4   O35   S    
C47   C51   S    
C5    C18   D    
Cr6   O38   S    
C3    F11   S    
C39   C58   S    
Cr7   O43   S    
C3    C45   A    
C24   F27   S    
C17   C21   S    
C33   C51   D    
C23   O20   A    
Cr6   O16   S    
Cr8   O9    S    
C25   C64   S    
C7    F20   S    
C25   F30   S    
C63   O2    A    
C2    F10   S    
H14   O55   S    
H11   O52   S    
C8    C57   S    
C22   C62   S    
Cr11  O21   S    
C11   C16   D    
C66   O36   A    
Cr12  O5    S    
C29   C30   S    
C16   C20   S    
C27   C28   S    
Cr2   O32   S    
C84   F9    S    
C55   O33   A    
C72   C76   A    
C37   O50   S    
Cr4   O30   S    
Cr2   O10   S    
C61   O48   A    
C32   C50   D    
C38   C47   D    
C34   O21   A    
C70   O39   A    
H8    O65   S    
C45   O53   S    
C41   O28   A    
C68   O37   A    
Cr8   O45   S    
C24   C63   S    
C74   C79   A    
C14   O58   S    
C58   O44   A    
C9    C34   S    
C10   C23   S    
Cr3   O7    S    
C36   C44   D    
C1    C13   S    
H9    O50   S    
C3    C4    A    
C31   F5    S    
C57   O35   A    
Cr3   O29   S    
C2    C78   A    
Cr5   O12   S    
C23   O16   A    
Cr6   O42   S    
C27   F22   S    
C5    C53   S    
C25   C30   D    
Cr7   O39   S    
C44   F32   S    
H1    O49   S    
Cr11  O48   S    
C4    F13   S    
C33   F7    S    
C26   C65   S    
C62   O68   A    
Cr7   O17   S    
C18   F14   S    
C83   F31   S    
C80   C81   A    
C16   O60   S    
C42   O25   A    
Cr3   O33   S    
C40   O27   A    
C11   C12   S    
C22   F28   S    
C36   C61   S    
C19   F15   S    
H7    O64   S    
Cr1   O36   S    
C66   O5    A    
C46   C50   S    
C17   O61   S    
Cr12  O68   S    
C13   C17   D    
H5    O62   S    
C45   C75   A    
Cr5   O37   S    
H16   O58   S    
C80   F1    S    
C65   O4    A    
Cr11  O13   S    
Cr2   O6    S    
C78   O57   S    
C72   C80   A    
C12   O15   A    
C71   C75   A    
H2    O59   S    
C1    O18   A    
Cr3   O11   S    
C54   O32   A    
Cr5   O15   S    
C32   F6    S    
Cr12  O31   S    
Cr5   O41   S    
C64   O3    A    
Cr1   O1    S    
C6    F19   S    
C37   C60   S    
C67   O55   S    
C1    O14   A    
Cr10  O25   S    
C54   O12   A    
C38   C59   S    
C59   O41   A    
Cr8   O18   S    
C10   O63   S    
C48   C52   S    
Cr9   O19   S    
C26   C29   D    
C60   O42   A    
C7    C20   D    
H3    O60   S    
Cr7   O34   S    
C35   C52   D    
C61   O43   A    
C52   F4    S    
C73   C77   A    
C38   O51   S    
Cr7   O13   S    
C22   C28   D    
C62   O45   A    
C82   C83   A    
C37   C46   D    
C69   O38   A    
C26   F29   S    
C15   O59   S    
Cr8   O44   S    
C60   O47   A    
H12   O53   S    
C71   C81   A    
