data_mof_unit_34495.cif
_audit_creation_date              2012-12-10T18:12:31-0500
_audit_creation_method            fapswitch 2.2
_symmetry_space_group_name_H-M    P1
_symmetry_Int_Tables_number       1
_space_group_crystal_system       triclinic
_cell_length_a                    12.620032
_cell_length_b                    13.061796
_cell_length_c                    15.705283
_cell_angle_alpha                 90.972324
_cell_angle_beta                  102.782819
_cell_angle_gamma                 81.994104
_cell_volume                      2499.83689186

loop_
_atom_site_label
_atom_site_type_symbol
_atom_type_description
_atom_site_fract_x
_atom_site_fract_y
_atom_site_fract_z
_atom_type_partial_charge
C1    C     C_R   0.438364 0.691632 0.493416 0.916346
C2    C     C_R   0.598563 0.198688 0.525357 -0.057734
C3    C     C_R   0.294747 0.838532 0.437959 -0.275996
C4    C     C_R   0.501877 0.498293 0.661999 0.933429
C5    C     C_R   0.264078 0.944233 0.422275 0.526204
C6    C     C_R   0.341837 0.011118 0.450089 -0.290619
C7    C     C_R   0.445622 0.974152 0.504059 0.006643
C8    C     C_R   0.463193 0.872400 0.537186 0.022994
C9    C     C_R   0.530854 0.035331 0.528756 0.120565
C10   C     C_R   0.624952 0.999582 0.594553 0.154413
C11   C     C_R   0.630502 0.905906 0.637794 -0.322540
C12   C     C_3   0.505496 0.492848 0.918144 0.202167
C13   C     C_R   0.546323 0.844855 0.613357 -0.032628
C14   C     C_R   0.524342 0.131903 0.490402 -0.245284
C15   C     C_R   0.693444 0.162935 0.588041 -0.194918
C16   C     C_R   0.561355 0.308360 0.509499 0.844761
C17   C     C_R   0.396544 0.801865 0.492506 -0.131636
C18   C     C_R   0.090263 0.342180 0.381953 -0.308170
C19   C     C_R   0.798515 0.632716 0.600600 0.036153
C20   C     C_R   0.902144 0.662911 0.621113 -0.244592
C21   C     C_R   0.984092 0.612597 0.582971 -0.195945
C22   C     C_R   0.962265 0.531318 0.523819 0.016578
C23   C     C_3   0.496233 0.397548 0.026187 -0.166749
C24   C     C_R   0.855046 0.503416 0.505301 0.230947
C25   C     C_R   0.041934 0.477153 0.482287 -0.013485
C26   C     C_R   0.012858 0.396680 0.423265 0.190130
C27   C     C_R   0.906941 0.371246 0.406085 -0.297046
C28   C     C_R   0.498924 0.499552 0.338064 0.891156
C29   C     C_R   0.829402 0.423605 0.446900 -0.200826
C30   C     C_R   0.150089 0.499244 0.496811 -0.048423
C31   C     C_R   0.195688 0.367717 0.399332 0.015952
C32   C     C_3   0.414771 0.558436 0.011912 -0.166595
C33   C     C_3   0.509414 0.589619 0.974518 -0.152655
C34   C     C_3   0.500143 0.494350 0.082531 0.201056
C35   C     C_1   0.505667 0.495069 0.751713 -0.162938
C36   C     C_1   0.497243 0.497523 0.248595 -0.178621
C37   C     C_3   0.410851 0.461656 0.953793 -0.164847
C38   C     C_3   0.094502 0.019634 0.431429 0.071128
C39   C     C_3   0.977505 0.053882 0.379829 -0.320944
C40   C     C_3   0.901352 0.092553 0.440343 -0.963114
C41   C     C_2   0.532561 0.768234 0.677699 0.900458
C42   C     C_3   0.590916 0.428749 0.988708 -0.160114
C43   C     C_3   0.594798 0.525554 0.046876 -0.155641
C44   C     C_1   0.506823 0.493304 0.827331 -0.069222
C45   C     C_1   0.497747 0.495850 0.173200 -0.076544
C46   C     C_R   0.707716 0.062404 0.621303 -0.196191
H1    H     H_    0.514973 0.668057 0.951202 0.150046
H2    H     H_    0.342701 0.611411 0.023470 0.140889
H3    H     H_    0.062961 0.639232 0.600889 0.144312
H4    H     H_    0.918771 0.725357 0.666158 0.153943
H5    H     H_    0.749739 0.400073 0.431332 0.212123
H6    H     H_    0.669908 0.551749 0.087097 0.141660
H7    H     H_    0.662963 0.375804 0.977075 0.137885
H8    H     H_    0.490662 0.319099 0.049446 0.136518
H9    H     H_    0.335740 0.435470 0.913567 0.139693
H10   H     H_    0.752240 0.214332 0.615312 0.160916
H11   H     H_    0.696513 0.884091 0.694216 0.176226
H12   H     H_    0.457849 0.160081 0.436592 0.142080
H13   H     H_    0.779526 0.036377 0.671970 0.138543
H14   H     H_    0.126129 0.087664 0.466947 0.142932
H15   H     H_    0.092068 0.958660 0.479644 0.147025
H16   H     H_    0.977836 0.116784 0.333172 0.214948
H17   H     H_    0.945781 0.987684 0.341935 0.234042
H18   H     H_    0.895614 0.029190 0.484704 0.272762
H19   H     H_    0.817938 0.119863 0.400926 0.266450
H20   H     H_    0.932223 0.157790 0.480048 0.270103
H21   H     H_    0.426108 0.701729 0.730221 0.332037
H22   H     H_    0.239640 0.785557 0.406804 0.176258
H23   H     H_    0.316900 0.091568 0.431795 0.145545
H24   H     H_    0.257046 0.326113 0.368438 0.130562
H25   H     H_    0.883821 0.310382 0.360867 0.163871
H26   H     H_    0.069549 0.280497 0.336973 0.148224
H27   H     H_    0.180078 0.558349 0.540465 0.134696
H28   H     H_    0.734442 0.671898 0.629399 0.172414
N1    N     N_R   0.222180 0.444680 0.455580 -0.102783
N2    N     N_R   0.776980 0.554790 0.543960 -0.136234
O1    O     O_R   0.366730 0.627160 0.478790 -0.608996
O2    O     O_2   0.611017 0.730323 0.733902 -0.655318
O3    O     O_R   0.427434 0.746039 0.678294 -0.828531
O4    O     O_R   0.544830 0.662520 0.507160 -0.625571
O5    O     O_R   0.410960 0.482330 0.609040 -0.611873
O6    O     O_R   0.589060 0.517690 0.637410 -0.595955
O7    O     O_R   0.455170 0.337480 0.492840 -0.614298
O8    O     O_R   0.633270 0.372840 0.521210 -0.642582
O9    O     O_R   0.410940 0.482310 0.362590 -0.613184
O10   O     O_R   0.589040 0.517670 0.390960 -0.626305
O11   O     O_3   0.161046 0.980894 0.373357 -0.645660
Zn1   Zn    Zn3+2 0.381080 0.476390 0.481050 0.948586
Zn2   Zn    Zn3+2 0.618920 0.523610 0.518950 0.944941

loop_
_geom_bond_atom_site_label_1
_geom_bond_atom_site_label_2
_ccdc_geom_bond_type
C6    H23   S    
C8    C13   A    
C46   H13   S    
C27   C29   A    
C1    O1    A    
C19   C20   A    
C18   C26   A    
C13   C41   S    
C7    C8    A    
C26   C27   A    
C23   C42   S    
C19   N2    A    
C42   H7    S    
C5    C6    A    
C43   H6    S    
C16   O8    A    
C12   C37   S    
C24   C29   A    
C12   C42   S    
C31   H24   S    
C4    O5    A    
C3    H22   S    
O1    Zn1   S    
C22   C25   A    
C10   C46   A    
C20   H4    S    
C2    C16   S    
C9    C10   A    
N2    Zn2   S    
C38   H15   S    
O7    Zn1   S    
O4    Zn2   S    
C4    C35   S    
C40   H20   S    
C21   C22   A    
C32   H2    S    
C21   H3    S    
C18   H26   S    
C14   H12   S    
C33   C43   S    
H21   O3    S    
C41   O2    D    
C30   H27   S    
C24   N2    A    
C25   C26   A    
C23   C37   S    
C16   O7    A    
C32   C34   S    
C9    C14   A    
C35   C44   T    
C31   N1    A    
C23   C34   S    
C36   C45   T    
C34   C45   S    
C32   C37   S    
C2    C15   A    
O6    Zn2   S    
C38   H14   S    
C40   H19   S    
C28   O10   A    
C33   H1    S    
C22   C24   A    
C42   C43   S    
C39   C40   S    
C5    O11   S    
C27   H25   S    
C23   H8    S    
C29   H5    S    
O9    Zn1   S    
C25   C30   A    
C7    C9    A    
C39   H16   S    
C19   H28   S    
C34   C43   S    
C3    C5    A    
O10   Zn2   S    
C41   O3    S    
C6    C7    A    
C39   H17   S    
C1    C17   S    
C8    C17   A    
C40   H18   S    
C38   O11   S    
C15   H10   S    
C12   C44   S    
C32   C33   S    
C30   N1    A    
C11   C13   A    
C38   C39   S    
C3    C17   A    
C2    C14   A    
O5    Zn1   S    
C10   C11   A    
C37   H9    S    
N1    Zn1   S    
C4    O6    A    
C20   C21   A    
C28   C36   S    
O8    Zn2   S    
C28   O9    A    
C1    O4    A    
C18   C31   A    
C15   C46   A    
C12   C33   S    
C11   H11   S    
