data_mof_unit_18363.cif
_audit_creation_date              2013-03-05T16:43:31-0500
_audit_creation_method            fapswitch 2.2
_symmetry_space_group_name_H-M    P1
_symmetry_Int_Tables_number       1
_space_group_crystal_system       triclinic
_cell_length_a                    10.51968
_cell_length_b                    10.650638
_cell_length_c                    9.892428
_cell_angle_alpha                 89.722817
_cell_angle_beta                  89.371918
_cell_angle_gamma                 90.623745
_cell_volume                      1108.21464186

loop_
_atom_site_label
_atom_site_type_symbol
_atom_site_description
_atom_site_fract_x
_atom_site_fract_y
_atom_site_fract_z
_atom_type_partial_charge
O1    O     O_R   0.500020 0.316790 0.614690 -0.624703
O2    O     O_R   0.500000 0.316760 0.385350 -0.624694
C1    C     C_R   0.494475 0.259936 0.500311 0.889964
O3    O     O_R   0.313960 0.499990 0.614650 -0.623641
O4    O     O_R   0.313940 0.499950 0.385310 -0.632617
C2    C     C_R   0.257674 0.499777 0.500707 0.934722
Zn1   Zn    Zn3+2 0.500010 0.500020 0.653130 0.978181
Zn2   Zn    Zn3+2 0.499990 0.499980 0.346870 1.016890
O5    O     O_R   0.500000 0.683240 0.614650 -0.620780
O6    O     O_R   0.499980 0.683210 0.385310 -0.594487
O7    O     O_R   0.686060 0.500050 0.614690 -0.610660
O8    O     O_R   0.686040 0.500010 0.385350 -0.577749
C3    C     C_R   0.494093 0.739973 0.499966 0.952545
C4    C     C_R   0.742441 0.500220 0.499223 0.986906
C5    C     C_3   0.039341 0.513505 0.629424 -0.236878
C6    C     C_3   0.955025 0.403989 0.576256 -0.278557
H1    H     H_    0.914923 0.324031 0.635897 0.188264
C7    C     C_3   0.877177 0.500959 0.497578 -0.152236
C8    C     C_3   0.960354 0.607686 0.549218 0.388254
C9    C     C_3   0.045816 0.597623 0.423312 -0.254719
C10   C     C_3   0.961281 0.488285 0.370086 -0.207563
C11   C     C_3   0.040504 0.394234 0.450316 0.360383
C12   C     C_3   0.123228 0.500837 0.502093 -0.147989
H2    H     H_    0.086212 0.677429 0.363654 0.191139
H3    H     H_    0.926838 0.476132 0.265205 0.209339
C13   C     C_R   0.461455 0.063281 0.623088 0.145561
C14   C     C_R   0.469422 0.128579 0.501030 -0.073097
C15   C     C_R   0.447913 0.064987 0.379294 -0.120149
H4    H     H_    0.441894 0.114274 0.283582 0.171520
C16   C     C_R   0.447006 0.935083 0.379389 -0.153574
H5    H     H_    0.439351 0.886369 0.284060 0.207640
C17   C     C_R   0.468707 0.870856 0.500871 -0.109722
C18   C     C_R   0.460998 0.935184 0.623101 0.125088
C19   C     C_3   0.540656 0.928473 0.747210 -0.404497
C20   C     C_3   0.541809 0.070846 0.746524 -0.459441
H6    H     H_    0.487269 0.887309 0.834623 0.224678
H7    H     H_    0.635879 0.887872 0.728394 0.261611
H8    H     H_    0.489853 0.111590 0.834030 0.210349
H9    H     H_    0.637499 0.112524 0.725760 0.220587
C21   C     C_R   0.449406 0.400829 0.072328 0.125836
N1    N     N_R   0.499140 0.499140 0.142800 -0.166619
C22   C     C_R   0.559408 0.593576 0.069289 0.319583
C23   C     C_R   0.558741 0.592773 0.925730 -0.175543
H10   H     H_    0.605241 0.667835 0.869390 0.193456
N2    N     N_R   0.499140 0.499180 0.857150 -0.130218
C24   C     C_R   0.449302 0.400950 0.930010 0.188700
C25   C     C_3   0.314918 0.355323 0.926254 -0.473109
C26   C     C_3   0.315120 0.354955 0.079805 -0.413938
H11   H     H_    0.249666 0.425778 0.882555 0.218237
H12   H     H_    0.306697 0.259803 0.882288 0.213965
H13   H     H_    0.249681 0.424937 0.124967 0.229788
H14   H     H_    0.307500 0.259128 0.124309 0.229194
N3    N     N_R   0.621309 0.696271 0.135028 0.223634
O9    O     O_R   0.723111 0.675964 0.204602 -0.348570
O10   O     O_R   0.598967 0.810252 0.094556 -0.432486
H15   H     H_    0.073612 0.526171 0.734272 0.181286
N4    N     N_R   0.916793 0.727189 0.602498 0.218467
O11   O     O_R   0.998832 0.806949 0.650688 -0.360612
O12   O     O_R   0.798641 0.759541 0.591166 -0.416593
N5    N     N_R   0.090001 0.276780 0.397742 0.208471
O13   O     O_R   0.064188 0.242013 0.275135 -0.391476
O14   O     O_R   0.158095 0.204955 0.474378 -0.397316

loop_
_geom_bond_atom_site_label_1
_geom_bond_atom_site_label_2
_geom_bond_distance
_ccdc_geom_bond_type
C21   C24   1.407880 A    
O4    Zn2   1.989684 S    
C20   H9    1.112383 S    
C23   H10   1.081778 S    
C16   C17   1.402044 A    
C7    C10   1.539944 S    
N1    C22   1.382518 A    
C4    C7    1.417225 S    
C13   C18   1.364278 A    
C19   H6    1.111625 S    
C8    C9    1.532942 S    
C9    C12   1.535440 S    
Zn2   O8    1.997950 S    
C17   C18   1.394669 A    
C15   C16   1.383489 A    
C18   C19   1.495887 S    
N4    O11   1.300262 A    
C25   H11   1.111626 S    
O1    Zn1   1.990025 S    
N3    O9    1.298890 A    
Zn2   N1    2.018928 S    
N5    O14   1.300495 A    
C5    C8    1.533309 S    
C23   N2    1.359884 A    
C13   C14   1.391768 A    
O4    C2    1.280095 A    
O3    Zn1   1.997950 S    
C2    C12   1.414405 S    
Zn1   N2    2.018151 S    
C1    C14   1.420792 S    
C15   H4    1.083170 S    
O8    C4    1.278928 A    
Zn1   O7    1.989685 S    
C25   H12   1.111235 S    
O2    C1    1.286120 A    
N3    O10   1.301091 A    
C22   N3    1.429670 S    
C11   N5    1.456385 S    
C16   H5    1.081878 S    
C26   H13   1.112066 S    
O7    C4    1.281254 A    
O2    Zn2   1.986383 S    
N4    O12   1.299289 A    
O3    C2    1.278967 A    
C6    H1    1.110465 S    
C22   C23   1.420306 A    
C5    C12   1.537353 S    
C5    C6    1.554842 S    
C19   H7    1.109586 S    
C9    H2    1.110468 S    
C13   C20   1.494715 S    
C26   H14   1.111309 S    
C20   H8    1.111220 S    
C7    C8    1.520677 S    
C9    C10   1.554928 S    
C6    C7    1.538743 S    
C19   C20   1.516258 S    
C24   C25   1.490766 S    
C14   C15   1.403825 A    
Zn1   O5    1.986383 S    
C10   H3    1.110414 S    
C11   C12   1.517445 S    
C21   N1    1.363538 A    
O5    C3    1.285222 A    
C3    C17   1.422239 S    
C10   C11   1.533905 S    
N2    C24   1.364332 A    
C21   C26   1.490660 S    
O6    C3    1.289077 A    
Zn2   O6    1.990025 S    
C8    N4    1.456592 S    
C25   C26   1.519002 S    
C6    C11   1.533061 S    
N5    O13   1.300498 A    
O1    C1    1.287490 A    
C5    H15   1.110159 S    
