data_mof_unit_44888.cif
_audit_creation_date              2012-12-10T19:01:23-0500
_audit_creation_method            fapswitch 2.2
_symmetry_space_group_name_H-M    P1
_symmetry_Int_Tables_number       1
_space_group_crystal_system       triclinic
_cell_length_a                    9.551922
_cell_length_b                    10.812589
_cell_length_c                    15.42889
_cell_angle_alpha                 89.655525
_cell_angle_beta                  74.729699
_cell_angle_gamma                 89.932572
_cell_volume                      1537.2229682

loop_
_atom_site_label
_atom_site_type_symbol
_atom_type_description
_atom_site_fract_x
_atom_site_fract_y
_atom_site_fract_z
_atom_type_partial_charge
C1    C     C_R   0.000588 0.262480 0.499002 0.796081
C2    C     C_R   0.671884 0.473582 0.905876 0.090630
C3    C     C_R   0.769402 0.428401 0.953659 0.152208
C4    C     C_R   0.521561 0.485277 0.950247 0.066007
C5    C     C_R   0.473119 0.464043 0.044709 0.067186
C6    C     C_R   0.574328 0.419231 0.089909 -0.179461
C7    C     C_R   0.719001 0.400333 0.044722 -0.193234
C8    C     C_R   0.417620 0.514040 0.902680 -0.216682
C9    C     C_R   0.272648 0.529598 0.946706 -0.219593
C10   C     C_R   0.225449 0.518189 0.039622 0.112994
C11   C     C_R   0.324469 0.486235 0.090101 0.096221
C12   C     C_R   0.918635 0.497804 0.672195 0.788498
C13   C     C_R   0.079307 0.539477 0.082284 -0.236189
C14   C     C_R   0.027974 0.532126 0.175297 0.260990
C15   C     C_R   0.271675 0.481380 0.184342 -0.293466
C16   C     C_R   0.113105 0.063835 0.518579 0.142695
C17   C     C_R   0.004934 0.129452 0.492655 -0.096850
C18   C     C_R   0.905244 0.065191 0.457151 -0.209091
C19   C     C_R   0.905474 0.936196 0.457243 -0.210003
C20   C     C_R   0.004300 0.871113 0.493600 -0.096534
C21   C     C_R   0.112547 0.936367 0.519444 0.121079
C22   C     C_3   0.153732 0.930933 0.606475 -0.472613
C23   C     C_R   0.000325 0.737686 0.499388 0.804191
C24   C     C_3   0.155658 0.071140 0.604816 -0.476910
C25   C     C_R   0.599042 0.571178 0.439866 0.349704
C26   C     C_R   0.551423 0.422153 0.554227 -0.090266
C27   C     C_R   0.402492 0.422348 0.554389 -0.088944
C28   C     C_R   0.452022 0.570226 0.439171 0.274652
C29   C     C_3   0.449106 0.707189 0.429087 -0.503869
C30   C     C_3   0.606301 0.708684 0.431854 -0.512473
C31   C     C_R   0.081215 0.501528 0.327340 0.833145
C32   C     C_R   0.873624 0.483669 0.770301 -0.048916
C33   C     C_R   0.125158 0.504235 0.227822 -0.114528
C34   C     C_R   0.916551 0.410614 0.909466 -0.213667
C35   C     C_R   0.968266 0.437236 0.818071 -0.204339
C36   C     C_R   0.728507 0.505677 0.814987 -0.244867
Cu1   Cu    Cu3+1 0.140670 0.499980 0.500000 0.943246
Cu2   Cu    Cu3+1 0.859330 0.500020 0.500000 0.963333
H1    H     H_    0.792357 0.364136 0.081633 0.172015
H2    H     H_    0.825042 0.114179 0.431871 0.168367
H3    H     H_    0.826474 0.888013 0.431174 0.161877
H4    H     H_    0.070094 0.113391 0.659927 0.193786
H5    H     H_    0.266094 0.110754 0.595155 0.195533
H6    H     H_    0.588016 0.360848 0.599419 0.145190
H7    H     H_    0.327384 0.361420 0.599794 0.134740
H8    H     H_    0.433517 0.735625 0.362902 0.213909
H9    H     H_    0.343874 0.463251 0.225895 0.171328
H10   H     H_    0.376436 0.753117 0.487979 0.215173
H11   H     H_    0.681233 0.740798 0.367856 0.235511
H12   H     H_    0.621427 0.753551 0.493393 0.204886
H13   H     H_    0.991045 0.373791 0.945286 0.142738
H14   H     H_    0.080906 0.418720 0.784483 0.148044
H15   H     H_    0.662065 0.548682 0.776853 0.147908
H16   H     H_    0.544629 0.393834 0.159965 0.159419
H17   H     H_    0.443557 0.521853 0.830597 0.139440
N1    N     N_R   0.648210 0.500930 0.499430 -0.192726
N2    N     N_R   0.352300 0.500890 0.499430 -0.191518
O1    O     O_R   0.118810 0.319640 0.500000 -0.579903
O2    O     O_R   0.881230 0.319680 0.499990 -0.584396
O3    O     O_R   0.055580 0.499970 0.629840 -0.585093
O4    O     O_R   0.818000 0.500010 0.629830 -0.586579
O5    O     O_R   0.118770 0.680320 0.500010 -0.582099
O6    O     O_R   0.881190 0.680360 0.500000 -0.583113
O7    O     O_R   0.182000 0.499990 0.370170 -0.588036
O8    O     O_R   0.944420 0.500030 0.370160 -0.531548
H18   H     H_    0.004423 0.564118 0.043043 0.173492
H19   H     H_    0.066364 0.891399 0.662223 0.197754
H20   H     H_    0.262939 0.890429 0.599475 0.194068
Br1   Br    Br    0.825483 0.567381 0.223072 -0.600360
H21   H     H_    0.197022 0.552339 0.907527 0.149824

loop_
_geom_bond_atom_site_label_1
_geom_bond_atom_site_label_2
_ccdc_geom_bond_type
C8    C9    A    
C2    C4    A    
C20   C23   S    
C16   C21   A    
Cu1   Cu2   S    
C24   H4    S    
C9    C10   A    
Cu1   O1    S    
C1    C17   S    
C19   C20   A    
C25   N1    A    
C15   H9    S    
C29   H8    S    
C4    C8    A    
Cu2   O4    S    
C27   H7    S    
C14   C33   A    
C31   C33   S    
C2    C3    A    
C34   H13   S    
C26   H6    S    
C16   C24   S    
C28   N2    A    
C13   C14   A    
C12   C32   S    
C25   C28   A    
C12   O4    A    
C22   H20   S    
C26   C27   A    
C29   C30   S    
C1    O1    A    
C6    H16   S    
C32   C36   A    
C8    H17   S    
C23   O6    A    
C28   C29   S    
C30   H11   S    
C5    C11   A    
C6    C7    A    
C3    C7    A    
C13   H18   S    
C1    O2    A    
C30   H12   S    
C5    C6    A    
C14   Br1   S    
Cu2   O6    S    
C22   H19   S    
Cu1   O3    S    
C16   C17   A    
C10   C11   A    
C29   H10   S    
C7    H1    S    
Cu2   O2    S    
C12   O3    A    
C32   C35   A    
C25   C30   S    
Cu1   O7    S    
Cu2   N1    S    
C9    H21   S    
C17   C18   A    
C34   C35   A    
C27   N2    A    
C22   C24   S    
C2    C36   A    
C35   H14   S    
C31   O8    A    
C24   H5    S    
Cu1   O5    S    
C18   C19   A    
C18   H2    S    
C36   H15   S    
C3    C34   A    
C20   C21   A    
C21   C22   S    
Cu2   O8    S    
C11   C15   A    
C31   O7    A    
C15   C33   A    
C23   O5    A    
Cu1   N2    S    
C19   H3    S    
C4    C5    A    
C10   C13   A    
C26   N1    A    
