data_mof_unit_23802.cif
_audit_creation_date              2013-03-05T16:00:23-0500
_audit_creation_method            fapswitch 2.2
_symmetry_space_group_name_H-M    P1
_symmetry_Int_Tables_number       1
_space_group_crystal_system       triclinic
_cell_length_a                    8.204546
_cell_length_b                    12.748891
_cell_length_c                    26.915932
_cell_angle_alpha                 97.042532
_cell_angle_beta                  92.588055
_cell_angle_gamma                 81.4525
_cell_volume                      2762.05997807

loop_
_atom_site_label
_atom_site_type_symbol
_atom_site_description
_atom_site_fract_x
_atom_site_fract_y
_atom_site_fract_z
_atom_type_partial_charge
P1    P     P_3+3 0.072810 0.589830 0.610360 0.486894
O1    O     O_2   0.907040 0.557650 0.617910 -0.365807
O2    O     O_3   0.139040 0.557570 0.557730 -0.406695
O3    O     O_3   0.684960 0.360550 0.588460 -0.341849
O4    O     O_2   0.846838 0.408150 0.675267 -0.446519
O5    O     O_3   0.039863 0.728916 0.623484 -0.547329
O6    O     O_3   0.625549 0.276747 0.676414 -0.599486
H1    H     H_    0.864171 0.209209 0.653892 0.098526
C1    C     C_3   0.828765 0.195182 0.731619 -0.963285
H2    H     H_    0.926463 0.125680 0.734299 0.237070
H3    H     H_    0.881341 0.269573 0.744431 0.241664
P2    P     P_3+3 0.661990 0.251250 0.462170 0.456968
P3    P     P_3+3 0.143678 0.167897 0.565239 0.461320
O7    O     O_2   0.841490 0.235060 0.476710 -0.380549
O8    O     O_3   0.099640 0.305100 0.564190 -0.382682
O9    O     O_2   0.998292 0.116873 0.538925 -0.363608
O10   O     O_3   0.661837 0.216944 0.397249 -0.582442
O11   O     O_3   0.144236 0.142376 0.627570 -0.543609
C2    C     C_3   0.258401 0.200665 0.654823 0.366824
H4    H     H_    0.207013 0.286888 0.660616 0.105902
H5    H     H_    0.377416 0.190634 0.635441 0.134207
C3    C     C_3   0.294454 0.160298 0.705599 -0.821257
H6    H     H_    0.397326 0.197553 0.725005 0.279393
H7    H     H_    0.184545 0.181629 0.729174 0.230334
C4    C     C_3   0.214301 0.222503 0.416663 0.369654
H8    H     H_    0.341480 0.239810 0.423928 0.095191
H9    H     H_    0.139264 0.249647 0.450397 0.131191
C5    C     C_3   0.217234 0.102737 0.404373 -0.902274
H10   H     H_    0.280624 0.074938 0.368678 0.265909
H11   H     H_    0.283269 0.059859 0.434340 0.220955
H12   H     H_    0.089288 0.083816 0.400221 0.270761
Ba1   Ba    Ba6+2 0.859560 0.448380 0.523550 1.567301
C6    C     C_3   0.984116 0.775949 0.580485 0.335236
H13   H     H_    0.855150 0.763762 0.572493 0.103369
H14   H     H_    0.059795 0.743656 0.547445 0.142705
C7    C     C_3   0.993469 0.894513 0.590885 -0.762060
H15   H     H_    0.124175 0.907773 0.595261 0.236194
H16   H     H_    0.930351 0.927643 0.626073 0.293803
H17   H     H_    0.933749 0.936266 0.559700 0.242669
C8    C     C_3   0.714508 0.296753 0.373603 0.419782
H18   H     H_    0.822801 0.326148 0.393421 0.113556
H19   H     H_    0.611868 0.363601 0.371937 0.098865
C9    C     C_3   0.762866 0.248962 0.320732 -0.943185
H20   H     H_    0.859209 0.178219 0.322308 0.279772
H21   H     H_    0.812906 0.307594 0.300837 0.224623
H22   H     H_    0.653514 0.223896 0.299284 0.260465
P4    P     P_3+3 0.116900 0.410080 0.389630 0.478983
O12   O     O_2   0.282660 0.442310 0.382060 -0.362965
O13   O     O_3   0.050670 0.442340 0.442260 -0.404845
O14   O     O_3   0.504750 0.639360 0.411530 -0.380024
O15   O     O_3   0.148186 0.271222 0.375090 -0.550078
P5    P     P_3+3 0.050625 0.833117 0.433072 0.428155
O16   O     O_3   0.618400 0.630290 0.524520 -0.387336
O17   O     O_3   0.090070 0.694820 0.435810 -0.396572
O18   O     O_2   0.186361 0.883199 0.465115 -0.394977
O19   O     O_3   0.082434 0.860521 0.372444 -0.529260
Ba2   Ba    Ba6+2 0.330270 0.551530 0.476440 1.548918
P6    P     P_3+3 0.673007 0.391370 0.653533 0.467114
C10   C     C_3   0.763048 0.196770 0.677497 0.868869
H23   H     H_    0.727669 0.189400 0.756821 0.287097
O20   O     O_3   0.571310 0.369620 0.475470 -0.394546
C11   C     C_3   0.482472 0.727709 0.628575 0.408348
H24   H     H_    0.370106 0.699481 0.610457 0.102574
H25   H     H_    0.583647 0.659706 0.629456 0.085937
C12   C     C_3   0.441020 0.775848 0.681866 -0.887161
H26   H     H_    0.346038 0.847559 0.681198 0.271461
H27   H     H_    0.391540 0.717329 0.702119 0.211744
H28   H     H_    0.553327 0.799288 0.702178 0.275651
P7    P     P_3+3 0.533852 0.765204 0.539177 0.438073
O21   O     O_2   0.348200 0.764910 0.523260 -0.385423
O22   O     O_3   0.534921 0.806052 0.603590 -0.537499
H29   H     H_    0.330276 0.072186 0.700833 0.273639
C13   C     C_3   0.027848 0.780319 0.338059 0.405973
H30   H     H_    0.095620 0.700787 0.343888 0.152178
H31   H     H_    0.894062 0.779188 0.341411 0.044961
C14   C     C_3   0.059897 0.801802 0.285343 -0.864944
H32   H     H_    0.192060 0.808870 0.281875 0.279744
H33   H     H_    0.028962 0.734794 0.258049 0.243668
H34   H     H_    0.983237 0.877073 0.276660 0.249908
P8    P     P_3+3 0.514372 0.616094 0.346130 0.466854
C15   C     C_3   0.534591 0.817576 0.360155 0.458437
H35   H     H_    0.649113 0.792099 0.381649 0.032208
O23   O     O_2   0.351962 0.576256 0.326570 -0.407456
O24   O     O_3   0.503718 0.738001 0.321519 -0.508558
H36   H     H_    0.428838 0.836682 0.385740 0.148016
H37   H     H_    0.664689 0.901830 0.312883 0.272356
C16   C     C_3   0.556571 0.917899 0.337448 -0.985516
H38   H     H_    0.576434 0.982687 0.367641 0.233992
H39   H     H_    0.445210 0.944142 0.314646 0.273424
C17   C     C_R   0.040476 0.418073 0.178511 0.530219
O25   O     O_2   0.089858 0.339978 0.200087 -0.591341
N1    N     N_R   0.940623 0.504331 0.203243 -0.162771
C18   C     C_R   0.880958 0.591308 0.177863 0.505919
C19   C     C_2   0.737547 0.525212 0.269731 -0.151736
C20   C     C_3   0.694687 0.518636 0.323544 0.156428
C21   C     C_1   0.986104 0.478804 0.342819 0.297409
C22   C     C_2   0.027544 0.476111 0.295246 -0.218914
C23   C     C_2   0.897238 0.503030 0.255476 0.104738
C24   C     C_R   0.023010 0.506088 0.102012 -0.063800
C25   C     C_R   0.083758 0.418368 0.128048 -0.058972
C26   C     C_R   0.185669 0.332020 0.102981 -0.087954
C27   C     C_R   0.920628 0.592921 0.127245 -0.050491
C28   C     C_2   0.842430 0.528969 0.358155 -0.484264
H40   H     H_    0.155200 0.453962 0.284848 0.194310
H41   H     H_    0.234250 0.263099 0.121798 0.167620
C29   C     C_2   0.357938 0.487248 0.640605 -0.444505
C30   C     C_R   0.211417 0.420174 0.974890 0.040997
C31   C     C_R   0.038763 0.595609 0.973417 0.042295
C32   C     C_R   0.145214 0.508227 0.948793 0.084251
C33   C     C_R   0.318581 0.336153 0.948696 -0.201320
C34   C     C_R   0.357586 0.337935 0.898952 -0.085876
C35   C     C_R   0.292270 0.423525 0.872635 -0.056907
C36   C     C_R   0.185937 0.508916 0.897462 -0.064041
C37   C     C_R   0.120454 0.595042 0.870942 -0.059452
C38   C     C_R   0.162195 0.594948 0.820341 0.521543
N2    N     N_R   0.266385 0.510326 0.796143 -0.164461
C39   C     C_R   0.331223 0.425093 0.821933 0.523128
C40   C     C_2   0.465504 0.498834 0.729162 -0.155996
C41   C     C_3   0.506770 0.500816 0.674477 0.159611
C42   C     C_1   0.210718 0.527151 0.656897 0.285809
C43   C     C_2   0.172056 0.526008 0.704186 -0.210649
C44   C     C_2   0.306309 0.510828 0.743656 0.125294
O26   O     O_2   0.421866 0.349864 0.800656 -0.603493
C45   C     C_R   0.169027 0.418880 0.025919 0.042202
C46   C     C_R   0.064171 0.506855 0.050720 0.083760
C47   C     C_R   0.999788 0.595549 0.024819 0.041753
C48   C     C_R   0.227457 0.332112 0.053340 -0.203040
H42   H     H_    0.565554 0.491657 0.756906 0.152792
H43   H     H_    0.440225 0.271127 0.881059 0.166823
H44   H     H_    0.376159 0.267154 0.965523 0.125973
H45   H     H_    0.305556 0.261708 0.037549 0.126053
O27   O     O_2   0.794007 0.668074 0.199408 -0.591024
C49   C     C_R   0.860021 0.680182 0.101442 -0.082920
H46   H     H_    0.638634 0.540117 0.242193 0.166733
H47   H     H_    0.781614 0.748576 0.119786 0.168625
C50   C     C_R   0.974483 0.680296 0.945361 -0.203838
C51   C     C_R   0.014567 0.679879 0.895550 -0.086278
O28   O     O_2   0.107144 0.671091 0.798065 -0.584634
C52   C     C_R   0.898290 0.681651 0.051633 -0.203808
H48   H     H_    0.891213 0.748788 0.960556 0.126496
H49   H     H_    0.961356 0.747143 0.876220 0.169457
H50   H     H_    0.043999 0.537717 0.714639 0.184538
H51   H     H_    0.846227 0.752662 0.035445 0.126272
H52   H     H_    0.832299 0.578813 0.393947 0.167621
H53   H     H_    0.372523 0.446682 0.602786 0.172488
C53   C     C_R   0.759229 0.820825 0.478354 -0.541424
C54   C     C_R   0.430757 0.188144 0.518719 -0.473612
C55   C     C_R   0.404524 0.009113 0.533244 -0.094090
C56   C     C_R   0.341480 0.116792 0.536320 0.180845
C57   C     C_R   0.575754 0.151941 0.493072 0.329878
C58   C     C_R   0.638244 0.040721 0.486648 -0.045680
C59   C     C_R   0.552258 0.969078 0.508288 -0.018207
C60   C     C_R   0.616189 0.859309 0.504319 0.272406
C61   C     C_R   0.846889 0.889580 0.458065 0.223436
C62   C     C_R   0.785202 0.998669 0.460809 -0.201451
H54   H     H_    0.335200 0.958077 0.550079 0.168173
H55   H     H_    0.855134 0.048978 0.443683 0.180739
H56   H     H_    0.808094 0.736818 0.476517 0.170873
H57   H     H_    0.382081 0.272323 0.522610 0.160826
N3    N     N_R   0.710576 0.094673 0.657801 0.205418
O29   O     O_R   0.688268 0.024264 0.687100 -0.410668
O30   O     O_R   0.673194 0.077301 0.610382 -0.445716

loop_
_geom_bond_atom_site_label_1
_geom_bond_atom_site_label_2
_geom_bond_distance
_ccdc_geom_bond_type
C16   H38   1.110267 S    
C29   C41   1.508570 S    
C62   H55   1.076484 S    
C13   H31   1.107774 S    
C13   H30   1.106993 S    
C2    H4    1.112007 S    
C14   H34   1.110583 S    
C50   H48   1.075567 S    
C54   H57   1.082134 S    
C28   H52   1.086374 S    
C37   C38   1.419084 A    
N1    C23   1.468420 S    
O12   Ba2   2.783775 S    
P4    O13   1.526880 S    
C31   C32   1.423068 A    
C4    C5    1.518985 S    
C29   H53   1.086974 S    
N2    C44   1.465547 S    
O4    P6    1.551360 D    
C30   C45   1.434604 A    
C5    H10   1.107243 S    
C54   C56   1.386915 A    
C14   H33   1.107996 S    
Ba1   O20   2.896007 S    
O11   C2    1.406721 S    
H1    C10   1.108415 S    
C35   C39   1.418757 A    
C19   C23   1.361041 D    
P5    C61   1.841192 S    
C38   N2    1.386607 Am   
C22   C23   1.511369 S    
C6    C7    1.515865 S    
O13   Ba2   2.913967 S    
N2    C39   1.387580 Am   
O1    Ba1   2.783399 S    
P1    O1    1.506871 D    
C40   C44   1.361450 D    
C37   C51   1.400097 A    
C3    H29   1.111149 S    
P7    O22   1.748044 S    
C33   C34   1.394234 A    
P6    C41   1.853580 S    
C11   H25   1.109324 S    
C26   C48   1.394532 A    
C40   C41   1.529183 S    
C52   H51   1.075567 S    
C34   H43   1.083674 S    
C8    C9    1.523250 S    
C34   C35   1.400372 A    
P5    O17   1.754686 S    
C12   H27   1.108280 S    
P2    O10   1.748500 S    
P4    C21   1.837355 S    
C58   C62   1.420224 A    
Ba2   O21   2.876053 S    
C18   O27   1.222169 D    
C1    H2    1.110030 S    
O6    P6    1.754364 S    
P5    O18   1.543150 D    
C32   C36   1.437393 A    
C8    H19   1.109102 S    
O16   P7    1.760370 S    
P2    Ba1   3.409413 S    
C30   C32   1.423474 A    
O2    Ba1   2.913137 S    
C40   H42   1.085770 S    
Ba1   Ba2   4.540127 S    
O6    C10   1.405535 S    
P8    O23   1.543674 D    
C17   C25   1.419928 A    
C35   C36   1.408814 A    
C20   C28   1.506641 S    
C15   H35   1.108753 S    
C7    H17   1.105839 S    
C26   H41   1.083609 S    
C47   C52   1.416906 A    
P8    O24   1.751794 S    
P2    C57   1.836585 S    
O8    Ba1   2.763867 S    
C2    C3    1.520136 S    
C55   C56   1.387027 A    
C24   C46   1.437538 A    
O16   Ba2   2.895171 S    
H37   C16   1.109831 S    
P4    O15   1.748446 S    
C4    H8    1.102331 S    
P1    Ba1   3.362768 S    
P7    C60   1.830349 S    
P1    O5    1.747739 S    
P1    O2    1.526875 S    
O10   C8    1.393355 S    
N3    O30   1.299094 A    
C9    H20   1.111059 S    
C4    O15   1.395547 S    
C11   H24   1.110054 S    
P4    Ba2   3.363329 S    
C1    H3    1.110142 S    
C10   N3    1.461972 S    
C17   N1    1.387648 Am   
P4    O12   1.507174 D    
C53   C61   1.387094 A    
C38   O28   1.222215 D    
C58   C59   1.424873 A    
C12   H28   1.110629 S    
C21   C22   1.334709 D    
C54   C57   1.391978 A    
C6    H13   1.100061 S    
C61   C62   1.401716 A    
C19   C20   1.520919 S    
C15   C16   1.520564 S    
C14   H32   1.110349 S    
P8    C20   1.857844 S    
Ba2   O20   2.813645 S    
C9    H21   1.106016 S    
C43   C44   1.503575 S    
O3    Ba1   2.746061 S    
C45   C48   1.417330 A    
P3    O11   1.747344 S    
C8    H18   1.105249 S    
P2    O7    1.497350 D    
C49   C52   1.393616 A    
P3    O8    1.736178 S    
C46   C47   1.423421 A    
C13   C14   1.519150 S    
C3    H7    1.107360 S    
C21   C28   1.313036 D    
O2    Ba2   2.736361 S    
Ba1   O16   2.814219 S    
C15   O24   1.403110 S    
C42   C43   1.327886 D    
C36   C37   1.409252 A    
C51   H49   1.083634 S    
C7    H15   1.109082 S    
O19   C13   1.403292 S    
C11   C12   1.521832 S    
C29   C42   1.311684 D    
C3    H6    1.108739 S    
O14   Ba2   2.745462 S    
C43   H50   1.084015 S    
C5    H12   1.109370 S    
C55   C59   1.409420 A    
O7    Ba1   2.875734 S    
C50   C51   1.393996 A    
O14   P8    1.752256 S    
C18   C27   1.418281 A    
C31   C50   1.417305 A    
C53   H56   1.082302 S    
C4    H9    1.110536 S    
C19   H46   1.085572 S    
O5    C6    1.396097 S    
C30   C33   1.417179 A    
C1    H23   1.111218 S    
N3    O29   1.302542 A    
C5    H11   1.106161 S    
C39   O26   1.221732 D    
C27   C49   1.400374 A    
P3    C56   1.827433 S    
C24   C25   1.408934 A    
P2    O20   1.586458 S    
C17   O25   1.222016 D    
C53   C60   1.387539 A    
C7    H16   1.106692 S    
N1    C18   1.389251 Am   
C6    H14   1.109047 S    
C11   O22   1.397702 S    
C33   H44   1.075616 S    
P7    O21   1.563981 D    
C9    H22   1.110646 S    
C48   H45   1.075618 S    
Ba1   O13   2.735762 S    
C22   H40   1.083605 S    
C24   C27   1.408231 A    
C59   C60   1.412510 A    
C12   H26   1.111051 S    
P3    O9    1.545650 D    
O3    P6    1.751297 S    
C49   H47   1.083649 S    
C16   H39   1.110070 S    
C57   C58   1.426558 A    
C25   C26   1.400496 A    
C55   H54   1.075992 S    
C31   C47   1.434123 A    
C1    C10   1.531774 S    
P1    C42   1.826589 S    
C15   H36   1.111935 S    
P5    O19   1.748844 S    
C45   C46   1.423070 A    
C2    H5    1.111084 S    
O17   Ba2   2.764412 S    
