data_mof_unit_43273.cif
_audit_creation_date              2013-03-05T15:53:42-0500
_audit_creation_method            fapswitch 2.2
_symmetry_space_group_name_H-M    P1
_symmetry_Int_Tables_number       1
_space_group_crystal_system       triclinic
_cell_length_a                    12.978697
_cell_length_b                    13.252144
_cell_length_c                    27.847845
_cell_angle_alpha                 94.725039
_cell_angle_beta                  90.525726
_cell_angle_gamma                 119.255428
_cell_volume                      4157.84001376

loop_
_atom_site_label
_atom_site_type_symbol
_atom_site_description
_atom_site_fract_x
_atom_site_fract_y
_atom_site_fract_z
_atom_type_partial_charge
O1    O     O_R   0.296680 0.802170 0.437540 -0.480310
O2    O     O_R   0.525380 0.838530 0.443500 -0.507103
C1    C     C_R   0.626209 0.896330 0.427011 0.539140
O3    O     O_R   0.702130 0.995190 0.446810 -0.515453
O4    O     O_R   0.661770 0.181390 0.458760 -0.487868
C2    C     C_R   0.600158 0.221088 0.440352 0.547494
O5    O     O_R   0.499820 0.198480 0.455280 -0.508765
O6    O     O_R   0.311660 0.976250 0.449080 -0.506629
C3    C     C_R   0.268307 0.874842 0.425490 0.549798
O7    O     O_R   0.297580 0.804960 0.544440 -0.476496
O8    O     O_R   0.526220 0.841130 0.542590 -0.504145
C4    C     C_R   0.627519 0.898918 0.564916 0.554253
O9    O     O_R   0.703030 0.997990 0.553710 -0.445883
O10   O     O_R   0.662610 0.183990 0.557860 -0.444999
C5    C     C_R   0.602841 0.225379 0.578931 0.554469
O11   O     O_R   0.500730 0.201280 0.562180 -0.524843
O12   O     O_R   0.312500 0.978850 0.548170 -0.504234
C6    C     C_R   0.272878 0.879771 0.563704 0.552337
Cr1   Cr    Cr6+3 0.416430 0.829200 0.492370 1.074917
Cr2   Cr    Cr6+3 0.674630 0.087020 0.504170 1.113068
Cr3   Cr    Cr6+3 0.408920 0.083740 0.503490 1.037663
O13   O     O_3   0.499990 0.999990 0.500010 -0.272626
C7    C     C_1   0.630696 0.267843 0.394663 0.012346
C8    C     C_R   0.747882 0.306921 0.278611 -0.063553
C9    C     C_R   0.764242 0.330350 0.230089 0.193007
C10   C     C_R   0.603368 0.379021 0.233318 0.184654
C11   C     C_R   0.592217 0.356762 0.282073 -0.103771
C12   C     C_R   0.664092 0.321659 0.304579 -0.051545
C13   C     C_R   0.688649 0.363049 0.206645 -0.009193
C14   C     C_1   0.697522 0.379080 0.155721 0.079235
C15   C     C_1   0.648440 0.295981 0.354161 -0.028070
C16   C     C_1   0.705928 0.400593 0.114191 0.074150
H1    H     H_    0.526894 0.366627 0.302836 0.169954
C17   C     C_R   0.173824 0.738929 0.349826 0.152158
C18   C     C_R   0.153728 0.729730 0.299618 -0.012900
C19   C     C_R   0.148726 0.728523 0.198993 -0.037674
C20   C     C_R   0.139330 0.632864 0.219833 -0.114396
C21   C     C_R   0.134455 0.629249 0.269424 0.200779
C22   C     C_R   0.140273 0.724385 0.149335 -0.114560
H2    H     H_    0.132136 0.648175 0.128011 0.154582
H3    H     H_    0.127876 0.556932 0.197270 0.188396
C23   C     C_R   0.123329 0.807171 0.127590 0.000075
C24   C     C_R   0.198277 0.935394 0.356571 -0.164304
C25   C     C_R   0.178611 0.926943 0.306735 0.007451
C26   C     C_R   0.162005 0.826601 0.278122 0.001967
C27   C     C_R   0.182809 0.020519 0.284790 -0.117995
C28   C     C_R   0.169935 0.014695 0.234549 -0.124919
C29   C     C_R   0.156097 0.916728 0.205776 0.023104
C30   C     C_R   0.155836 0.824153 0.227664 0.057403
C31   C     C_R   0.136648 0.906397 0.155502 -0.130805
C32   C     C_R   0.204455 0.846447 0.377986 -0.015341
H4    H     H_    0.171740 0.087067 0.218319 0.139342
H5    H     H_    0.219985 0.016217 0.377923 0.139116
C33   C     C_R   0.753250 0.926032 0.358865 -0.123324
C34   C     C_R   0.762883 0.918029 0.309350 0.009793
C35   C     C_R   0.779647 0.905433 0.209752 0.011818
C36   C     C_R   0.878337 0.984426 0.239827 -0.088237
C37   C     C_R   0.870421 0.989783 0.289566 -0.104951
C38   C     C_R   0.789785 0.894492 0.160601 -0.108364
H6    H     H_    0.875740 0.949049 0.146842 0.147003
H7    H     H_    0.829595 0.988070 0.382000 0.138904
H8    H     H_    0.961942 0.040621 0.224984 0.135305
H9    H     H_    0.947826 0.050532 0.312477 0.129667
C39   C     C_R   0.695224 0.807264 0.130269 0.000748
C40   C     C_R   0.543821 0.782434 0.348270 -0.125420
C41   C     C_R   0.552748 0.771098 0.298629 0.002651
C42   C     C_R   0.662193 0.840425 0.279028 0.061591
C43   C     C_R   0.453331 0.694836 0.268193 -0.097020
C44   C     C_R   0.463374 0.683955 0.218426 -0.069995
C45   C     C_R   0.572165 0.751946 0.198533 0.029140
C46   C     C_R   0.671043 0.832976 0.229102 0.058943
C47   C     C_R   0.585456 0.738121 0.149001 -0.102465
C48   C     C_R   0.643262 0.861895 0.378220 -0.000815
H10   H     H_    0.512384 0.671987 0.125543 0.138215
H11   H     H_    0.386430 0.622500 0.195525 0.146156
H12   H     H_    0.457794 0.735053 0.363077 0.157071
C49   C     C_R   0.736420 0.283049 0.654290 0.210243
C50   C     C_R   0.746930 0.304046 0.704802 0.016408
C51   C     C_R   0.760144 0.336753 0.806077 0.008812
C52   C     C_R   0.843095 0.316061 0.782169 -0.142203
C53   C     C_R   0.836108 0.298903 0.732019 -0.067998
C54   C     C_R   0.769165 0.358687 0.856246 -0.131667
H13   H     H_    0.842799 0.363133 0.876889 0.127961
H14   H     H_    0.913315 0.312995 0.802224 0.117876
H15   H     H_    0.900778 0.281114 0.714906 0.196950
C55   C     C_R   0.686974 0.382177 0.879407 -0.000265
C56   C     C_R   0.564823 0.312527 0.652725 -0.164578
C57   C     C_R   0.573550 0.331766 0.702555 0.000976
C58   C     C_R   0.663515 0.325696 0.728813 0.023719
C59   C     C_R   0.489790 0.351418 0.726586 -0.128590
C60   C     C_R   0.494633 0.364508 0.776646 -0.141407
C61   C     C_R   0.583708 0.358804 0.802972 0.010729
C62   C     C_R   0.668942 0.339952 0.779280 0.067407
C63   C     C_R   0.591531 0.376563 0.852717 -0.130020
C64   C     C_R   0.640644 0.281319 0.628409 -0.017982
H16   H     H_    0.527723 0.395505 0.870210 0.140675
H17   H     H_    0.429688 0.380471 0.794779 0.111595
H18   H     H_    0.419777 0.355217 0.706683 0.123442
H19   H     H_    0.492319 0.312990 0.633170 0.150070
C65   C     C_1   0.222167 0.861650 0.610065 0.037250
C66   C     C_R   0.127991 0.724677 0.720149 0.221330
C67   C     C_R   0.113588 0.719529 0.770176 -0.089589
C68   C     C_R   0.160342 0.920699 0.780593 -0.114353
C69   C     C_R   0.175281 0.927845 0.731108 -0.147220
C70   C     C_R   0.160327 0.831317 0.700585 0.019500
C71   C     C_R   0.131455 0.817200 0.800392 -0.004874
C72   C     C_1   0.115697 0.808676 0.851469 -0.049594
C73   C     C_1   0.190120 0.847734 0.650792 0.013427
C74   C     C_1   0.095188 0.794571 0.893373 -0.007441
H20   H     H_    0.088288 0.639025 0.785922 0.152672
H21   H     H_    0.172277 0.996175 0.803492 0.124763
H22   H     H_    0.201030 0.009861 0.716642 0.125226
C75   C     C_1   0.648074 0.864303 0.609874 0.033194
C76   C     C_R   0.759288 0.920180 0.731347 -0.096974
C77   C     C_R   0.769487 0.904361 0.779912 -0.105096
C78   C     C_R   0.623786 0.699991 0.763523 -0.095249
C79   C     C_R   0.613751 0.715704 0.714964 -0.095308
C80   C     C_R   0.681192 0.825756 0.698826 0.037319
C81   C     C_R   0.701116 0.794305 0.796094 0.039062
C82   C     C_1   0.711542 0.777866 0.846017 -0.054389
C83   C     C_1   0.664286 0.843959 0.649765 -0.024128
C84   C     C_1   0.724088 0.765706 0.887679 -0.009989
H23   H     H_    0.811055 0.006293 0.719469 0.139509
H24   H     H_    0.830023 0.978199 0.804632 0.113697
H25   H     H_    0.570676 0.614556 0.775628 0.118998
O14   O     O_R   0.820790 0.857990 0.068830 -0.517715
O15   O     O_R   0.016700 0.827330 0.062850 -0.501351
C85   C     C_R   0.065035 0.772536 0.079230 0.549550
O16   O     O_R   0.041970 0.673520 0.060040 -0.510927
O17   O     O_R   0.817980 0.483660 0.048840 -0.485989
C86   C     C_R   0.717456 0.441997 0.067452 0.549590
O18   O     O_R   0.637200 0.461990 0.052510 -0.486096
O19   O     O_R   0.664790 0.681920 0.057970 -0.482057
C87   C     C_R   0.722552 0.782709 0.081449 0.560825
O20   O     O_R   0.815840 0.852920 0.961840 -0.499607
O21   O     O_R   0.012100 0.822630 0.963670 -0.511504
C88   C     C_R   0.055440 0.765824 0.940931 0.538647
O22   O     O_R   0.037010 0.668460 0.953040 -0.505781
O23   O     O_R   0.813390 0.478970 0.949660 -0.503846
C89   C     C_R   0.710031 0.435046 0.928985 0.536759
O24   O     O_R   0.632250 0.456930 0.945520 -0.530756
O25   O     O_R   0.660200 0.677230 0.958780 -0.493529
C90   C     C_R   0.747623 0.755223 0.936930 0.558313
Cr4   Cr    Cr6+3 0.914010 0.832750 0.013970 1.033720
Cr5   Cr    Cr6+3 0.922310 0.578600 0.003000 1.040108
Cr6   Cr    Cr6+3 0.656280 0.574630 0.003870 1.047419
O26   O     O_3   0.830870 0.661990 0.006950 -0.274699
H26   H     H_    0.801711 0.278103 0.296672 0.198171
H27   H     H_    0.196553 0.098503 0.306270 0.131474
H28   H     H_    0.368307 0.643325 0.283057 0.172737
N1    N     N_R   0.858250 0.321728 0.205846 0.094098
O27   O     O_R   0.908826 0.268898 0.224593 -0.297455
O28   O     O_R   0.904008 0.377833 0.168618 -0.358110
N2    N     N_R   0.816780 0.253732 0.630373 0.079106
O29   O     O_R   0.920945 0.336496 0.621379 -0.260606
O30   O     O_R   0.800091 0.148822 0.631585 -0.352662
N3    N     N_R   0.111698 0.622291 0.690597 0.087573
O31   O     O_R   0.103031 0.533350 0.710959 -0.340552
O32   O     O_R   0.097269 0.613312 0.643587 -0.288273
N4    N     N_R   0.527652 0.417762 0.212302 0.080275
O33   O     O_R   0.553235 0.469609 0.172725 -0.345817
O34   O     O_R   0.437463 0.410746 0.235189 -0.331387
H29   H     H_    0.552207 0.642297 0.690374 0.124472
N5    N     N_R   0.185688 0.648628 0.370138 -0.166254
O35   O     O_R   0.116127 0.589226 0.402624 -0.000613
O36   O     O_R   0.115904 0.589027 0.402732 -0.000613
N6    N     N_R   0.104125 0.520647 0.287694 0.113428
O37   O     O_R   0.164148 0.468286 0.276389 -0.309437
O38   O     O_R   0.006326 0.466742 0.309436 -0.310285
H30   H     H_    0.124997 0.971382 0.138738 0.126874

loop_
_geom_bond_atom_site_label_1
_geom_bond_atom_site_label_2
_geom_bond_distance
_ccdc_geom_bond_type
C41   C43   1.403171 A    
C56   C57   1.383491 A    
N3    O31   1.305805 A    
O25   Cr6   1.908614 S    
C3    C32   1.473586 S    
C52   H14   1.083846 S    
C85   O16   1.262778 A    
C76   C77   1.400387 A    
C59   C60   1.387561 A    
C36   H8    1.082575 S    
N6    O38   1.298896 A    
O4    Cr2   1.910941 S    
C49   C50   1.403422 A    
C11   H1    1.084001 S    
C4    O9    1.263762 A    
O8    Cr1   1.928234 S    
C17   C32   1.435173 A    
C66   C67   1.410111 A    
C40   H12   1.084791 S    
C20   H3    1.085074 S    
C74   C88   1.438338 S    
N5    O35   1.300338 A    
C20   C21   1.386731 A    
Cr6   O26   1.974388 S    
C17   N5    1.437268 S    
C5    C64   1.467167 S    
O4    C2    1.275560 A    
C52   C53   1.391244 A    
C71   C72   1.444654 S    
O22   Cr5   2.036690 S    
C5    O11   1.275292 A    
C40   C48   1.406198 A    
C35   C36   1.401156 A    
C68   H21   1.082936 S    
C17   C18   1.404274 A    
C61   C62   1.406339 A    
C55   C63   1.405817 A    
C33   C34   1.385717 A    
C24   H5    1.084982 S    
O23   Cr5   1.939614 S    
C82   C84   1.204800 T    
O6    C3    1.289521 A    
C56   C64   1.400643 A    
N1    O27   1.302573 A    
C10   N4    1.450487 S    
C45   C46   1.416706 A    
N2    O30   1.301722 A    
C55   C89   1.454207 S    
C29   C31   1.403813 A    
C41   C42   1.407498 A    
C66   N3    1.447546 S    
C38   H6    1.085908 S    
N3    O32   1.308079 A    
Cr3   O13   1.976064 S    
O17   Cr5   1.917608 S    
C66   C70   1.421777 A    
C72   C74   1.208519 T    
N1    O28   1.298835 A    
C6    C65   1.438701 S    
C84   C90   1.434870 S    
Cr4   O26   1.964698 S    
C69   C70   1.404177 A    
Cr5   O26   1.976361 S    
N6    O37   1.297825 A    
C25   C27   1.404880 A    
O6    Cr3   1.941696 S    
C22   C23   1.400530 A    
C56   H19   1.085758 S    
C19   C22   1.380644 A    
C50   C58   1.409533 A    
C9    C13   1.423698 A    
C21   N6    1.433766 S    
C70   C73   1.448075 S    
C39   C87   1.459022 S    
O1    Cr1   2.048772 S    
C65   C73   1.208909 T    
O10   Cr2   1.948043 S    
Cr1   O13   1.965041 S    
O1    C3    1.254313 A    
C89   O24   1.260112 A    
C47   H10   1.084507 S    
C8    H26   1.082993 S    
C60   C61   1.399548 A    
C69   H22   1.083915 S    
C43   C44   1.395431 A    
C54   C55   1.398202 A    
C49   C64   1.420604 A    
C79   H29   1.083527 S    
C80   C83   1.439953 S    
N4    O34   1.304651 A    
C28   H4    1.083650 S    
C24   C25   1.394161 A    
C13   C14   1.448532 S    
C49   N2    1.431261 S    
C45   C47   1.399870 A    
C33   C48   1.397997 A    
C28   C29   1.399247 A    
C26   C30   1.403499 A    
O7    Cr1   2.053930 S    
C81   C82   1.440074 S    
C35   C46   1.405523 A    
C18   C21   1.424368 A    
C61   C63   1.380239 A    
O12   C6    1.270148 A    
C10   C11   1.406843 A    
C31   H30   1.083831 S    
C8    C9    1.406150 A    
C63   H16   1.084699 S    
N2    O29   1.302138 A    
C76   C80   1.403605 A    
O24   Cr6   2.065964 S    
C23   C31   1.403608 A    
C76   H23   1.086270 S    
C29   C30   1.412717 A    
Cr2   O13   1.974627 S    
C40   C41   1.390227 A    
C77   C81   1.402960 A    
C78   H25   1.083974 S    
O19   C87   1.281397 A    
C67   H20   1.084250 S    
C44   H11   1.084011 S    
O15   C85   1.274132 A    
C18   C26   1.418054 A    
C22   H2    1.086090 S    
C25   C26   1.411294 A    
C4    C75   1.434278 S    
C37   H9    1.085162 S    
C27   C28   1.398829 A    
C19   C20   1.389289 A    
C77   H24   1.084597 S    
O9    Cr2   2.028548 S    
O2    Cr1   1.938822 S    
O10   C5    1.272048 A    
O16   Cr5   2.057542 S    
C12   C15   1.441699 S    
C8    C12   1.393749 A    
C57   C59   1.399564 A    
O21   C88   1.275149 A    
C86   O18   1.268174 A    
C51   C54   1.395310 A    
C34   C42   1.414755 A    
O23   C89   1.279553 A    
C35   C38   1.378774 A    
O11   Cr3   2.061088 S    
C51   C62   1.413434 A    
C2    O5    1.267899 A    
C33   H7    1.085174 S    
C23   C85   1.461800 S    
C88   O22   1.267771 A    
C78   C81   1.400925 A    
C9    N1    1.447811 S    
O18   Cr6   2.025395 S    
N4    O33   1.305958 A    
N5    O36   1.304612 A    
O17   C86   1.277161 A    
C60   H17   1.083845 S    
O21   Cr4   1.941509 S    
O5    Cr3   2.029374 S    
C79   C80   1.400940 A    
C14   C16   1.207042 T    
C50   C53   1.410051 A    
C24   C32   1.399571 A    
C36   C37   1.388418 A    
O7    C6    1.264775 A    
C2    C7    1.434902 S    
O14   Cr4   2.062745 S    
O20   C90   1.289065 A    
C78   C79   1.399495 A    
C67   C71   1.400288 A    
C68   C71   1.396985 A    
C42   C46   1.395480 A    
O15   Cr4   1.926324 S    
C39   C47   1.399218 A    
C58   C62   1.399018 A    
C44   C45   1.401963 A    
C1    C48   1.451013 S    
O12   Cr3   1.913018 S    
O20   Cr4   2.040867 S    
C43   H28   1.083387 S    
C51   C52   1.396121 A    
O3    Cr2   2.067516 S    
C38   C39   1.410476 A    
C27   H27   1.083353 S    
C75   C83   1.204788 T    
C57   C58   1.410796 A    
O14   C87   1.251851 A    
C10   C13   1.428209 A    
C54   H13   1.084694 S    
C34   C37   1.399633 A    
C68   C69   1.397857 A    
O25   C90   1.302295 A    
O2    C1    1.264644 A    
O19   Cr6   1.947841 S    
C59   H18   1.084218 S    
C16   C86   1.434755 S    
C53   H15   1.081375 S    
C19   C30   1.403459 A    
C1    O3    1.265135 A    
O8    C4    1.274364 A    
C7    C15   1.205962 T    
C11   C12   1.393151 A    
