data_mof_unit_40362.cif
_audit_creation_date              2012-12-10T19:07:35-0500
_audit_creation_method            fapswitch 2.2
_symmetry_space_group_name_H-M    P1
_symmetry_Int_Tables_number       1
_space_group_crystal_system       triclinic
_cell_length_a                    10.838073
_cell_length_b                    10.849352
_cell_length_c                    9.547371
_cell_angle_alpha                 90.383711
_cell_angle_beta                  89.671285
_cell_angle_gamma                 90.558701
_cell_volume                      1122.54121946

loop_
_atom_site_label
_atom_site_type_symbol
_atom_type_description
_atom_site_fract_x
_atom_site_fract_y
_atom_site_fract_z
_atom_type_partial_charge
C1    C     C_R   0.497358 0.262361 0.499652 0.800583
C2    C     C_R   0.935474 0.505598 0.625533 0.119105
C3    C     C_3   0.927800 0.412368 0.739810 -0.464493
C4    C     C_3   0.067650 0.414684 0.741687 -0.483940
C5    C     C_R   0.476732 0.064731 0.624796 0.131798
C6    C     C_R   0.484587 0.129321 0.498966 -0.131639
C7    C     C_R   0.474595 0.063464 0.372072 -0.214531
C8    C     C_R   0.474790 0.934835 0.372368 -0.215691
C9    C     C_R   0.485219 0.870940 0.499522 -0.097569
C10   C     C_R   0.477670 0.937583 0.624727 0.084307
C11   C     C_3   0.556900 0.932877 0.751759 -0.482185
C12   C     C_R   0.262341 0.501246 0.500325 0.799093
C13   C     C_3   0.556303 0.072890 0.752421 -0.028237
C14   C     C_R   0.604655 0.529714 0.073273 0.262463
C15   C     C_R   0.400446 0.458917 0.074609 -0.083650
C16   C     C_R   0.400290 0.459519 0.926003 -0.107361
C17   C     C_R   0.605133 0.528233 0.925816 0.258495
C18   C     C_3   0.675751 0.646301 0.919550 -0.513778
C19   C     C_3   0.673318 0.649380 0.078251 -0.502949
C20   C     C_R   0.497750 0.737785 0.500174 0.804312
C21   C     C_R   0.737674 0.500708 0.499688 0.798437
C22   C     C_R   0.062691 0.506799 0.626254 0.134586
C23   C     C_R   0.129248 0.510942 0.500663 -0.094761
C24   C     C_R   0.065436 0.528789 0.374747 -0.219368
C25   C     C_R   0.936934 0.527507 0.374222 -0.219548
C26   C     C_R   0.870981 0.509439 0.499586 -0.096665
Cu1   Cu    Cu3+1 0.499990 0.499980 0.640670 0.936923
Cu2   Cu    Cu3+1 0.500010 0.500020 0.359330 0.937844
H1    H     H_    0.114162 0.538167 0.275959 0.159880
H2    H     H_    0.649650 0.894416 0.728861 0.171923
H3    H     H_    0.648529 0.115098 0.731483 0.160537
H4    H     H_    0.319301 0.426379 0.129860 0.141289
H5    H     H_    0.319661 0.426663 0.871055 0.144341
H6    H     H_    0.769752 0.634765 0.874810 0.192896
H7    H     H_    0.621440 0.720095 0.871834 0.215888
H8    H     H_    0.766399 0.640841 0.124405 0.186915
H9    H     H_    0.617008 0.725724 0.122151 0.212314
H10   H     H_    0.890028 0.534952 0.275191 0.155056
H11   H     H_    0.886036 0.449997 0.837391 0.191620
H12   H     H_    0.888200 0.322719 0.703813 0.194075
H13   H     H_    0.105187 0.455429 0.839820 0.187985
H14   H     H_    0.109768 0.326060 0.708309 0.195901
H15   H     H_    0.473029 0.886266 0.272908 0.161855
H16   H     H_    0.506628 0.890698 0.841564 0.204373
N1    N     N_R   0.500790 0.500930 0.147930 -0.184441
N2    N     N_R   0.500790 0.500890 0.852020 -0.184965
O1    O     O_R   0.500000 0.319640 0.618810 -0.583193
O2    O     O_R   0.500010 0.319680 0.381230 -0.581655
O3    O     O_R   0.319650 0.499970 0.618810 -0.584292
O4    O     O_R   0.319660 0.500010 0.381230 -0.594061
O5    O     O_R   0.499990 0.680320 0.618770 -0.575910
O6    O     O_R   0.500000 0.680360 0.381190 -0.585535
O7    O     O_R   0.680340 0.499990 0.618770 -0.580772
O8    O     O_R   0.680350 0.500030 0.381190 -0.584333
C27   C     C_3   0.490059 0.127698 0.880057 -0.831427
H17   H     H_    0.542614 0.106707 0.976360 0.227617
H18   H     H_    0.485374 0.228959 0.869708 0.254340
H19   H     H_    0.394824 0.089840 0.891013 0.232929
H20   H     H_    0.472892 0.110661 0.272490 0.167271

loop_
_geom_bond_atom_site_label_1
_geom_bond_atom_site_label_2
_ccdc_geom_bond_type
C2    C22   A    
C12   O4    A    
C23   C24   A    
Cu1   O7    S    
C1    O2    A    
C6    C7    A    
C25   H10   S    
C20   O5    A    
C4    C22   S    
C18   H7    S    
C9    C20   S    
C5    C13   S    
Cu1   O1    S    
C14   C17   A    
C8    H15   S    
C27   H17   S    
C10   C11   S    
C27   H18   S    
C12   O3    A    
C3    H11   S    
C11   H16   S    
C2    C26   A    
C24   C25   A    
C21   O7    A    
Cu2   O6    S    
C12   C23   S    
C21   O8    A    
C4    H14   S    
Cu1   N2    S    
C7    H20   S    
C21   C26   S    
Cu1   O5    S    
C3    H12   S    
C17   C18   S    
C14   N1    A    
C2    C3    S    
C19   H8    S    
C18   H6    S    
C5    C6    A    
C16   H5    S    
Cu2   N1    S    
C7    C8    A    
C4    H13   S    
C15   N1    A    
C5    C10   A    
C1    C6    S    
Cu1   O3    S    
C11   C13   S    
C17   N2    A    
C20   O6    A    
C18   C19   S    
C9    C10   A    
C27   H19   S    
C16   N2    A    
Cu1   Cu2   S    
Cu2   O8    S    
C24   H1    S    
C1    O1    A    
C19   H9    S    
C25   C26   A    
C22   C23   A    
Cu2   O4    S    
C14   C19   S    
C13   H3    S    
Cu2   O2    S    
C3    C4    S    
C15   C16   A    
C11   H2    S    
C8    C9    A    
C13   C27   S    
C15   H4    S    
