data_mof_unit_64512.cif
_audit_creation_date              2012-12-10T21:03:02-0500
_audit_creation_method            fapswitch 2.2
_symmetry_space_group_name_H-M    P1
_symmetry_Int_Tables_number       1
_space_group_crystal_system       triclinic
_cell_length_a                    15.891149
_cell_length_b                    15.061311
_cell_length_c                    19.266014
_cell_angle_alpha                 90.000697
_cell_angle_beta                  89.988284
_cell_angle_gamma                 90.000907
_cell_volume                      4611.15730985

loop_
_atom_site_label
_atom_site_type_symbol
_atom_type_description
_atom_site_fract_x
_atom_site_fract_y
_atom_site_fract_z
_atom_type_partial_charge
C1    C     C_R   0.339006 0.499999 0.500026 0.912322
C2    C     C_R   0.436213 0.046891 0.465983 -0.149974
C3    C     C_R   0.500000 0.905044 0.500000 0.072458
C4    C     C_R   0.500000 0.094956 0.500000 0.072459
C5    C     C_1   0.500000 0.807191 0.500000 0.057919
C6    C     C_1   0.500000 0.192809 0.500000 0.057919
C7    C     C_R   0.499979 0.499999 0.365196 0.882587
C8    C     C_R   0.500020 0.500000 0.634804 0.882587
C9    C     C_R   0.500018 0.580602 0.253559 -0.221527
C10   C     C_R   0.500038 0.419397 0.746440 -0.221531
C11   C     C_R   0.500080 0.580608 0.746440 -0.221502
C12   C     C_R   0.660994 0.500001 0.499974 0.912322
C13   C     C_R   0.499846 0.419392 0.253560 -0.221497
C14   C     C_R   0.500016 0.581203 0.181498 0.004090
C15   C     C_R   0.500035 0.418795 0.818501 0.004091
C16   C     C_R   0.500098 0.581213 0.818501 0.004169
C17   C     C_R   0.499820 0.418787 0.181499 0.004171
C18   C     C_R   0.499919 0.499994 0.145074 -0.005208
C19   C     C_R   0.500062 0.500004 0.854926 -0.005219
C20   C     C_R   0.499948 0.499998 0.289711 -0.069913
C21   C     C_R   0.500046 0.500002 0.710288 -0.069909
C22   C     C_R   0.500030 0.500006 0.930312 0.283926
C23   C     C_1   0.823622 0.500002 0.499986 -0.022377
C24   C     C_R   0.499950 0.499991 0.069691 0.283928
C25   C     C_R   0.956026 0.581484 0.499877 -0.053319
C26   C     C_R   0.043974 0.418516 0.500123 -0.053319
C27   C     C_R   0.043978 0.581483 0.499877 -0.053323
C28   C     C_R   0.956022 0.418517 0.500122 -0.053322
C29   C     C_R   0.912847 0.500001 0.499997 0.031193
C30   C     C_R   0.087153 0.499999 0.500003 0.031193
C31   C     C_1   0.502763 0.665920 0.146254 0.189209
C32   C     C_1   0.497352 0.334074 0.853743 0.189223
C33   C     C_1   0.502788 0.665934 0.853742 0.189116
C34   C     C_1   0.176378 0.499998 0.500014 -0.022377
C35   C     C_1   0.497057 0.334068 0.146257 0.189100
C36   C     C_1   0.089952 0.664848 0.499744 0.198408
C37   C     C_1   0.910048 0.335152 0.500255 0.198408
C38   C     C_1   0.910057 0.664850 0.499759 0.198235
C39   C     C_1   0.089943 0.335150 0.500241 0.198235
C40   C     C_1   0.250964 0.499998 0.500022 -0.162694
C41   C     C_1   0.749035 0.500002 0.499977 -0.162694
C42   C     C_R   0.436213 0.953106 0.465983 -0.149874
C43   C     C_R   0.563786 0.046894 0.534017 -0.149874
C44   C     C_R   0.563786 0.953109 0.534017 -0.149974
H1    H     H_    0.500488 0.643206 0.281377 0.168475
H2    H     H_    0.499622 0.356792 0.718621 0.168473
H3    H     H_    0.500491 0.643211 0.718621 0.168454
H4    H     H_    0.499385 0.356789 0.281379 0.168454
H5    H     H_    0.386232 0.081923 0.439328 0.144271
H6    H     H_    0.613768 0.918077 0.560672 0.144272
H7    H     H_    0.613768 0.081929 0.560672 0.144346
H8    H     H_    0.386232 0.918071 0.439328 0.144348
N1    N     N_R   0.558852 0.453247 0.034427 -0.149634
N2    N     N_1   0.494820 0.266258 0.118063 -0.164198
N3    N     N_1   0.126625 0.731238 0.499637 -0.183596
N4    N     N_1   0.873375 0.268762 0.500362 -0.183596
N5    N     N_1   0.873388 0.731241 0.499666 -0.183722
N6    N     N_1   0.126612 0.268759 0.500334 -0.183722
N7    N     N_R   0.441127 0.546749 0.965576 -0.149638
N8    N     N_R   0.558891 0.453255 0.965595 -0.149989
N9    N     N_R   0.441088 0.546744 0.034408 -0.149985
N10   N     N_1   0.500000 0.270550 0.500000 -0.086484
N11   N     N_1   0.500000 0.729450 0.500000 -0.086484
N12   N     N_1   0.504988 0.733730 0.118058 -0.164117
N13   N     N_1   0.495180 0.266262 0.881938 -0.164111
N14   N     N_1   0.504964 0.733747 0.881937 -0.164189
O1    O     O_R   0.378020 0.573650 0.500020 -0.605825
O2    O     O_R   0.621980 0.426350 0.499980 -0.605825
O3    O     O_R   0.621980 0.573650 0.499980 -0.606025
O4    O     O_R   0.378020 0.426350 0.500020 -0.606025
O5    O     O_R   0.499990 0.573690 0.398140 -0.618538
O6    O     O_R   0.500010 0.426310 0.601860 -0.618540
O7    O     O_R   0.500010 0.573690 0.601860 -0.618545
O8    O     O_R   0.499990 0.426310 0.398140 -0.618544
Zn1   Zn    Zn3+2 0.500000 0.598370 0.500000 0.991199
Zn2   Zn    Zn3+2 0.500000 0.401630 0.500000 0.991199

loop_
_geom_bond_atom_site_label_1
_geom_bond_atom_site_label_2
_ccdc_geom_bond_type
C12   O3    A    
C3    C42   A    
C9    H1    S    
C24   N9    A    
C14   C18   A    
C11   H3    S    
C14   C31   S    
O6    Zn2   S    
C15   C32   S    
C15   C19   A    
C12   O2    A    
O8    Zn2   S    
C18   C24   S    
C23   C29   S    
C28   C29   A    
C10   C15   A    
C22   N8    A    
C25   C38   S    
C26   C39   S    
C5    N11   T    
C1    C40   S    
C37   N4    T    
C10   H2    S    
C7    O5    A    
C35   N2    T    
O7    Zn1   S    
N10   Zn2   S    
N1    N8    A    
C33   N14   T    
C17   C18   A    
C7    O8    A    
C10   C21   A    
C25   C29   A    
C3    C44   A    
N7    N9    A    
C8    O6    A    
C30   C34   S    
C19   C22   S    
C4    C6    S    
C22   N7    A    
C9    C14   A    
C24   N1    A    
C39   N6    T    
C11   C21   A    
C2    C4    A    
C43   C44   A    
C12   C41   S    
C2    H5    S    
C16   C33   S    
C38   N5    T    
C11   C16   A    
C9    C20   A    
C8    C21   S    
C26   C30   A    
O4    Zn2   S    
C34   C40   T    
O2    Zn2   S    
C44   H6    S    
C13   C20   A    
C31   N12   T    
C3    C5    S    
C13   H4    S    
C4    C43   A    
C27   C36   S    
C25   C27   A    
C26   C28   A    
C1    O4    A    
C23   C41   T    
C13   C17   A    
C6    N10   T    
C36   N3    T    
O5    Zn1   S    
C43   H7    S    
N11   Zn1   S    
C28   C37   S    
C2    C42   A    
C16   C19   A    
C8    O7    A    
C1    O1    A    
O3    Zn1   S    
O1    Zn1   S    
C7    C20   S    
C17   C35   S    
C42   H8    S    
C32   N13   T    
C27   C30   A    
