data_mof_unit_20015.cif
_audit_creation_date              2012-12-10T17:19:23-0500
_audit_creation_method            fapswitch 2.2
_symmetry_space_group_name_H-M    P1
_symmetry_Int_Tables_number       1
_space_group_crystal_system       triclinic
_cell_length_a                    18.285376
_cell_length_b                    18.28539
_cell_length_c                    34.500616
_cell_angle_alpha                 90.000024
_cell_angle_beta                  89.999952
_cell_angle_gamma                 90.013183
_cell_volume                      11535.4611427

loop_
_atom_site_label
_atom_site_type_symbol
_atom_type_description
_atom_site_fract_x
_atom_site_fract_y
_atom_site_fract_z
_atom_type_partial_charge
C1    C     C_R   0.510945 0.133431 0.520342 0.395259
C2    C     C_R   0.011702 0.633358 0.979657 0.395224
C3    C     C_R   0.433163 0.994091 0.959243 -0.034665
C4    C     C_R   0.007572 0.566691 0.040753 -0.034439
C5    C     C_R   0.992321 0.433321 0.959244 -0.034512
C6    C     C_R   0.433309 0.992430 0.040753 -0.034438
C7    C     C_R   0.566679 0.007676 0.959244 -0.034510
C8    C     C_R   0.999999 0.500047 0.644088 0.799248
C9    C     C_R   0.000001 0.499958 0.355912 0.799264
C10   C     C_R   0.499953 0.000001 0.644088 0.799246
C11   C     C_R   0.500042 0.999999 0.355912 0.799262
C12   C     C_R   0.500001 0.999958 0.144088 0.799240
C13   C     C_R   0.633350 0.011785 0.020338 0.395154
C14   C     C_R   0.499999 0.000047 0.855911 0.799225
C15   C     C_R   0.000042 0.499999 0.144088 0.799239
C16   C     C_R   0.999953 0.500001 0.855911 0.799224
C17   C     C_R   0.860181 0.639820 0.750000 0.782633
C18   C     C_R   0.139808 0.360192 0.250000 0.786713
C19   C     C_R   0.360191 0.860199 0.749995 0.787331
C20   C     C_R   0.639817 0.139817 0.250001 0.783583
C21   C     C_R   0.139821 0.360179 0.750000 0.784938
C22   C     C_R   0.860191 0.639809 0.250000 0.788241
C23   C     C_R   0.639801 0.139809 0.750005 0.787320
C24   C     C_R   0.366641 0.988302 0.979657 0.395226
C25   C     C_R   0.360183 0.860183 0.249999 0.783568
C26   C     C_R   0.860183 0.360183 0.250001 0.783584
C27   C     C_R   0.139801 0.639809 0.749995 0.787332
C28   C     C_R   0.360191 0.139809 0.250000 0.788240
C29   C     C_R   0.639821 0.860179 0.750000 0.784938
C30   C     C_R   0.139817 0.639817 0.249999 0.783567
C31   C     C_R   0.860191 0.360199 0.750005 0.787320
C32   C     C_R   0.639808 0.860192 0.250000 0.786714
C33   C     C_R   0.360180 0.139819 0.750000 0.782634
C34   C     C_R   0.265945 0.626244 0.798802 -0.141230
C35   C     C_R   0.015556 0.632978 0.020332 0.398407
C36   C     C_R   0.714161 0.393503 0.224959 -0.139081
C37   C     C_R   0.393489 0.285837 0.775093 -0.141847
C38   C     C_R   0.626172 0.733966 0.201242 -0.145518
C39   C     C_R   0.734133 0.373680 0.798886 -0.146665
C40   C     C_R   0.285810 0.606524 0.224901 -0.142584
C41   C     C_R   0.606511 0.714144 0.775081 -0.140064
C42   C     C_R   0.373837 0.266054 0.201254 -0.142689
C43   C     C_R   0.266034 0.373828 0.201242 -0.145516
C44   C     C_R   0.714163 0.606510 0.775093 -0.141845
C45   C     C_R   0.393476 0.714189 0.224901 -0.142586
C46   C     C_R   0.984313 0.367037 0.979665 0.398072
C47   C     C_R   0.626320 0.265867 0.798886 -0.146666
C48   C     C_R   0.733946 0.626163 0.201254 -0.142690
C49   C     C_R   0.285855 0.393488 0.775081 -0.140064
C50   C     C_R   0.606497 0.285839 0.224959 -0.139080
C51   C     C_R   0.373756 0.734055 0.798802 -0.141229
C52   C     C_R   0.785812 0.106522 0.275096 -0.142587
C53   C     C_R   0.234129 0.873683 0.701117 -0.146673
C54   C     C_R   0.873836 0.766053 0.298747 -0.142685
C55   C     C_R   0.106512 0.214145 0.724919 -0.140058
C56   C     C_R   0.214162 0.893503 0.275041 -0.139071
C57   C     C_R   0.367021 0.984448 0.020332 0.398408
C58   C     C_R   0.765944 0.126244 0.701198 -0.141229
C59   C     C_R   0.126172 0.233967 0.298758 -0.145543
C60   C     C_R   0.893489 0.785838 0.724907 -0.141875
C61   C     C_R   0.785855 0.893488 0.724919 -0.140059
C62   C     C_R   0.233946 0.126163 0.298747 -0.142685
C63   C     C_R   0.873756 0.234056 0.701198 -0.141228
C64   C     C_R   0.106497 0.785838 0.275041 -0.139071
C65   C     C_R   0.214162 0.106510 0.724907 -0.141873
C66   C     C_R   0.766033 0.873827 0.298758 -0.145540
C67   C     C_R   0.126316 0.765871 0.701117 -0.146672
C68   C     C_R   0.632963 0.015682 0.979665 0.398072
C69   C     C_R   0.893478 0.214188 0.275096 -0.142586
C70   C     C_R   0.326857 0.619387 0.822808 -0.148095
C71   C     C_R   0.643368 0.410322 0.213016 -0.141207
C72   C     C_R   0.410313 0.356620 0.787065 -0.142227
C73   C     C_R   0.619277 0.673027 0.177257 -0.153198
C74   C     C_R   0.673264 0.380493 0.822927 -0.154993
C75   C     C_R   0.356590 0.589719 0.212930 -0.143106
C76   C     C_R   0.589696 0.643361 0.787057 -0.141989
C77   C     C_R   0.380726 0.326989 0.177264 -0.149490
C78   C     C_R   0.326973 0.380723 0.177257 -0.153198
C79   C     C_R   0.312186 0.742411 0.774281 0.075242
C80   C     C_R   0.643380 0.589687 0.787065 -0.142227
C81   C     C_R   0.410281 0.643410 0.212930 -0.143106
C82   C     C_R   0.619507 0.326736 0.822927 -0.154993
C83   C     C_R   0.673011 0.619274 0.177264 -0.149489
C84   C     C_R   0.356639 0.410304 0.787057 -0.141990
C85   C     C_R   0.589678 0.356632 0.213016 -0.141206
C86   C     C_R   0.380613 0.673143 0.822808 -0.148095
C87   C     C_R   0.856592 0.089717 0.287067 -0.143103
C88   C     C_R   0.173258 0.880498 0.677078 -0.154949
C89   C     C_R   0.880724 0.826988 0.322738 -0.149493
C90   C     C_R   0.677833 0.267597 0.237900 0.072098
C91   C     C_R   0.089696 0.143362 0.712943 -0.141986
C92   C     C_R   0.143369 0.910322 0.286985 -0.141213
C93   C     C_R   0.826857 0.119388 0.677192 -0.148130
C94   C     C_R   0.119278 0.173028 0.322744 -0.153231
C95   C     C_R   0.910313 0.856620 0.712935 -0.142244
C96   C     C_R   0.856638 0.910304 0.712943 -0.141988
C97   C     C_R   0.173012 0.119275 0.322737 -0.149496
C98   C     C_R   0.880612 0.173143 0.677192 -0.148132
C99   C     C_R   0.089678 0.856631 0.286985 -0.141214
C100  C     C_R   0.143380 0.089687 0.712935 -0.142244
C101  C     C_R   0.267602 0.322159 0.762123 0.072064
C102  C     C_R   0.826972 0.880722 0.322744 -0.153225
C103  C     C_R   0.119502 0.826742 0.677078 -0.154945
C104  C     C_R   0.910283 0.143408 0.287067 -0.143102
C105  C     C_R   0.499677 0.000026 0.520363 -0.077671
C106  C     C_R   0.500240 0.999983 0.479639 -0.077696
C107  C     C_R   0.999974 0.500323 0.520363 -0.077634
C108  C     C_R   0.000017 0.499759 0.479639 -0.077657
C109  C     C_R   0.000238 0.499982 0.020361 -0.077752
C110  C     C_R   0.999675 0.500028 0.979637 -0.077726
C111  C     C_R   0.500018 0.999762 0.020361 -0.077755
C112  C     C_R   0.488975 0.866578 0.479662 0.395183
C113  C     C_R   0.742355 0.687769 0.225745 0.074838
C114  C     C_R   0.499972 0.000325 0.979637 -0.077728
C115  C     C_3   0.446425 0.230011 0.543205 -0.253422
C116  C     C_3   0.553521 0.770017 0.456798 -0.252771
C117  C     C_3   0.770028 0.553785 0.543204 -0.253418
C118  C     C_3   0.229939 0.446263 0.456797 -0.252765
C119  C     C_3   0.402980 0.784658 0.543155 -0.270775
C120  C     C_3   0.596809 0.215486 0.456890 -0.272307
C121  C     C_3   0.215442 0.596830 0.543154 -0.270710
C122  C     C_3   0.784417 0.403376 0.456891 -0.272236
C123  C     C_3   0.052187 0.269718 0.043201 -0.252737
C124  C     C_R   0.687848 0.257554 0.774332 0.075601
C125  C     C_3   0.947749 0.730308 0.956795 -0.253371
C126  C     C_3   0.730279 0.947806 0.043201 -0.252741
C127  C     C_3   0.269694 0.052258 0.956795 -0.253377
C128  C     C_3   0.098037 0.714916 0.043107 -0.272469
C129  C     C_3   0.901744 0.285234 0.956847 -0.270914
C130  C     C_3   0.285082 0.901970 0.043107 -0.272470
C131  C     C_3   0.714769 0.098248 0.956846 -0.270914
C132  C     C_R   0.322152 0.732418 0.237866 0.072049
C133  C     C_R   0.732406 0.677837 0.762126 0.071657
C134  C     C_R   0.257637 0.312231 0.225742 0.075518
C135  C     C_R   0.312231 0.257645 0.225745 0.074837
C136  C     C_R   0.677841 0.732398 0.762123 0.072063
C137  C     C_R   0.267582 0.677848 0.237866 0.072049
C138  C     C_R   0.742446 0.312151 0.774332 0.075601
C139  C     C_R   0.687770 0.742363 0.225742 0.075518
C140  C     C_R   0.866554 0.489173 0.520342 0.395258
C141  C     C_R   0.322163 0.267594 0.762126 0.071656
C142  C     C_R   0.732403 0.322167 0.237900 0.072097
C143  C     C_R   0.257589 0.687813 0.774281 0.075242
C144  C     C_R   0.822153 0.232418 0.262133 0.072046
C145  C     C_R   0.187847 0.757556 0.725670 0.075581
C146  C     C_R   0.757636 0.812230 0.274259 0.075521
C147  C     C_R   0.232406 0.177837 0.737874 0.071652
C148  C     C_R   0.177833 0.767597 0.262100 0.072102
C149  C     C_R   0.812186 0.242411 0.725720 0.075248
C150  C     C_R   0.242355 0.187770 0.274255 0.074840
C151  C     C_R   0.133438 0.510906 0.479662 0.395181
C152  C     C_R   0.767602 0.822159 0.737877 0.072062
C153  C     C_R   0.822163 0.767594 0.737874 0.071651
C154  C     C_R   0.187770 0.242363 0.274259 0.075521
C155  C     C_R   0.757589 0.187814 0.725719 0.075248
C156  C     C_R   0.232403 0.822167 0.262100 0.072102
C157  C     C_R   0.177841 0.232398 0.737877 0.072062
C158  C     C_R   0.812230 0.757645 0.274256 0.074841
C159  C     C_R   0.242445 0.812153 0.725670 0.075583
C160  C     C_R   0.767582 0.177847 0.262133 0.072047
C161  C     C_R   0.304086 0.804082 0.749988 -0.149553
C162  C     C_R   0.485075 0.866942 0.520335 0.398008
C163  C     C_R   0.695926 0.195931 0.250007 -0.155386
C164  C     C_R   0.195934 0.304066 0.750000 -0.155534
C165  C     C_R   0.804080 0.695920 0.250000 -0.149975
C166  C     C_R   0.695918 0.195914 0.750013 -0.149540
C167  C     C_R   0.304069 0.804074 0.249992 -0.155377
C168  C     C_R   0.804070 0.695930 0.750000 -0.156113
C169  C     C_R   0.195917 0.304082 0.250000 -0.149916
C170  C     C_R   0.304080 0.195920 0.250000 -0.149975
C171  C     C_R   0.695934 0.804066 0.750000 -0.155535
C172  C     C_R   0.195926 0.695931 0.249992 -0.155377
C173  C     C_R   0.514800 0.133072 0.479667 0.398339
C174  C     C_R   0.804086 0.304082 0.750013 -0.149540
C175  C     C_R   0.695917 0.804082 0.250000 -0.149916
C176  C     C_R   0.304070 0.195930 0.750000 -0.156113
C177  C     C_R   0.804069 0.304074 0.250007 -0.155387
C178  C     C_R   0.195918 0.695914 0.749988 -0.149554
C179  C     C_R   0.493139 0.934051 0.581299 -0.179481
C180  C     C_R   0.506771 0.065959 0.418703 -0.179286
C181  C     C_R   0.065958 0.506805 0.581299 -0.179481
C182  C     C_R   0.934033 0.493284 0.418703 -0.179288
C183  C     C_R   0.505618 0.066037 0.581299 -0.177773
C184  C     C_R   0.133077 0.514807 0.520335 0.397987
C185  C     C_R   0.494364 0.933965 0.418703 -0.177763
C186  C     C_R   0.933955 0.494439 0.581299 -0.177773
C187  C     C_R   0.066042 0.505579 0.418703 -0.177765
C188  C     C_R   0.007135 0.565917 0.081297 -0.179253
C189  C     C_R   0.992772 0.434092 0.918700 -0.179451
C190  C     C_R   0.434082 0.992867 0.081297 -0.179254
C191  C     C_R   0.565908 0.007226 0.918700 -0.179450
C192  C     C_R   0.993997 0.434002 0.081298 -0.177760
C193  C     C_R   0.005982 0.566001 0.918700 -0.177776
C194  C     C_R   0.565998 0.006001 0.081298 -0.177760
C195  C     C_R   0.866909 0.485315 0.479667 0.398316
C196  C     C_R   0.433999 0.994020 0.918700 -0.177777
C197  C     C_R   0.499665 0.000017 0.601598 -0.087224
C198  C     C_R   0.500301 0.999987 0.398404 -0.087202
C199  C     C_R   0.999983 0.500335 0.601597 -0.087212
C200  C     C_R   0.000013 0.499698 0.398404 -0.087189
C201  C     C_R   0.000301 0.499986 0.101596 -0.087185
C202  C     C_R   0.999664 0.500018 0.898402 -0.087210
C203  C     C_R   0.500014 0.999699 0.101596 -0.087187
C204  C     C_R   0.499982 0.000336 0.898402 -0.087212
C205  C     C_R   0.505537 0.066874 0.540757 -0.034721
C206  C     C_R   0.988210 0.366650 0.020338 0.395153
C207  C     C_R   0.494405 0.933133 0.459246 -0.034733
C208  C     C_R   0.933119 0.494522 0.540757 -0.034753
C209  C     C_R   0.066875 0.505536 0.459246 -0.034765
C210  C     C_R   0.492700 0.933276 0.540755 -0.034554
C211  C     C_R   0.507198 0.066735 0.459247 -0.034483
C212  C     C_R   0.066733 0.507242 0.540755 -0.034580
C213  C     C_R   0.933255 0.492859 0.459247 -0.034511
C214  C     C_R   0.994026 0.433169 0.040754 -0.034675
C215  C     C_R   0.005911 0.566837 0.959243 -0.034667
C216  C     C_R   0.566831 0.005972 0.040754 -0.034674
H1    H     H_    0.225547 0.583012 0.799778 0.111119
H2    H     H_    0.754187 0.563058 0.776421 0.128688
H3    H     H_    0.172170 0.627048 0.559254 0.139036
H4    H     H_    0.224170 0.621945 0.514139 0.194038
H5    H     H_    0.827664 0.373047 0.440831 0.137983
H6    H     H_    0.732735 0.397589 0.440331 0.189903
H7    H     H_    0.775600 0.378345 0.485918 0.194675
H8    H     H_    0.047613 0.217962 0.059793 0.197370
H9    H     H_    0.090400 0.306186 0.059271 0.139978
H10   H     H_    0.075066 0.256101 0.014197 0.190582
H11   H     H_    0.909519 0.693843 0.940735 0.139234
H12   H     H_    0.952334 0.782054 0.940194 0.197275
H13   H     H_    0.436940 0.754221 0.223576 0.128198
H14   H     H_    0.924885 0.743949 0.985799 0.190888
H15   H     H_    0.693811 0.909594 0.059272 0.139978
H16   H     H_    0.782036 0.952378 0.059793 0.197370
H17   H     H_    0.743896 0.924926 0.014197 0.190583
H18   H     H_    0.217948 0.047675 0.940194 0.197276
H19   H     H_    0.306160 0.090487 0.940735 0.139235
H20   H     H_    0.256054 0.075122 0.985799 0.190888
H21   H     H_    0.128076 0.671471 0.059168 0.137961
H22   H     H_    0.104169 0.766556 0.059665 0.189821
H23   H     H_    0.123123 0.723563 0.014079 0.194691
H24   H     H_    0.583093 0.225465 0.799866 0.109870
H25   H     H_    0.895562 0.233578 0.940307 0.190146
H26   H     H_    0.871822 0.328703 0.940743 0.139014
H27   H     H_    0.876572 0.276679 0.985861 0.194040
H28   H     H_    0.233441 0.895840 0.059665 0.189823
H29   H     H_    0.328525 0.871930 0.059169 0.137961
H30   H     H_    0.276433 0.876885 0.014079 0.194692
H31   H     H_    0.671300 0.128172 0.940743 0.139014
H32   H     H_    0.766425 0.104429 0.940307 0.190147
H33   H     H_    0.723325 0.123420 0.985861 0.194041
H34   H     H_    0.774327 0.582935 0.200280 0.111318
H35   H     H_    0.245838 0.436948 0.776400 0.128623
H36   H     H_    0.563031 0.245810 0.223633 0.128959
H37   H     H_    0.416988 0.774453 0.799778 0.111119
H38   H     H_    0.745780 0.063059 0.276421 0.128204
H39   H     H_    0.274531 0.916911 0.700138 0.109879
H40   H     H_    0.917064 0.725672 0.299721 0.111311
H41   H     H_    0.754190 0.436969 0.223633 0.128960
H42   H     H_    0.063052 0.254162 0.723600 0.128622
H43   H     H_    0.254190 0.936969 0.276367 0.128957
H44   H     H_    0.725547 0.083013 0.700221 0.111121
H45   H     H_    0.082957 0.274361 0.299741 0.109970
H46   H     H_    0.936942 0.745813 0.723580 0.128690
H47   H     H_    0.745838 0.936948 0.723600 0.128622
H48   H     H_    0.274328 0.082936 0.299721 0.111311
H49   H     H_    0.916987 0.274453 0.700222 0.111122
H50   H     H_    0.063031 0.745809 0.276367 0.128958
H51   H     H_    0.254187 0.063058 0.723580 0.128690
H52   H     H_    0.436942 0.245813 0.776421 0.128689
H53   H     H_    0.725639 0.917043 0.299741 0.109970
H54   H     H_    0.083089 0.725469 0.700138 0.109879
H55   H     H_    0.936941 0.254220 0.276421 0.128204
H56   H     H_    0.072350 0.832152 0.658327 0.126090
H57   H     H_    0.965088 0.130273 0.296621 0.135989
H58   H     H_    0.130242 0.034879 0.703372 0.136400
H59   H     H_    0.832434 0.927914 0.341464 0.125865
H60   H     H_    0.927793 0.167703 0.658465 0.127732
H61   H     H_    0.034862 0.869775 0.296520 0.135770
H62   H     H_    0.869785 0.965114 0.703387 0.135453
H63   H     H_    0.582956 0.774360 0.200260 0.109969
H64   H     H_    0.167540 0.072076 0.341450 0.128005
H65   H     H_    0.072086 0.167566 0.341464 0.125866
H66   H     H_    0.965121 0.869758 0.703372 0.136400
H67   H     H_    0.130225 0.965137 0.296520 0.135771
H68   H     H_    0.832297 0.072207 0.658465 0.127731
H69   H     H_    0.927924 0.832460 0.341450 0.128005
H70   H     H_    0.034886 0.130215 0.703387 0.135453
H71   H     H_    0.869727 0.034911 0.296621 0.135989
H72   H     H_    0.167848 0.927650 0.658327 0.126090
H73   H     H_    0.534862 0.369776 0.203482 0.135771
H74   H     H_    0.774535 0.416907 0.799866 0.109869
H75   H     H_    0.427793 0.667702 0.841535 0.127735
H76   H     H_    0.667539 0.572074 0.158551 0.128013
H77   H     H_    0.369786 0.465113 0.796613 0.135449
H78   H     H_    0.465086 0.630275 0.203375 0.135985
H79   H     H_    0.572357 0.332145 0.841678 0.126083
H80   H     H_    0.332435 0.427915 0.158537 0.125857
H81   H     H_    0.630243 0.534879 0.796629 0.136404
H82   H     H_    0.534886 0.630214 0.796613 0.135449
H83   H     H_    0.427926 0.332461 0.158551 0.128014
H84   H     H_    0.667855 0.427643 0.841678 0.126083
H85   H     H_    0.245779 0.563060 0.223576 0.128198
H86   H     H_    0.369725 0.534914 0.203375 0.135985
H87   H     H_    0.465121 0.369757 0.796629 0.136404
H88   H     H_    0.572085 0.667565 0.158537 0.125858
H89   H     H_    0.332298 0.572206 0.841535 0.127735
H90   H     H_    0.630224 0.465138 0.203482 0.135771
H91   H     H_    0.488258 0.883227 0.597229 0.205417
H92   H     H_    0.511632 0.116785 0.402773 0.205397
H93   H     H_    0.116788 0.511641 0.597229 0.205420
H94   H     H_    0.883200 0.488469 0.402774 0.205401
H95   H     H_    0.510669 0.116843 0.597231 0.206155
H96   H     H_    0.563052 0.754161 0.776399 0.128623
H97   H     H_    0.489351 0.883156 0.402771 0.206062
H98   H     H_    0.883143 0.489433 0.597231 0.206159
H99   H     H_    0.116858 0.510547 0.402772 0.206066
H100  H     H_    0.012287 0.616712 0.097229 0.205359
H101  H     H_    0.987600 0.383300 0.902768 0.205384
H102  H     H_    0.383288 0.987717 0.097229 0.205360
H103  H     H_    0.616700 0.012396 0.902768 0.205384
H104  H     H_    0.988694 0.383225 0.097231 0.206019
H105  H     H_    0.011323 0.616773 0.902766 0.206115
H106  H     H_    0.616775 0.011303 0.097231 0.206019
H107  H     H_    0.417065 0.225673 0.200280 0.111317
H108  H     H_    0.383226 0.988680 0.902767 0.206116
H109  H     H_    0.450708 0.281786 0.559805 0.197307
H110  H     H_    0.408408 0.193324 0.559266 0.139170
H111  H     H_    0.423480 0.243518 0.514201 0.190828
H112  H     H_    0.591519 0.806709 0.440727 0.139918
H113  H     H_    0.549251 0.718232 0.440207 0.197406
H114  H     H_    0.576484 0.756536 0.485802 0.190513
H115  H     H_    0.806752 0.591769 0.559265 0.139153
H116  H     H_    0.718247 0.549550 0.559804 0.197290
H117  H     H_    0.756544 0.576744 0.514201 0.190808
H118  H     H_    0.225640 0.417044 0.200260 0.109969
H119  H     H_    0.281732 0.450483 0.440207 0.197391
H120  H     H_    0.193209 0.408302 0.440724 0.139904
H121  H     H_    0.243396 0.423283 0.485800 0.190489
H122  H     H_    0.372805 0.827956 0.559258 0.139054
H123  H     H_    0.397097 0.732967 0.559696 0.190199
H124  H     H_    0.377855 0.775956 0.514141 0.194033
H125  H     H_    0.602642 0.267162 0.440330 0.189886
H126  H     H_    0.627098 0.172214 0.440829 0.138000
H127  H     H_    0.621849 0.224280 0.485917 0.194675
H128  H     H_    0.267140 0.602665 0.559695 0.190217
O1    O     O_3   1.000000 0.500000 0.750000 -0.487692
O2    O     O_R   0.060740 0.500000 0.337440 -0.643940
O3    O     O_R   0.500000 0.939260 0.662560 -0.643984
O4    O     O_R   0.500000 0.060740 0.337440 -0.644080
O5    O     O_R   0.560740 0.000000 0.162560 -0.643956
O6    O     O_R   0.439260 1.000000 0.837440 -0.644094
O7    O     O_R   1.000000 0.560740 0.162560 -0.644026
O8    O     O_R   0.000000 0.439260 0.837440 -0.643931
O9    O     O_R   0.439260 0.000000 0.162560 -0.644026
O10   O     O_R   0.560740 1.000000 0.837440 -0.643931
O11   O     O_R   1.000000 0.439260 0.162560 -0.643956
O12   O     O_3   1.000000 0.500000 0.250000 -0.487700
O13   O     O_R   1.000000 0.560740 0.837440 -0.644094
O14   O     O_R   0.853850 0.585450 0.727070 -0.638081
O15   O     O_R   0.146150 0.414550 0.272930 -0.636942
O16   O     O_R   0.414550 0.853850 0.727070 -0.638593
O17   O     O_R   0.585450 0.146150 0.272930 -0.640084
O18   O     O_R   0.146150 0.414550 0.727070 -0.636534
O19   O     O_R   0.853850 0.585450 0.272930 -0.635263
O20   O     O_R   0.585450 0.146150 0.727070 -0.633779
O21   O     O_R   0.414550 0.853850 0.272930 -0.634698
O22   O     O_R   0.853850 0.414550 0.272930 -0.640085
O23   O     O_3   0.500000 0.000000 0.750000 -0.487692
O24   O     O_R   0.146150 0.585450 0.727070 -0.638594
O25   O     O_R   0.414550 0.146150 0.272930 -0.635262
O26   O     O_R   0.585450 0.853850 0.727070 -0.636533
O27   O     O_R   0.146150 0.585450 0.272930 -0.634695
O28   O     O_R   0.853850 0.414550 0.727070 -0.633776
O29   O     O_R   0.585450 0.853850 0.272930 -0.636941
O30   O     O_R   0.414550 0.146150 0.727070 -0.638080
O31   O     O_R   0.353850 0.085450 0.227070 -0.635243
O32   O     O_R   0.646150 0.914550 0.772930 -0.636513
O33   O     O_R   0.914550 0.353850 0.227070 -0.634714
O34   O     O_3   0.500000 0.000000 0.250000 -0.487701
O35   O     O_R   0.085450 0.646150 0.772930 -0.633794
O36   O     O_R   0.646150 0.914550 0.227070 -0.636948
O37   O     O_R   0.353850 0.085450 0.772930 -0.638084
O38   O     O_R   0.085450 0.646150 0.227070 -0.640074
O39   O     O_R   0.914550 0.353850 0.772930 -0.638583
O40   O     O_R   0.353850 0.914550 0.772930 -0.633794
O41   O     O_R   0.646150 0.085450 0.227070 -0.634714
O42   O     O_R   0.914550 0.646150 0.772930 -0.638084
O43   O     O_R   0.085450 0.353850 0.227070 -0.636947
O44   O     O_R   0.646150 0.085450 0.772930 -0.638582
O45   O     O_R   0.060740 0.500000 0.662560 -0.643991
O46   O     O_R   0.353850 0.914550 0.227070 -0.640074
O47   O     O_R   0.085450 0.353850 0.772930 -0.636513
O48   O     O_R   0.914550 0.646150 0.227070 -0.635243
O49   O     O_3   0.516796 0.199024 0.540095 -0.598046
O50   O     O_3   0.483139 0.800980 0.459912 -0.598338
O51   O     O_3   0.800952 0.483383 0.540095 -0.598013
O52   O     O_3   0.199045 0.516678 0.459912 -0.598306
O53   O     O_3   0.478042 0.801443 0.540077 -0.597433
O54   O     O_3   0.521770 0.198575 0.459922 -0.597032
O55   O     O_3   0.198585 0.521781 0.540077 -0.597423
O56   O     O_R   0.939260 0.500000 0.337440 -0.644087
O57   O     O_3   0.801397 0.478403 0.459923 -0.597024
O58   O     O_3   0.981991 0.301092 0.040089 -0.598378
O59   O     O_3   0.017935 0.698913 0.959903 -0.598085
O60   O     O_3   0.698908 0.018003 0.040089 -0.598378
O61   O     O_3   0.301087 0.982071 0.959904 -0.598085
O62   O     O_3   0.022905 0.698437 0.040077 -0.596966
O63   O     O_3   0.976900 0.301582 0.959923 -0.597367
O64   O     O_3   0.301562 0.977102 0.040077 -0.596968
O65   O     O_3   0.698418 0.023093 0.959923 -0.597368
O66   O     O_R   0.500000 0.060740 0.662560 -0.644079
O67   O     O_R   0.500000 0.939260 0.337440 -0.643941
O68   O     O_R   0.939260 0.500000 0.662560 -0.644077
Zn1   Zn    Zn3+2 0.000000 0.586740 0.782740 0.964442
Zn2   Zn    Zn3+2 0.500000 0.913260 0.717260 0.963791
Zn3   Zn    Zn3+2 0.913260 0.500000 0.282740 0.963652
Zn4   Zn    Zn3+2 0.086740 0.500000 0.717260 0.963787
Zn5   Zn    Zn3+2 0.500000 0.913260 0.282740 0.964641
Zn6   Zn    Zn3+2 0.500000 0.086740 0.717260 0.964476
Zn7   Zn    Zn3+2 0.086740 0.500000 0.282740 0.964645
Zn8   Zn    Zn3+2 0.913260 0.500000 0.717260 0.964480
Zn9   Zn    Zn3+2 0.000000 0.413260 0.217260 0.964608
Zn10  Zn    Zn3+2 0.413260 0.000000 0.782740 0.964442
Zn11  Zn    Zn3+2 0.586740 0.000000 0.217260 0.964608
Zn12  Zn    Zn3+2 1.000000 0.413260 0.782740 0.963839
Zn13  Zn    Zn3+2 1.000000 0.586740 0.217260 0.963704
Zn14  Zn    Zn3+2 0.586740 0.000000 0.782740 0.963839
Zn15  Zn    Zn3+2 0.413260 0.000000 0.217260 0.963703
Zn16  Zn    Zn3+2 0.500000 0.086740 0.282740 0.963657

loop_
_geom_bond_atom_site_label_1
_geom_bond_atom_site_label_2
_ccdc_geom_bond_type
C57   O64   S    
C89   H69   S    
O17   Zn16  S    
C185  C207  A    
O6    Zn10  S    
C118  H119  S    
C151  C184  A    
C190  H102  S    
O67   Zn5   S    
C25   O46   A    
C183  C197  A    
C97   H64   S    
C87   H71   S    
C92   H67   S    
C88   H72   S    
C142  C177  A    
C151  O52   S    
C143  C178  A    
C126  H17   S    
C36   C142  A    
C60   C153  A    
C7    C68   A    
C50   C90   A    
O39   Zn12  S    
C134  C169  A    
C138  C174  A    
C159  C161  A    
C91   C100  A    
C65   C147  A    
C108  C213  A    
C36   C71   A    
C206  C214  A    
O13   Zn1   S    
O23   Zn6   S    
C79   C161  A    
C118  H121  S    
C16   C202  S    
C117  H117  S    
C18   O15   A    
C34   C143  A    
C53   C159  A    
O41   Zn11  S    
C160  C163  A    
C44   H2    S    
C72   H87   S    
C147  C176  A    
C107  C212  A    
C162  C210  A    
C94   C97   A    
C128  H21   S    
C20   C163  S    
O20   Zn6   S    
C105  C210  A    
C58   H44   S    
C117  H116  S    
C136  C171  A    
C20   O41   A    
C73   H88   S    
C63   H49   S    
C72   C84   A    
C98   H60   S    
C28   C170  S    
C26   O33   A    
C129  O63   S    
O34   Zn16  S    
O46   Zn15  S    
C153  C168  A    
C15   O7    A    
C121  H4    S    
C186  C199  A    
C50   H36   S    
O1    Zn4   S    
C105  C106  A    
C124  C138  A    
C62   C150  A    
O12   Zn13  S    
C54   H40   S    
C11   O4    A    
O28   Zn8   S    
C45   C81   A    
O19   Zn3   S    
C123  H9    S    
C11   O67   A    
C63   C98   A    
C129  H27   S    
C5    C46   A    
C26   O22   A    
C127  H19   S    
O9    Zn15  S    
C186  C208  A    
C187  C200  A    
C55   H42   S    
C4    C188  A    
C126  H15   S    
C149  C155  A    
C5    C189  A    
C194  H106  S    
C41   C76   A    
C113  C165  A    
O32   Zn14  S    
C119  H124  S    
C150  C170  A    
C40   H85   S    
C116  H112  S    
C29   O32   A    
C66   C146  A    
C180  C198  A    
C131  H32   S    
C60   C95   A    
C38   H63   S    
C131  O65   S    
C120  O54   S    
O48   Zn13  S    
C45   C132  A    
C122  H6    S    
C27   O35   A    
C73   C83   A    
C158  C165  A    
C22   O48   A    
C52   C160  A    
C189  H101  S    
C4    C109  A    
C186  H98   S    
C6    C111  A    
C74   H84   S    
C123  O58   S    
C56   C156  A    
C34   H1    S    
C67   C103  A    
C128  H23   S    
C1    C173  A    
O34   Zn5   S    
C49   C84   A    
C27   O24   A    
C145  C159  A    
C12   C203  S    
C69   H55   S    
C129  H26   S    
O36   Zn11  S    
C20   O17   A    
C135  C170  A    
C32   O36   A    
C8    O45   A    
C67   H54   S    
C130  H28   S    
C64   C99   A    
C79   C143  A    
C187  C209  A    
C24   C57   A    
C137  C172  A    
C28   O31   A    
C14   C204  S    
C67   C145  A    
O47   Zn12  S    
O8    Zn12  S    
O12   Zn7   S    
C125  H12   S    
C77   H83   S    
C39   C138  A    
C64   C148  A    
O40   Zn10  S    
C3    C24   A    
C23   O20   A    
C71   H90   S    
C15   C201  S    
C130  H29   S    
C193  C215  A    
C8    O68   A    
C32   C175  S    
C195  C213  A    
C24   O61   S    
C60   H46   S    
C61   H47   S    
C109  C214  A    
C133  C168  A    
C119  H122  S    
O29   Zn5   S    
C14   O6    A    
C100  H58   S    
O56   Zn3   S    
C37   H52   S    
O10   Zn14  S    
C145  C178  A    
C116  H114  S    
C81   H78   S    
C30   O38   A    
C182  C213  A    
C62   C97   A    
C121  O55   S    
C192  C201  A    
C10   O66   A    
O23   Zn10  S    
C29   C171  S    
O7    Zn13  S    
C157  C164  A    
C30   C172  S    
C80   H81   S    
O34   Zn15  S    
C183  C205  A    
C196  C204  A    
C181  C199  A    
C10   C197  S    
C144  C160  A    
C122  O57   S    
C46   C206  A    
C86   H75   S    
O24   Zn4   S    
C59   H45   S    
C76   C80   A    
C112  C207  A    
C3    C114  A    
C118  H120  S    
C9    C200  S    
O1    Zn1   S    
C134  C135  A    
C146  C158  A    
C189  C202  A    
C148  C156  A    
O15   Zn7   S    
C48   C83   A    
O37   Zn10  S    
C11   C198  S    
O38   Zn13  S    
C64   H50   S    
C99   H61   S    
C117  O51   S    
C118  O52   S    
C106  C211  A    
C193  H105  S    
C39   C74   A    
O27   Zn7   S    
C140  C195  A    
C51   C79   A    
C152  C153  A    
O68   Zn8   S    
C42   C77   A    
O33   Zn9   S    
C93   H68   S    
O22   Zn3   S    
C131  H33   S    
C92   C99   A    
O11   Zn9   S    
C13   C68   A    
C147  C157  A    
C2    C35   A    
C180  H92   S    
C181  H93   S    
C132  C167  A    
C33   O37   A    
C77   C78   A    
C43   C78   A    
C179  C210  A    
C37   C141  A    
C181  C212  A    
C7    C114  A    
C128  O62   S    
C58   C93   A    
C10   O3    A    
C82   H79   S    
C194  C216  A    
C119  O53   S    
C115  H110  S    
C26   C177  S    
C128  H22   S    
C31   O28   A    
C149  C174  A    
C19   C161  S    
C33   C176  S    
C52   H38   S    
O3    Zn2   S    
C55   C91   A    
C50   C85   A    
C120  H125  S    
C117  H115  S    
C130  O64   S    
C15   O11   A    
C9    O2    A    
C141  C176  A    
C38   C139  A    
C27   C178  S    
C187  H99   S    
O34   Zn11  S    
C59   C94   A    
C102  H59   S    
C34   C70   A    
O1    Zn8   S    
C4    C35   A    
C2    C215  A    
C21   C164  S    
C121  H3    S    
C6    C57   A    
C7    C191  A    
C173  C211  A    
O44   Zn14  S    
C74   C82   A    
C179  H91   S    
C140  C208  A    
C51   C86   A    
C59   C154  A    
C23   O44   A    
O25   Zn16  S    
C173  O54   S    
C61   C96   A    
C44   C80   A    
C182  C200  A    
C111  C216  A    
C62   H48   S    
C106  C207  A    
O35   Zn1   S    
C13   O60   S    
C17   C168  S    
C193  C202  A    
C154  C169  A    
C42   C135  A    
C69   C144  A    
C43   C134  A    
C126  H16   S    
C70   H89   S    
C119  H123  S    
C146  C175  A    
C127  H20   S    
C107  C208  A    
C90   C142  A    
C131  H31   S    
C94   H65   S    
C122  H7    S    
C56   H43   S    
C191  C204  A    
C206  O58   S    
C51   H37   S    
C121  H128  S    
C18   C169  S    
O30   Zn6   S    
O66   Zn6   S    
C101  C164  A    
C65   C100  A    
O16   Zn2   S    
C83   H76   S    
C162  O53   S    
C105  C205  A    
C84   H77   S    
C35   O62   S    
C85   H73   S    
C123  H8    S    
C3    C196  A    
C40   C75   A    
C25   O21   A    
C90   C163  A    
O45   Zn4   S    
C110  C215  A    
C132  C137  A    
C33   O30   A    
C188  H100  S    
C66   H53   S    
C109  C110  A    
C120  H127  S    
C76   H82   S    
C47   C124  A    
C129  H25   S    
O4    Zn16  S    
C191  H103  S    
C116  H113  S    
C111  C114  A    
C30   O27   A    
C12   O5    A    
C16   O8    A    
C87   C104  A    
C49   H35   S    
C112  O50   S    
C55   C157  A    
C144  C177  A    
C68   O65   S    
C5    C110  A    
C37   C72   A    
C183  H95   S    
C91   H70   S    
O21   Zn5   S    
C53   H39   S    
C2    O59   S    
C125  H11   S    
C104  H57   S    
O31   Zn15  S    
C48   C113  A    
C195  O57   S    
C17   O14   A    
C41   H96   S    
C89   C102  A    
C19   O16   A    
C66   C102  A    
C139  C175  A    
C95   C96   A    
C108  C209  A    
C130  H30   S    
C123  H10   S    
C25   C167  S    
C12   O9    A    
O42   Zn1   S    
C13   C216  A    
O23   Zn2   S    
C42   H107  S    
C190  C203  A    
C155  C166  A    
C188  C201  A    
C1    O49   S    
C47   C82   A    
C63   C149  A    
C148  C172  A    
C17   O42   A    
C71   C85   A    
C22   C165  S    
C78   H80   S    
O26   Zn2   S    
C122  H5    S    
C133  C136  A    
C182  H94   S    
C185  C198  A    
C1    C205  A    
C116  O50   S    
C40   C137  A    
C39   H74   S    
C75   H86   S    
C45   H13   S    
C192  C214  A    
C184  C212  A    
C28   O25   A    
C16   O13   A    
C54   C89   A    
C125  H14   S    
C152  C171  A    
C75   C81   A    
C179  C197  A    
C156  C167  A    
C21   O47   A    
O12   Zn9   S    
C180  C211  A    
O1    Zn12  S    
C54   C158  A    
C23   C166  S    
C31   O39   A    
C32   O29   A    
C107  C108  A    
C95   H66   S    
C6    C190  A    
C113  C139  A    
C196  H108  S    
C36   H41   S    
C43   H118  S    
O5    Zn11  S    
C115  H111  S    
C124  C166  A    
O23   Zn14  S    
C150  C154  A    
C22   O19   A    
C70   C86   A    
C29   O26   A    
C19   O40   A    
C88   C103  A    
C69   C104  A    
C44   C133  A    
C127  H18   S    
C151  C209  A    
C101  C141  A    
C52   C87   A    
C115  O49   S    
C112  C162  A    
C185  H97   S    
C21   O18   A    
O2    Zn7   S    
C96   H62   S    
C103  H56   S    
C46   O63   S    
C115  H109  S    
O12   Zn3   S    
C18   O43   A    
O18   Zn4   S    
C194  C203  A    
C192  H104  S    
C9    O56   A    
C14   O10   A    
C53   C88   A    
C48   H34   S    
C61   C152  A    
C140  O51   S    
C58   C155  A    
C120  H126  S    
C47   H24   S    
C56   C92   A    
O43   Zn9   S    
O14   Zn8   S    
C125  O59   S    
C126  O60   S    
C8    C199  S    
C184  O55   S    
C93   C98   A    
C31   C174  S    
C41   C136  A    
C127  O61   S    
C49   C101  A    
C38   C73   A    
C65   H51   S    
