data_mof_unit_26054.cif
_audit_creation_date              2012-12-10T17:21:38-0500
_audit_creation_method            fapswitch 2.2
_symmetry_space_group_name_H-M    P1
_symmetry_Int_Tables_number       1
_space_group_crystal_system       triclinic
_cell_length_a                    10.757912
_cell_length_b                    10.842858
_cell_length_c                    9.600247
_cell_angle_alpha                 89.190669
_cell_angle_beta                  89.559742
_cell_angle_gamma                 94.056874
_cell_volume                      1116.87560932

loop_
_atom_site_label
_atom_site_type_symbol
_atom_type_description
_atom_site_fract_x
_atom_site_fract_y
_atom_site_fract_z
_atom_type_partial_charge
C1    C     C_R   0.506104 0.262367 0.501945 0.803558
C2    C     C_3   0.878165 0.497631 0.497601 -0.059165
C3    C     C_3   0.937065 0.621499 0.554221 -0.454518
C4    C     C_3   0.929694 0.475016 0.347504 0.270123
C5    C     C_R   0.517589 0.108342 0.768868 -0.092759
C6    C     C_R   0.477172 0.043418 0.889091 -0.213236
C7    C     C_R   0.412485 0.928617 0.878356 -0.195721
C8    C     C_R   0.399951 0.872832 0.748854 0.647144
C9    C     C_R   0.455177 0.931625 0.628032 -0.030055
C10   C     C_R   0.494972 0.058025 0.634978 0.031504
C11   C     C_R   0.509853 0.127287 0.507682 -0.074472
C12   C     C_R   0.259920 0.497163 0.500279 0.917885
C13   C     C_R   0.512309 0.065047 0.380872 -0.196848
C14   C     C_R   0.500572 0.937453 0.378486 -0.157866
C15   C     C_R   0.474610 0.869385 0.501382 -0.065095
C16   C     C_R   0.665193 0.678521 0.133343 0.686938
C17   C     C_R   0.738778 0.763349 0.053489 -0.207771
C18   C     C_R   0.737874 0.758555 0.911340 -0.332024
C19   C     C_R   0.662067 0.669434 0.846871 -0.114945
C20   C     C_R   0.579842 0.584346 0.921771 0.057554
C21   C     C_R   0.580309 0.586162 0.071717 0.047990
C22   C     C_R   0.424095 0.419910 0.075962 -0.160253
C23   C     C_R   0.488572 0.736248 0.499858 0.889721
C24   C     C_R   0.423738 0.420153 0.928211 0.679586
C25   C     C_R   0.740029 0.498872 0.499294 0.843219
C26   C     C_3   0.062817 0.392520 0.598274 0.413003
C27   C     C_3   0.918921 0.391283 0.593724 -0.540760
C28   C     C_3   0.080703 0.622584 0.549608 0.385881
C29   C     C_3   0.072217 0.471615 0.350076 -0.373050
C30   C     C_3   0.121904 0.495880 0.499647 -0.144116
Cu1   Cu    Cu3+1 0.499990 0.499990 0.640660 1.032660
Cu2   Cu    Cu3+1 0.500010 0.500010 0.359340 1.020016
H1    H     H_    0.093957 0.409889 0.706997 0.137065
H2    H     H_    0.904679 0.701420 0.494208 0.231915
H3    H     H_    0.526063 0.114927 0.282753 0.157014
H4    H     H_    0.570867 0.194996 0.784197 0.168836
H5    H     H_    0.492805 0.084008 0.990426 0.158624
H6    H     H_    0.373448 0.881893 0.970807 0.166229
H7    H     H_    0.512721 0.892196 0.279894 0.167061
H8    H     H_    0.361772 0.354261 0.132865 0.168026
H9    H     H_    0.800844 0.831970 0.103492 0.184852
H10   H     H_    0.798205 0.823121 0.850228 0.189588
H11   H     H_    0.673195 0.672137 0.737417 0.210029
H12   H     H_    0.878898 0.300685 0.555320 0.207948
H13   H     H_    0.882499 0.401475 0.701491 0.180798
H14   H     H_    0.117117 0.641290 0.655963 0.155557
H15   H     H_    0.906152 0.633128 0.663893 0.146940
H16   H     H_    0.115946 0.541389 0.275153 0.228178
H17   H     H_    0.098565 0.379719 0.314161 0.191713
H18   H     H_    0.889855 0.383068 0.312733 0.141873
N1    N     N_R   0.501200 0.501210 0.147910 -0.220851
N2    N     N_R   0.501250 0.501290 0.852040 -0.228156
O1    O     O_R   0.499990 0.319640 0.618810 -0.552757
O2    O     O_R   0.500000 0.319660 0.381240 -0.599614
O3    O     O_R   0.317680 0.499970 0.618790 -0.525142
O4    O     O_R   0.317700 0.499990 0.381210 -0.588880
O5    O     O_R   0.500000 0.680340 0.618760 -0.582777
O6    O     O_R   0.500010 0.680360 0.381190 -0.531782
O7    O     O_R   0.682300 0.500010 0.618790 -0.639127
O8    O     O_R   0.682320 0.500030 0.381210 -0.483707
O9    O     O_3   0.894522 0.562852 0.248648 -0.685225
H19   H     H_    0.937235 0.644180 0.270705 0.372502
F1    F     F_    0.129025 0.717226 0.461980 -0.642027
F2    F     F_    0.325661 0.766687 0.741184 -0.663430
F3    F     F_    0.100861 0.278002 0.560363 -0.630756
F4    F     F_    0.688881 0.691801 0.268703 -0.660204
F5    F     F_    0.344712 0.338321 0.861635 -0.644439

loop_
_geom_bond_atom_site_label_1
_geom_bond_atom_site_label_2
_ccdc_geom_bond_type
C24   N2    A    
C23   O6    A    
C2    C4    S    
C1    O2    A    
C28   F1    S    
Cu2   N1    S    
C26   C30   S    
C29   C30   S    
C25   O8    A    
C9    C10   A    
C4    H18   S    
C26   H1    S    
C4    C29   S    
C1    C11   S    
Cu2   O6    S    
Cu1   N2    S    
C21   N1    A    
C2    C27   S    
C22   H8    S    
C27   H13   S    
C19   C20   A    
C15   C23   S    
C17   C18   A    
C9    C15   A    
C6    H5    S    
C5    C10   A    
C20   N2    A    
C29   H17   S    
C13   C14   A    
Cu1   O1    S    
C16   C21   A    
C11   C13   A    
C28   H14   S    
C26   C27   S    
C6    C7    A    
C8    F2    S    
C5    C6    A    
C4    O9    S    
C3    H15   S    
C3    C28   S    
C12   O4    A    
C7    H6    S    
C28   C30   S    
C13   H3    S    
C2    C25   S    
C2    C3    S    
C18   H10   S    
O9    H19   S    
C22   C24   A    
C17   H9    S    
C16   F4    S    
C10   C11   A    
Cu2   O8    S    
C29   H16   S    
Cu1   O7    S    
C12   O3    A    
C5    H4    S    
C7    C8    A    
C20   C21   A    
C18   C19   A    
Cu2   O2    S    
C23   O5    A    
C1    O1    A    
C14   C15   A    
C22   N1    A    
C25   O7    A    
C3    H2    S    
Cu1   O3    S    
C14   H7    S    
C26   F3    S    
C12   C30   S    
C27   H12   S    
Cu2   O4    S    
Cu1   O5    S    
Cu1   Cu2   S    
C16   C17   A    
C19   H11   S    
C8    C9    A    
C24   F5    S    
