data_mof_unit_21107.cif
_audit_creation_date              2012-10-26T21:32:55-0400
_audit_creation_method            fapswitch 2.2
_symmetry_space_group_name_H-M    P1
_symmetry_Int_Tables_number       1
_space_group_crystal_system       triclinic
_cell_length_a                    28.330785
_cell_length_b                    18.346364
_cell_length_c                    17.050808
_cell_angle_alpha                 89.677168
_cell_angle_beta                  61.102515
_cell_angle_gamma                 89.973084
_cell_volume                      7758.79581216

loop_
_atom_site_label
_atom_site_type_symbol
_atom_type_description
_atom_site_fract_x
_atom_site_fract_y
_atom_site_fract_z
_atom_type_partial_charge
C1    C     C_R   0.701537 0.267939 0.676129 0.886119
C2    C     C_R   0.952292 0.631777 0.485900 0.126231
C3    C     C_R   0.073267 0.899079 0.934840 0.926712
C4    C     C_R   0.572528 0.601754 0.935342 0.928345
C5    C     C_R   0.427484 0.398228 0.064651 0.930739
C6    C     C_R   0.426722 0.600907 0.065173 0.925792
C7    C     C_R   0.573634 0.399567 0.934563 0.927703
C8    C     C_R   0.540122 0.999908 0.527136 -0.075900
C9    C     C_R   0.460031 0.000082 0.472279 -0.076549
C10   C     C_R   0.039502 0.499957 0.529522 -0.075999
C11   C     C_R   0.959397 0.500134 0.474701 -0.076301
C12   C     C_R   0.521166 0.067150 0.511106 0.058842
C13   C     C_R   0.951856 0.368494 0.487495 0.124494
C14   C     C_R   0.479009 0.932834 0.488257 0.058457
C15   C     C_R   0.479147 0.067239 0.487706 0.058727
C16   C     C_R   0.521025 0.932754 0.511670 0.058595
C17   C     C_R   0.020468 0.567226 0.513669 0.058757
C18   C     C_R   0.978238 0.432922 0.491015 0.059118
C19   C     C_R   0.978457 0.567280 0.490235 0.058910
C20   C     C_R   0.020280 0.432791 0.514342 0.058847
C21   C     C_R   0.605779 0.933915 0.557053 0.059616
C22   C     C_R   0.394295 0.066082 0.442572 0.059248
C23   C     C_R   0.394221 0.934265 0.442931 0.059557
C24   C     C_R   0.046775 0.631737 0.517407 0.127493
C25   C     C_R   0.605862 0.065731 0.556660 0.059334
C26   C     C_R   0.105501 0.433935 0.558534 0.059332
C27   C     C_R   0.894023 0.566099 0.444032 0.059912
C28   C     C_R   0.893897 0.434275 0.444592 0.059470
C29   C     C_R   0.105573 0.565749 0.558196 0.059179
C30   C     C_R   0.655988 0.934607 0.558497 -0.115606
C31   C     C_R   0.344036 0.065397 0.441311 -0.113716
C32   C     C_R   0.344004 0.934983 0.441474 -0.115984
C33   C     C_R   0.656028 0.065008 0.558302 -0.111850
C34   C     C_R   0.155933 0.434601 0.559157 -0.116139
C35   C     C_R   0.547207 0.868224 0.515921 0.126708
C36   C     C_R   0.843993 0.565389 0.441945 -0.113373
C37   C     C_R   0.843934 0.435005 0.442221 -0.114771
C38   C     C_R   0.155962 0.565034 0.559016 -0.115168
C39   C     C_R   0.678188 0.999776 0.564530 -0.296430
C40   C     C_R   0.321819 0.000224 0.435319 -0.292247
C41   C     C_R   0.178257 0.499782 0.564862 -0.291799
C42   C     C_R   0.821908 0.500226 0.435607 -0.293438
C43   C     C_R   0.583502 0.999849 0.548054 0.071030
C44   C     C_R   0.416607 0.000146 0.451476 0.071757
C45   C     C_R   0.083088 0.499877 0.549903 0.072367
C46   C     C_R   0.452963 0.131781 0.483474 0.126968
C47   C     C_R   0.916178 0.500174 0.453371 0.070824
C48   C     C_R   0.078990 0.369578 0.558334 -0.245171
C49   C     C_R   0.920339 0.630461 0.445043 -0.244701
C50   C     C_R   0.920047 0.369917 0.446398 -0.242205
C51   C     C_R   0.079160 0.630116 0.557477 -0.243831
C52   C     C_R   0.579384 0.869557 0.556364 -0.244458
C53   C     C_R   0.420709 0.130441 0.443170 -0.244924
C54   C     C_R   0.420542 0.869904 0.444043 -0.245705
C55   C     C_R   0.579568 0.130091 0.555429 -0.243783
C56   C     C_2   0.692029 0.138515 0.977996 0.905366
C57   C     C_R   0.452702 0.868346 0.484520 0.127169
C58   C     C_2   0.313097 0.867865 0.017454 0.896545
C59   C     C_2   0.277001 0.127793 0.079596 0.915908
C60   C     C_2   0.723096 0.871237 0.919929 0.883088
C61   C     C_2   0.186872 0.631809 0.983265 0.910121
C62   C     C_2   0.816190 0.375696 0.015729 0.893881
C63   C     C_2   0.776607 0.627635 0.080293 0.920464
C64   C     C_2   0.222381 0.371582 0.920953 0.886088
C65   C     C_R   0.547479 0.131627 0.514826 0.126373
C66   C     C_R   0.724051 0.271142 0.950560 -0.006359
C67   C     C_R   0.279904 0.735984 0.045781 -0.008467
C68   C     C_R   0.280484 0.263568 0.045106 0.001897
C69   C     C_R   0.298762 0.732635 0.323733 0.883973
C70   C     C_R   0.719779 0.735837 0.954688 0.003899
C71   C     C_R   0.220160 0.763951 0.954115 -0.007421
C72   C     C_R   0.784296 0.243347 0.041531 -0.008314
C73   C     C_R   0.780614 0.763321 0.044994 0.001721
C74   C     C_R   0.219679 0.236042 0.954772 0.003393
C75   C     C_R   0.724338 0.200277 0.984155 -0.011964
C76   C     C_R   0.280383 0.806691 0.011119 -0.008726
C77   C     C_R   0.262921 0.191820 0.041405 -0.013577
C78   C     C_R   0.737557 0.807476 0.957997 -0.000400
C79   C     C_R   0.219638 0.693215 0.988932 -0.011032
C80   C     C_R   0.298732 0.267655 0.323907 0.887473
C81   C     C_R   0.784066 0.314335 0.008169 -0.014408
C82   C     C_R   0.762791 0.691639 0.041697 -0.014352
C83   C     C_R   0.237167 0.307773 0.958520 -0.001732
C84   C     C_R   0.754866 0.187703 0.028134 -0.240307
C85   C     C_R   0.250064 0.819412 0.966544 -0.246024
C86   C     C_R   0.232564 0.179420 0.997206 -0.235184
C87   C     C_R   0.767943 0.819878 0.002214 -0.238708
C88   C     C_R   0.249953 0.680524 0.033437 -0.245126
C89   C     C_R   0.753524 0.326962 0.963727 -0.243495
C90   C     C_R   0.732424 0.679265 0.997505 -0.234514
C91   C     C_R   0.701293 0.732295 0.676085 0.885832
C92   C     C_R   0.267562 0.320188 0.002734 -0.238632
C93   C     C_R   0.646998 0.332209 0.942898 -0.211632
C94   C     C_R   0.355626 0.672571 0.054799 -0.204476
C95   C     C_R   0.357672 0.324954 0.053005 -0.226013
C96   C     C_R   0.642486 0.674720 0.946875 -0.224576
C97   C     C_R   0.144333 0.827340 0.945256 -0.215897
C98   C     C_R   0.858159 0.176747 0.052593 -0.210695
C99   C     C_R   0.857794 0.824747 0.052910 -0.225333
C100  C     C_R   0.142472 0.174767 0.946876 -0.225305
C101  C     C_R   0.616027 0.345645 0.899527 -0.070568
C102  C     C_R   0.201245 0.767389 0.676259 0.885240
C103  C     C_R   0.385322 0.656387 0.099627 -0.074803
C104  C     C_R   0.386677 0.341845 0.098671 -0.073633
C105  C     C_R   0.613401 0.658033 0.901292 -0.073625
C106  C     C_R   0.114655 0.843580 0.900400 -0.072946
C107  C     C_R   0.878694 0.144866 0.105522 -0.077318
C108  C     C_R   0.886730 0.841776 0.098647 -0.072506
C109  C     C_R   0.113399 0.158041 0.901281 -0.074929
C110  C     C_R   0.628550 0.312360 0.819219 0.045598
C111  C     C_R   0.372416 0.688630 0.180742 0.047352
C112  C     C_R   0.373171 0.310099 0.180494 0.041235
C113  C     C_R   0.796652 0.228449 0.325181 0.900650
C114  C     C_R   0.626894 0.689845 0.819517 0.041689
C115  C     C_R   0.127582 0.811389 0.819248 0.047651
C116  C     C_R   0.853339 0.154406 0.196652 0.016628
C117  C     C_R   0.873189 0.810114 0.180524 0.041862
C118  C     C_R   0.126884 0.189856 0.819508 0.042059
C119  C     C_R   0.678849 0.279928 0.771848 -0.099144
C120  C     C_R   0.322450 0.722238 0.227429 -0.103173
C121  C     C_R   0.322617 0.277978 0.227677 -0.098408
C122  C     C_R   0.677486 0.721843 0.772278 -0.101666
C123  C     C_R   0.177559 0.777813 0.772549 -0.102992
C124  C     C_R   0.798733 0.767660 0.323910 0.887493
C125  C     C_R   0.816474 0.210419 0.232367 -0.101912
C126  C     C_R   0.822644 0.777957 0.227675 -0.098436
C127  C     C_R   0.177455 0.221918 0.772295 -0.101183
C128  C     C_R   0.710075 0.265012 0.814948 -0.166023
C129  C     C_R   0.292524 0.739864 0.182818 -0.172473
C130  C     C_R   0.292373 0.261502 0.183465 -0.164073
C131  C     C_R   0.707835 0.738075 0.816383 -0.164922
C132  C     C_R   0.207495 0.760212 0.817137 -0.163313
C133  C     C_R   0.794911 0.243634 0.180930 -0.167916
C134  C     C_R   0.792441 0.761402 0.183419 -0.164841
C135  C     C_R   0.201283 0.232321 0.676089 0.885463
C136  C     C_R   0.207767 0.238247 0.816441 -0.164607
C137  C     C_R   0.693037 0.288808 0.902498 0.128400
C138  C     C_R   0.310367 0.717519 0.094457 0.145774
C139  C     C_R   0.311268 0.281653 0.093711 0.123777
C140  C     C_R   0.688974 0.717842 0.906105 0.136113
C141  C     C_R   0.189625 0.782455 0.905535 0.133427
C142  C     C_R   0.813806 0.223402 0.091432 0.153504
C143  C     C_R   0.811387 0.781439 0.093617 0.123462
C144  C     C_R   0.188909 0.217987 0.906153 0.137147
C145  C     C_R   0.691233 0.129250 0.535430 0.894933
C146  C     C_R   0.046438 0.368196 0.518581 0.127391
C147  C     C_R   0.308783 0.870737 0.464485 0.901968
C148  C     C_R   0.308796 0.129433 0.464444 0.902585
C149  C     C_R   0.691214 0.870574 0.535501 0.900783
C150  C     C_R   0.191198 0.629289 0.535663 0.903315
C151  C     C_R   0.808748 0.370773 0.464717 0.910966
C152  C     C_R   0.808775 0.629408 0.464616 0.902657
C153  C     C_R   0.191187 0.370548 0.535691 0.901314
C154  C     C_R   0.072531 0.101750 0.935337 0.928791
C155  C     C_R   0.927502 0.898207 0.064638 0.929599
C156  C     C_R   0.924217 0.096995 0.067377 0.943779
H1    H     H_    0.716468 0.999769 0.564519 0.196015
H2    H     H_    0.413498 0.182288 0.421056 0.180644
H3    H     H_    0.413380 0.818167 0.422169 0.180846
H4    H     H_    0.586670 0.181840 0.577351 0.181761
H5    H     H_    0.753160 0.380802 0.937526 0.187781
H6    H     H_    0.249686 0.626904 0.060652 0.195010
H7    H     H_    0.279768 0.375380 0.006964 0.179928
H8    H     H_    0.719961 0.624132 0.993701 0.183787
H9    H     H_    0.250357 0.873084 0.939382 0.187472
H10   H     H_    0.754907 0.133869 0.054647 0.195460
H11   H     H_    0.780331 0.875037 0.006119 0.180104
H12   H     H_    0.283505 0.000232 0.435447 0.194859
H13   H     H_    0.220291 0.124244 0.993095 0.184469
H14   H     H_    0.635673 0.355809 0.007720 0.165496
H15   H     H_    0.367201 0.649680 0.989538 0.164974
H16   H     H_    0.370601 0.346560 0.986403 0.166966
H17   H     H_    0.629543 0.653103 0.013477 0.166222
H18   H     H_    0.132742 0.850183 0.010546 0.165863
H19   H     H_    0.875246 0.163338 0.982274 0.165854
H20   H     H_    0.870773 0.846271 0.986257 0.167360
H21   H     H_    0.129554 0.153122 0.013458 0.165885
H22   H     H_    0.748135 0.236448 0.780234 0.157015
H23   H     H_    0.216707 0.499772 0.564254 0.196073
H24   H     H_    0.254755 0.769150 0.217047 0.154142
H25   H     H_    0.253599 0.234471 0.218994 0.151767
H26   H     H_    0.746636 0.765030 0.780814 0.153502
H27   H     H_    0.245291 0.730989 0.782871 0.157536
H28   H     H_    0.762111 0.282332 0.211111 0.155893
H29   H     H_    0.753657 0.734398 0.218955 0.151613
H30   H     H_    0.246531 0.265301 0.780921 0.153174
H31   H     H_    0.042859 0.258715 0.506146 0.181399
H32   H     H_    0.090157 0.301748 0.414083 0.193746
H33   H     H_    0.955004 0.741198 0.499899 0.181471
H34   H     H_    0.783786 0.500234 0.435077 0.194574
H35   H     H_    0.907645 0.697222 0.590981 0.194584
H36   H     H_    0.953977 0.259049 0.503248 0.181810
H37   H     H_    0.906815 0.303133 0.593575 0.192988
H38   H     H_    0.043739 0.741271 0.503568 0.181502
H39   H     H_    0.090952 0.698323 0.412166 0.192561
H40   H     H_    0.544218 0.758785 0.502401 0.181572
H41   H     H_    0.591538 0.802473 0.410993 0.193642
H42   H     H_    0.456052 0.241228 0.496814 0.181414
H43   H     H_    0.408743 0.197646 0.588339 0.194369
H44   H     H_    0.455442 0.758836 0.498965 0.181486
H45   H     H_    0.086388 0.317761 0.580268 0.180154
H46   H     H_    0.408217 0.802140 0.590002 0.193506
H47   H     H_    0.544843 0.241128 0.500167 0.181453
H48   H     H_    0.592067 0.197698 0.409256 0.192755
H49   H     H_    0.677255 0.030270 0.990695 0.363256
H50   H     H_    0.373453 0.900947 0.040001 0.356289
H51   H     H_    0.254597 0.029221 0.139523 0.364013
H52   H     H_    0.668255 0.920169 0.893992 0.346575
H53   H     H_    0.169027 0.524437 0.002012 0.362092
H54   H     H_    0.873861 0.409510 0.044594 0.357920
H55   H     H_    0.753807 0.529297 0.140768 0.361356
H56   H     H_    0.913356 0.682328 0.422678 0.180931
H57   H     H_    0.167483 0.419989 0.894723 0.347296
H58   H     H_    0.600591 0.351032 0.736524 0.219078
H59   H     H_    0.587872 0.260245 0.764094 0.194165
H60   H     H_    0.398594 0.646957 0.264543 0.219628
H61   H     H_    0.412786 0.737785 0.238377 0.192509
H62   H     H_    0.399527 0.351523 0.263782 0.219809
H63   H     H_    0.412621 0.260482 0.239820 0.193958
H64   H     H_    0.600399 0.648664 0.736304 0.220137
H65   H     H_    0.587433 0.739707 0.760368 0.192725
H66   H     H_    0.101425 0.853091 0.735431 0.219200
H67   H     H_    0.913143 0.318096 0.424397 0.184841
H68   H     H_    0.087219 0.762262 0.761583 0.194237
H69   H     H_    0.824677 0.082984 0.303478 0.197498
H70   H     H_    0.885763 0.124059 0.276895 0.223183
H71   H     H_    0.899446 0.851716 0.263863 0.220800
H72   H     H_    0.912622 0.760666 0.239992 0.193861
H73   H     H_    0.100420 0.148613 0.736281 0.220234
H74   H     H_    0.087419 0.239655 0.760322 0.192129
H75   H     H_    0.086497 0.681817 0.579207 0.180656
H76   H     H_    0.586538 0.817705 0.578541 0.180638
N1    N     N_3   0.050412 0.305305 0.466091 -0.444390
N2    N     N_3   0.410362 0.686461 0.214141 -0.438172
N3    N     N_3   0.410940 0.311801 0.214267 -0.437976
N4    N     N_3   0.589068 0.688339 0.785855 -0.438638
N5    N     N_3   0.089646 0.813580 0.785828 -0.437451
N6    N     N_3   0.861650 0.101859 0.252122 -0.434825
N7    N     N_3   0.910912 0.811949 0.214388 -0.438231
N8    N     N_3   0.089069 0.188299 0.785823 -0.439478
N9    N     N_3   0.947555 0.694293 0.539414 -0.443158
N10   N     N_3   0.946756 0.305962 0.542018 -0.444108
N11   N     N_3   0.051147 0.694768 0.464070 -0.445227
N12   N     N_3   0.551687 0.805596 0.462728 -0.444311
N13   N     N_3   0.448573 0.194452 0.536548 -0.443604
N14   N     N_3   0.448076 0.805468 0.538243 -0.444176
N15   N     N_3   0.552191 0.194451 0.460968 -0.444885
N16   N     N_3   0.589828 0.312169 0.787391 -0.438356
O1    O     O_R   0.746490 0.236330 0.638080 -0.626856
O2    O     O_R   0.325830 0.813840 0.483730 -0.647073
O3    O     O_R   0.325830 0.186160 0.483730 -0.647589
O4    O     O_R   0.674170 0.813840 0.516270 -0.647515
O5    O     O_R   0.174170 0.686160 0.516270 -0.647261
O6    O     O_R   0.825830 0.313840 0.483730 -0.645449
O7    O     O_R   0.825830 0.686160 0.483730 -0.647853
O8    O     O_R   0.174170 0.313840 0.516270 -0.647270
O9    O     O_R   0.739960 0.127620 0.525000 -0.626337
O10   O     O_R   0.260040 0.872380 0.475000 -0.621104
O11   O     O_R   0.260040 0.127620 0.475000 -0.620429
O12   O     O_R   0.253510 0.763670 0.361920 -0.628568
O13   O     O_R   0.739960 0.872380 0.525000 -0.620444
O14   O     O_R   0.239960 0.627620 0.525000 -0.619672
O15   O     O_R   0.760040 0.372380 0.475000 -0.620708
O16   O     O_R   0.760040 0.627620 0.475000 -0.620283
O17   O     O_R   0.239960 0.372380 0.525000 -0.619872
O18   O     O_R   0.680700 0.294870 0.629350 -0.643228
O19   O     O_R   0.319300 0.705130 0.370650 -0.643083
O20   O     O_R   0.319300 0.294870 0.370650 -0.644541
O21   O     O_R   0.680700 0.705130 0.629350 -0.644213
O22   O     O_R   0.180700 0.794870 0.629350 -0.643645
O23   O     O_R   0.253510 0.236330 0.361920 -0.626917
O24   O     O_R   0.819300 0.205130 0.370650 -0.645679
O25   O     O_R   0.819300 0.794870 0.370650 -0.644651
O26   O     O_R   0.180700 0.205130 0.629350 -0.644287
O27   O     O_R   0.062020 0.072840 0.007170 -0.633517
O28   O     O_R   0.937980 0.927160 0.992830 -0.633139
O29   O     O_R   0.937980 0.072840 0.992830 -0.634094
O30   O     O_R   0.062020 0.927160 0.007170 -0.630871
O31   O     O_R   0.562020 0.572840 0.007170 -0.631969
O32   O     O_R   0.437980 0.427160 0.992830 -0.631309
O33   O     O_R   0.437980 0.572840 0.992830 -0.630588
O34   O     O_R   0.746490 0.763670 0.638080 -0.626339
O35   O     O_R   0.562020 0.427160 0.007170 -0.631565
O36   O     O_R   0.947860 0.073950 0.109290 -0.606992
O37   O     O_R   0.052140 0.926050 0.890710 -0.606858
O38   O     O_R   0.052140 0.073950 0.890710 -0.605513
O39   O     O_R   0.947860 0.926050 0.109290 -0.604129
O40   O     O_R   0.447860 0.573950 0.109290 -0.606552
O41   O     O_R   0.552140 0.426050 0.890710 -0.607205
O42   O     O_R   0.552140 0.573950 0.890710 -0.606977
O43   O     O_R   0.447860 0.426050 0.109290 -0.606583
O44   O     O_2   0.655554 0.149355 0.960460 -0.618016
O45   O     O_R   0.246490 0.736330 0.638080 -0.626804
O46   O     O_R   0.702519 0.067269 0.994827 -0.785226
O47   O     O_2   0.304599 0.930405 0.002399 -0.618544
O48   O     O_R   0.354436 0.854687 0.038223 -0.797453
O49   O     O_2   0.320237 0.125263 0.079248 -0.605721
O50   O     O_R   0.241020 0.069202 0.114261 -0.795446
O51   O     O_2   0.754491 0.922464 0.888427 -0.614470
O52   O     O_R   0.673164 0.873908 0.922030 -0.796011
O53   O     O_2   0.152736 0.642444 0.960222 -0.619494
O54   O     O_R   0.194297 0.561169 0.006586 -0.787246
O55   O     O_2   0.809437 0.437776 0.996560 -0.615567
O56   O     O_R   0.753510 0.263670 0.361920 -0.633582
O57   O     O_R   0.854968 0.363192 0.042606 -0.803594
O58   O     O_2   0.819841 0.624856 0.079928 -0.604599
O59   O     O_R   0.740375 0.569337 0.115347 -0.797987
O60   O     O_2   0.253329 0.423366 0.890485 -0.614696
O61   O     O_R   0.172618 0.373673 0.922410 -0.797208
O62   O     O_R   0.753510 0.736330 0.361920 -0.626975
O63   O     O_R   0.246490 0.263670 0.638080 -0.626574
O64   O     O_R   0.674170 0.186160 0.516270 -0.648726
Zn1   Zn    Zn3+2 0.792340 0.208750 0.507670 0.933160
Zn2   Zn    Zn3+2 0.494040 0.500000 0.919480 0.958205
Zn3   Zn    Zn3+2 0.005960 0.000000 0.080520 0.956777
Zn4   Zn    Zn3+2 0.994040 0.000000 0.919480 0.958381
Zn5   Zn    Zn3+2 0.207660 0.791250 0.492330 0.932393
Zn6   Zn    Zn3+2 0.207660 0.208750 0.492330 0.935784
Zn7   Zn    Zn3+2 0.792340 0.791250 0.507670 0.937508
Zn8   Zn    Zn3+2 0.292340 0.708750 0.507670 0.936752
Zn9   Zn    Zn3+2 0.707660 0.291250 0.492330 0.931326
Zn10  Zn    Zn3+2 0.707660 0.708750 0.492330 0.935674
Zn11  Zn    Zn3+2 0.292340 0.291250 0.507670 0.937884
Zn12  Zn    Zn3+2 0.505960 0.500000 0.080520 0.957485

loop_
_geom_bond_atom_site_label_1
_geom_bond_atom_site_label_2
_ccdc_geom_bond_type
C28   C47   A    
C70   C140  S    
O41   Zn2   S    
C86   H13   S    
H37   N10   S    
C36   C42   A    
C113  O24   A    
C74   C83   A    
C72   C142  S    
C13   C18   A    
C62   O55   D    
C99   C143  A    
C16   C35   A    
O64   Zn9   S    
C60   O52   S    
C61   O53   D    
C91   O34   A    
C37   C42   A    
C67   C138  S    
H57   O61   S    
C131  C140  A    
C134  C143  A    
C87   H11   S    
C99   H20   S    
C10   C20   A    
C91   C122  S    
O38   Zn4   S    
C117  C126  A    
H50   O48   S    
O10   Zn5   S    
C135  O63   A    
O40   Zn12  S    
C119  C128  A    
C24   C51   A    
C100  C109  A    
C8    C16   A    
C5    O43   A    
C149  O13   A    
C55   C65   A    
C109  C118  A    
C66   C89   A    
C80   C121  S    
O20   Zn11  S    
C93   H14   S    
C115  C123  A    
C96   H17   S    
C145  O9    A    
C127  C136  A    
C100  C144  A    
C93   C101  A    
C30   C149  S    
C101  C110  A    
O22   Zn5   S    
C90   H8    S    
O31   Zn12  S    
C42   H34   S    
C133  H28   S    
C67   C88   A    
C109  C154  S    
C72   C84   A    
H72   N7    S    
C69   O12   A    
C55   H4    S    
C62   C81   S    
H65   N4    S    
H33   N9    S    
C20   C146  A    
H52   O52   S    
C102  C123  S    
C7    O35   A    
C115  N5    S    
C21   C30   A    
C34   C153  S    
C56   O46   S    
C68   C77   A    
C14   C57   A    
C136  H30   S    
C2    C19   A    
O26   Zn6   S    
C25   C55   A    
C155  O28   A    
C69   O19   A    
O63   Zn11  S    
C112  N3    S    
C95   C139  A    
C106  C115  A    
C85   H9    S    
C147  O10   A    
C9    C15   A    
C98   H19   S    
C108  C155  S    
C88   H6    S    
C46   C53   A    
C68   C92   A    
O24   Zn1   S    
C64   O60   D    
C126  C134  A    
O32   Zn2   S    
O5    Zn5   S    
C76   C85   A    
H32   N1    S    
C78   C87   A    
C11   C18   A    
O16   Zn10  S    
C123  C132  A    
C121  C130  A    
O34   Zn7   S    
C25   C43   A    
C71   C79   A    
C58   C76   S    
C32   C147  S    
C99   C108  A    
C60   C78   S    
C133  C142  A    
H51   O50   S    
H62   N3    S    
C132  H27   S    
C131  H26   S    
C1    O1    A    
C75   C84   A    
H42   N13   S    
C111  N2    S    
O39   Zn3   S    
C26   C45   A    
C54   H3    S    
C29   C38   A    
O56   Zn9   S    
C95   H16   S    
H55   O59   S    
C71   C141  S    
C62   O57   S    
C56   C75   S    
C98   C142  A    
C63   O58   D    
C64   O61   S    
C129  H24   S    
H38   N11   S    
C63   C82   S    
C51   H75   S    
C120  C129  A    
H63   N3    S    
C38   C41   A    
O19   Zn8   S    
C104  C112  A    
C36   C152  S    
O12   Zn5   S    
C59   O50   S    
C124  O25   A    
C13   N10   S    
C8    C12   A    
C10   C45   A    
C117  N7    S    
C153  O17   A    
C92   H7    S    
C116  C125  A    
C118  C127  A    
C122  C131  A    
C124  C126  S    
C29   C51   A    
O18   Zn9   S    
C27   C47   A    
C132  C141  A    
H39   N11   S    
C80   O20   A    
C108  C117  A    
C41   H23   S    
O6    Zn1   S    
C57   N14   S    
C130  H25   S    
C110  C119  A    
C96   C140  A    
O2    Zn8   S    
C26   C48   A    
H66   N5    S    
C112  C121  A    
C58   O47   D    
C145  O64   A    
O3    Zn11  S    
C28   C37   A    
C61   C79   S    
C113  O56   A    
C49   H56   S    
C30   C39   A    
C154  O38   A    
C4    O42   A    
C107  C116  A    
H48   N15   S    
C13   C50   A    
H47   N15   S    
O33   Zn2   S    
C15   C46   A    
H49   O46   S    
C27   C49   A    
C25   C33   A    
C54   C57   A    
C96   C105  A    
H60   N2    S    
C11   C47   A    
C8    C43   A    
H41   N12   S    
C34   C41   A    
C11   C19   A    
C53   H2    S    
C127  C135  S    
O36   Zn3   S    
C118  N8    S    
C31   C40   A    
C103  C111  A    
C1    C119  S    
C73   C87   A    
O35   Zn12  S    
C1    O18   A    
C124  O62   A    
C102  O45   A    
C72   C81   A    
C151  O15   A    
C81   C89   A    
C152  O16   A    
C146  N1    S    
H59   N16   S    
H69   N6    S    
C5    O32   A    
C130  C139  A    
H54   O57   S    
C89   H5    S    
C79   C88   A    
O21   Zn10  S    
C3    C106  S    
H46   N14   S    
C50   H67   S    
H36   N10   S    
C63   O59   S    
C156  O36   A    
C150  O5    A    
C60   O51   D    
C23   C44   A    
C6    O40   A    
C9    C14   A    
C64   C83   S    
C94   H15   S    
C56   O44   D    
C12   C15   A    
H71   N7    S    
C6    C103  S    
C97   C141  A    
C150  O14   A    
C151  O6    A    
C97   C106  A    
C94   C103  A    
C94   C138  A    
C6    O33   A    
C148  O11   A    
O4    Zn10  S    
C73   C82   A    
C73   C143  S    
C110  N16   S    
C3    O37   A    
C74   C144  S    
C148  O3    A    
C97   H18   S    
C102  O22   A    
H61   N2    S    
C152  O7    A    
O62   Zn10  S    
C27   C36   A    
C12   C65   A    
C69   C120  S    
C82   C90   A    
C80   O23   A    
C23   C32   A    
C136  C144  A    
O25   Zn7   S    
C7    O41   A    
C66   C75   A    
C61   O54   S    
C29   C45   A    
C35   C52   A    
O42   Zn2   S    
C4    O31   A    
C68   C139  S    
H58   N16   S    
H70   N6    S    
C70   C78   A    
H74   N8    S    
C59   C77   S    
C83   C92   A    
C33   C39   A    
H40   N12   S    
O43   Zn12  S    
C113  C125  S    
C10   C17   A    
C116  N6    S    
O13   Zn7   S    
C24   N11   S    
O14   Zn8   S    
C71   C85   A    
C28   C50   A    
C26   C34   A    
C22   C44   A    
C129  C138  A    
C48   C146  A    
O37   Zn4   S    
C147  O2    A    
O28   Zn4   S    
H68   N5    S    
C107  C156  S    
C65   N15   S    
C5    C104  S    
C35   N12   S    
C59   O49   D    
C39   H1    S    
C134  H29   S    
C70   C90   A    
C37   C151  S    
C100  H21   S    
C22   C53   A    
O8    Zn6   S    
C17   C24   A    
C22   C31   A    
H35   N9    S    
C105  C114  A    
C84   H10   S    
O29   Zn4   S    
H44   N14   S    
O30   Zn3   S    
C52   H76   S    
C3    O30   A    
C114  N4    S    
O27   Zn3   S    
C48   H45   S    
C111  C120  A    
C128  C137  A    
O17   Zn11  S    
C2    C49   A    
O9    Zn1   S    
O15   Zn9   S    
C58   O48   S    
H31   N1    S    
C74   C86   A    
H73   N8    S    
C33   C145  S    
C153  O8    A    
C77   C86   A    
C7    C101  S    
C14   C16   A    
C128  H22   S    
C31   C148  S    
C155  O39   A    
O45   Zn8   S    
C95   C104  A    
C23   C54   A    
O11   Zn6   S    
C125  C133  A    
C9    C44   A    
H64   N4    S    
C46   N13   S    
C91   O21   A    
C4    C105  S    
C135  O26   A    
H53   O54   S    
C156  O29   A    
C66   C137  S    
C149  O4    A    
C17   C19   A    
O23   Zn6   S    
C18   C20   A    
C32   C40   A    
C154  O27   A    
C2    N9    S    
O7    Zn7   S    
C40   H12   S    
C93   C137  A    
H43   N13   S    
O1    Zn1   S    
C114  C122  A    
C67   C76   A    
C38   C150  S    
C21   C52   A    
C21   C43   A    
C98   C107  A    
