data_mof_unit_38082.cif
_audit_creation_date              2012-12-11T15:16:38-0500
_audit_creation_method            fapswitch 2.2
_symmetry_space_group_name_H-M    P1
_symmetry_Int_Tables_number       1
_space_group_crystal_system       triclinic
_cell_length_a                    25.061993
_cell_length_b                    7.224131
_cell_length_c                    21.981465
_cell_angle_alpha                 90.00037
_cell_angle_beta                  110.426296
_cell_angle_gamma                 90.000067
_cell_volume                      3729.52861641

loop_
_atom_site_label
_atom_site_type_symbol
_atom_type_description
_atom_site_fract_x
_atom_site_fract_y
_atom_site_fract_z
_atom_type_partial_charge
O1    O     O_R   0.554350 0.505270 0.581390 -0.534384
O2    O     O_R   0.445650 0.005270 0.418610 -0.534379
O3    O     O_R   0.553380 0.177580 0.454800 -0.533123
O4    O     O_R   0.446620 0.677580 0.545200 -0.533126
C1    C     C_R   0.566391 0.345074 0.438865 0.694009
C2    C     C_R   0.433609 0.845075 0.561136 0.694011
O5    O     O_R   0.560970 0.175640 0.583140 -0.527972
O6    O     O_R   0.439030 0.675640 0.416860 -0.527977
O7    O     O_R   0.453290 0.004120 0.547860 -0.535699
O8    O     O_R   0.546710 0.504120 0.452140 -0.535701
C3    C     C_R   0.576147 0.344178 0.607695 0.760897
C4    C     C_R   0.423853 0.844176 0.392305 0.760899
O9    O     O_3   0.464660 0.338800 0.488280 -0.376633
O10   O     O_3   0.535340 0.838800 0.511720 -0.376632
V1    V     V_3+5 0.506560 0.064420 0.502170 1.481860
V2    V     V_3+5 0.493440 0.564420 0.497830 1.481846
C5    C     C_R   0.142967 0.884974 0.290346 -0.042064
C6    C     C_R   0.857033 0.384924 0.709655 -0.042063
C7    C     C_R   0.119081 0.936826 0.174059 -0.116720
C8    C     C_R   0.880920 0.436819 0.825940 -0.116722
C9    C     C_R   0.396880 0.840711 0.271006 0.014265
C10   C     C_R   0.603119 0.340755 0.728994 0.014268
C11   C     C_R   0.355450 0.848978 0.209028 -0.206460
C12   C     C_R   0.644548 0.349044 0.790972 -0.206460
C13   C     C_R   0.298080 0.870236 0.200048 -0.154927
C14   C     C_R   0.701919 0.370287 0.799952 -0.154927
C15   C     C_R   0.279055 0.885623 0.253192 0.105942
C16   C     C_R   0.720945 0.385637 0.746807 0.105943
C17   C     C_R   0.320751 0.874463 0.316882 -0.004857
C18   C     C_R   0.679249 0.374457 0.683118 -0.004859
C19   C     C_R   0.219763 0.905876 0.244678 0.087019
C20   C     C_R   0.780237 0.405875 0.755321 0.087019
C21   C     C_R   0.202463 0.899298 0.300058 -0.086604
C22   C     C_R   0.797537 0.399267 0.699942 -0.086606
C23   C     C_R   0.245317 0.906280 0.363102 -0.036323
C24   C     C_R   0.754684 0.406236 0.636898 -0.036327
C25   C     C_R   0.302845 0.888767 0.370364 -0.163685
C26   C     C_R   0.697155 0.388734 0.629636 -0.163683
C27   C     C_R   0.177086 0.931792 0.182532 -0.236700
C28   C     C_R   0.822914 0.431805 0.817467 -0.236699
C29   C     C_R   0.101859 0.909236 0.227680 0.197113
C30   C     C_R   0.898142 0.409198 0.772321 0.197116
C31   C     C_R   0.379904 0.853007 0.326085 -0.108686
C32   C     C_R   0.620095 0.353015 0.673915 -0.108684
H1    H     H_    0.187430 0.949594 0.139268 0.105001
H2    H     H_    0.812571 0.449628 0.860730 0.105002
H3    H     H_    0.269570 0.869808 0.150365 0.115132
H4    H     H_    0.730428 0.369877 0.849635 0.115132
H5    H     H_    0.367586 0.837893 0.166414 0.115536
H6    H     H_    0.632412 0.337987 0.833586 0.115536
H7    H     H_    0.334154 0.891818 0.418989 0.119988
H8    H     H_    0.665847 0.391773 0.581010 0.119992
C33   C     C_R   0.120380 0.763087 0.882071 -0.152265
C34   C     C_R   0.879620 0.263088 0.117929 -0.152264
H9    H     H_    0.105218 0.635503 0.896197 0.124307
H10   H     H_    0.894782 0.135504 0.103802 0.124308
C35   C     C_R   0.156156 0.751397 0.845541 -0.123133
C36   C     C_R   0.843845 0.251399 0.154459 -0.123131
H11   H     H_    0.167323 0.615582 0.832886 0.138008
H12   H     H_    0.832678 0.115584 0.167114 0.138007
C37   C     C_R   0.177054 0.912222 0.825566 0.021980
C38   C     C_R   0.822946 0.412223 0.174435 0.021979
C39   C     C_R   0.161176 0.085398 0.843308 -0.116819
C40   C     C_R   0.838824 0.585399 0.156692 -0.116820
H13   H     H_    0.176355 0.212388 0.828811 0.142278
H14   H     H_    0.823645 0.712389 0.171189 0.142278
C41   C     C_R   0.125338 0.097217 0.879965 -0.152721
C42   C     C_R   0.874662 0.597219 0.120035 -0.152725
H15   H     H_    0.113932 0.232958 0.892409 0.121851
H16   H     H_    0.886068 0.732959 0.107591 0.121851
C43   C     C_R   0.104393 0.936099 0.899900 -0.051143
C44   C     C_R   0.895607 0.436100 0.100100 -0.051145
N1    N     N_R   0.235080 0.053359 0.766511 -0.268537
N2    N     N_R   0.764920 0.553360 0.233490 -0.268536
N3    N     N_R   0.269045 0.040833 0.731572 -0.277419
N4    N     N_R   0.730955 0.540833 0.268429 -0.277419
C45   C     C_R   0.284699 0.873245 0.715042 0.541220
C46   C     C_R   0.715302 0.373245 0.284959 0.541218
N5    N     N_R   0.264387 0.718758 0.734776 -0.216924
N6    N     N_R   0.735614 0.218758 0.265224 -0.216925
N7    N     N_R   0.230419 0.731167 0.769713 -0.279226
N8    N     N_R   0.769581 0.231168 0.230287 -0.279227
C47   C     C_R   0.215023 0.898737 0.786465 0.506565
C48   C     C_R   0.784978 0.398738 0.213536 0.506565
C49   C     C_R   0.353742 0.699710 0.672880 0.229706
C50   C     C_R   0.646258 0.199709 0.327120 0.229707
C51   C     C_R   0.388814 0.698297 0.634763 -0.202154
C52   C     C_R   0.611186 0.198296 0.365237 -0.202142
H17   H     H_    0.413078 0.574705 0.634220 0.166873
H18   H     H_    0.586922 0.074704 0.365780 0.166879
C53   C     C_R   0.394266 0.854489 0.599083 -0.104351
C54   C     C_R   0.605734 0.354488 0.400918 -0.104349
C55   C     C_R   0.362238 0.015340 0.601277 0.250283
C56   C     C_R   0.637763 0.515338 0.398726 0.250272
C57   C     C_R   0.327329 0.016316 0.639040 -0.118285
C58   C     C_R   0.672672 0.516315 0.360963 -0.118289
H19   H     H_    0.303138 0.140512 0.639216 0.179975
H20   H     H_    0.696864 0.640511 0.360787 0.179974
C59   C     C_R   0.322508 0.861274 0.675385 -0.059011
C60   C     C_R   0.677492 0.361274 0.324616 -0.059009
O11   O     O_R   0.953220 0.285790 0.047790 -0.537329
O12   O     O_R   0.046780 0.785790 0.952210 -0.537330
O13   O     O_R   0.939020 0.617570 0.916840 -0.532503
O14   O     O_R   0.060980 0.117570 0.083160 -0.532505
C61   C     C_R   0.924103 0.448318 0.892210 0.687114
C62   C     C_R   0.075898 0.948319 0.107790 0.687114
O15   O     O_R   0.946600 0.615450 0.045180 -0.543130
O16   O     O_R   0.053400 0.115450 0.954820 -0.543131
O17   O     O_R   0.054370 0.786770 0.081410 -0.533212
O18   O     O_R   0.945630 0.286770 0.918590 -0.533215
C63   C     C_R   0.934382 0.446872 0.061793 0.677835
C64   C     C_R   0.065618 0.946872 0.938207 0.677834
O19   O     O_3   0.035300 0.454160 0.011680 -0.372483
O20   O     O_3   0.964700 0.954160 0.988320 -0.372483
V3    V     V_3+5 0.993450 0.728620 0.997830 1.403362
V4    V     V_3+5 0.006550 0.228620 0.002170 1.403360
N9    N     N_3   0.042264 0.898359 0.218511 -0.590416
H21   H     H_    0.022479 0.020777 0.196570 0.223694
H22   H     H_    0.024277 0.787566 0.187545 0.222706
N10   N     N_3   0.957736 0.398302 0.781491 -0.590415
H23   H     H_    0.977523 0.520724 0.803427 0.223692
H24   H     H_    0.975721 0.287517 0.812460 0.222711
N11   N     N_3   0.351128 0.538773 0.710184 -0.610456
H25   H     H_    0.372303 0.427196 0.698432 0.235875
H26   H     H_    0.373270 0.569820 0.758974 0.226250
N12   N     N_3   0.648872 0.038772 0.289816 -0.610455
H27   H     H_    0.627696 0.927196 0.301566 0.235875
H28   H     H_    0.626731 0.069820 0.241026 0.226250
N13   N     N_3   0.362160 0.178457 0.564108 -0.640898
H29   H     H_    0.353143 0.141744 0.515544 0.246064
H30   H     H_    0.402085 0.241473 0.582374 0.269866
N14   N     N_3   0.637842 0.678453 0.435896 -0.640898
H31   H     H_    0.646859 0.641738 0.484460 0.246059
H32   H     H_    0.597918 0.741472 0.417631 0.269865
C65   C     C_2   0.232570 0.954169 0.422297 0.351844
H33   H     H_    0.197241 0.045105 0.419061 0.083069
O21   O     O_2   0.261531 0.892965 0.475327 -0.521652
C66   C     C_2   0.767432 0.454102 0.577702 0.351852
H34   H     H_    0.802765 0.545021 0.580936 0.083067
O22   O     O_2   0.738468 0.392900 0.524672 -0.521651
C67   C     C_2   0.123224 0.817258 0.342894 0.443828
H35   H     H_    0.148312 0.715732 0.377476 0.051624
O23   O     O_2   0.079397 0.874845 0.348588 -0.475280
C68   C     C_2   0.876775 0.317176 0.657110 0.443825
H36   H     H_    0.851684 0.215648 0.622529 0.051618
O24   O     O_2   0.920605 0.374737 0.651415 -0.475278
C69   C     C_2   0.457047 0.818896 0.274548 0.301016
H37   H     H_    0.466417 0.809716 0.229997 0.055264
O25   O     O_2   0.496749 0.811068 0.326019 -0.555026
C70   C     C_2   0.542951 0.318957 0.725452 0.301012
H38   H     H_    0.533578 0.309851 0.770003 0.055264
O26   O     O_2   0.503252 0.311053 0.673981 -0.555025

loop_
_geom_bond_atom_site_label_1
_geom_bond_atom_site_label_2
_ccdc_geom_bond_type
C36   C38   A    
C61   O18   A    
C39   H13   S    
N12   H27   S    
C51   C53   A    
C50   N12   S    
O12   C64   A    
C69   H37   S    
O1    C3    A    
O2    C4    A    
C2    O7    A    
C10   C70   S    
O20   V3    S    
C65   H33   S    
O5    C3    A    
N2    N4    A    
C9    C69   S    
C10   C12   A    
C69   O25   D    
C12   C14   A    
N13   H29   S    
C4    C31   S    
N9    H22   S    
C25   H7    S    
C50   C52   A    
N11   H26   S    
C26   H8    S    
C57   C59   A    
C36   H12   S    
C2    C53   S    
C15   C17   A    
C18   C26   A    
C5    C67   S    
C37   C39   A    
C38   C40   A    
O12   V3    S    
C6    C30   A    
O14   V4    S    
C10   C32   A    
C52   C54   A    
N14   H31   S    
C58   H20   S    
C19   C21   A    
C45   C59   S    
C50   C60   A    
C13   H3    S    
C22   C24   A    
C14   H4    S    
C27   H1    S    
O19   V4    S    
C49   C51   A    
C44   C63   S    
O6    V2    S    
C9    C31   A    
C17   C31   A    
N1    N3    A    
C18   C32   A    
C5    C21   A    
C55   N13   S    
O14   C62   A    
N7    C47   A    
N10   H24   S    
C34   H10   S    
C33   H9    S    
C9    C11   A    
C12   H6    S    
C39   C41   A    
C15   C19   A    
N4    C46   A    
N11   H25   S    
C45   N5    A    
N6    N8    A    
C37   C47   S    
C23   C65   S    
N5    N7    A    
C33   C35   A    
C56   N14   S    
O16   C64   A    
C42   C44   A    
C41   H15   S    
C67   O23   D    
C20   C22   A    
O4    V2    S    
O13   V3    S    
C49   C59   A    
C53   C55   A    
C6    C22   A    
C16   C20   A    
O6    C4    A    
C43   C64   S    
C54   C56   A    
C46   N6    A    
C3    C32   S    
O13   C61   A    
O1    V2    S    
C56   C58   A    
O2    V1    S    
N3    C45   A    
O15   V3    S    
C7    C27   A    
N14   H32   S    
C68   O24   D    
C52   H18   S    
N8    C48   A    
C51   H17   S    
C46   C60   S    
C70   O26   D    
O4    C2    A    
C13   C15   A    
C28   H2    S    
C24   C26   A    
C33   C43   A    
C40   C42   A    
O18   V4    S    
O3    V1    S    
N10   H23   S    
C8    C61   S    
C34   C36   A    
C65   O21   D    
C38   C48   S    
N12   H28   S    
C23   C25   A    
O10   V1    S    
O15   C63   A    
N2    C48   A    
C68   H36   S    
O3    C1    A    
C8    C30   A    
C57   H19   S    
C35   C37   A    
C66   O22   D    
O11   C63   A    
C11   H5    S    
C14   C16   A    
O16   V4    S    
C6    C68   S    
O7    V1    S    
C16   C18   A    
O8    V2    S    
N9    H21   S    
C30   N10   S    
C55   C57   A    
C8    C28   A    
C58   C60   A    
O5    V1    S    
C21   C23   A    
C19   C27   A    
C49   N11   S    
C41   C43   A    
C20   C28   A    
C5    C29   A    
C1    C54   S    
C35   H11   S    
C66   H34   S    
O17   V3    S    
C7    C62   S    
C1    O8    A    
C11   C13   A    
C34   C44   A    
C42   H16   S    
O9    V2    S    
C17   C25   A    
O11   V4    S    
C70   H38   S    
C29   N9    S    
C67   H35   S    
C24   C66   S    
N1    C47   A    
C7    C29   A    
C40   H14   S    
N13   H30   S    
C62   O17   A    
