data_mof_unit_43212.cif
_audit_creation_date              2012-10-26T19:58:18-0400
_audit_creation_method            fapswitch 2.2
_symmetry_space_group_name_H-M    P1
_symmetry_Int_Tables_number       1
_space_group_crystal_system       triclinic
_cell_length_a                    7.466617
_cell_length_b                    8.678429
_cell_length_c                    13.331166
_cell_angle_alpha                 95.081027
_cell_angle_beta                  77.367799
_cell_angle_gamma                 103.420807
_cell_volume                      819.259857828

loop_
_atom_site_label
_atom_site_type_symbol
_atom_type_description
_atom_site_fract_x
_atom_site_fract_y
_atom_site_fract_z
_atom_type_partial_charge
C1    C     C_R   0.546766 0.800128 0.500742 0.571248
C2    C     C_R   0.336888 0.500221 0.808028 0.000625
C3    C     C_2   0.573200 0.968352 0.499870 -0.130485
C4    C     C_R   0.399643 0.498876 0.694820 0.557338
C5    C     C_2   0.430408 0.031432 0.492777 -0.146667
C6    C     C_R   0.455003 0.199750 0.495860 0.545855
C7    C     C_R   0.601233 0.507921 0.305790 0.529493
C8    C     C_R   0.864490 0.702719 0.063117 -0.138236
C9    C     C_R   0.665882 0.531402 0.195356 0.010641
C10   C     C_R   0.153040 0.420980 0.850508 -0.119004
C11   C     C_R   0.100258 0.394394 0.955248 -0.133570
C12   C     C_R   0.423395 0.503317 0.974914 0.015403
C13   C     C_R   0.234165 0.432632 0.016819 -0.131257
C14   C     C_1   0.017496 0.643581 0.603771 0.463737
C15   C     C_3   0.440472 0.285200 0.143874 -0.264818
C16   C     C_3   0.563501 0.174387 0.161811 -0.300352
C17   C     C_3   0.451517 0.003392 0.173837 -0.446201
C18   C     C_1   0.636119 0.798838 0.771636 0.216360
C19   C     C_R   0.464709 0.561646 0.874354 0.010474
C20   C     C_R   0.567287 0.533534 0.033557 0.029706
C21   C     C_R   0.732389 0.651609 0.000464 0.018017
C22   C     C_R   0.758445 0.726577 0.908682 -0.133049
C23   C     C_R   0.625413 0.685725 0.846896 -0.008792
C24   C     C_R   0.552633 0.455469 0.125512 -0.009197
C25   C     C_R   0.826707 0.648634 0.161932 -0.157757
Cu1   Cu    Cu3+1 0.321300 0.483160 0.488710 0.964425
Cu2   Cu    Cu3+1 0.678700 0.516840 0.511290 0.971661
H1    H     H_    0.918768 0.703553 0.213746 0.127992
H2    H     H_    0.331634 0.996107 0.240692 0.152512
H3    H     H_    0.397264 0.958184 0.103118 0.156166
H4    H     H_    0.543961 0.926891 0.186987 0.154840
H5    H     H_    0.683626 0.177660 0.095429 0.157256
H6    H     H_    0.620581 0.212687 0.232391 0.160338
H7    H     H_    0.321107 0.283404 0.210480 0.156198
H8    H     H_    0.382556 0.233341 0.075563 0.150088
H9    H     H_    0.293422 0.959229 0.485601 0.135480
H10   H     H_    0.991287 0.383453 0.418198 0.221577
H11   H     H_    0.878987 0.823813 0.887632 0.128217
H12   H     H_    0.989466 0.794246 0.038905 0.115111
H13   H     H_    0.050584 0.377591 0.802549 0.144424
H14   H     H_    0.186699 0.410870 0.097925 0.110640
H15   H     H_    0.956446 0.338743 0.988177 0.121513
H16   H     H_    0.710348 0.040614 0.506699 0.141121
N1    N     N_2   0.947230 0.542220 0.528320 -0.189866
N2    N     N_2   0.052770 0.457780 0.471680 -0.270128
N3    N     N_1   0.073946 0.728994 0.667148 -0.337168
N4    N     N_1   0.645438 0.893071 0.713540 -0.296170
O1    O     O_R   0.383920 0.714220 0.492660 -0.501340
O2    O     O_R   0.685730 0.742660 0.511730 -0.491410
O3    O     O_R   0.275440 0.478800 0.636790 -0.494656
O4    O     O_R   0.577250 0.507240 0.655860 -0.495513
O5    O     O_R   0.314270 0.257340 0.488270 -0.500059
O6    O     O_R   0.616080 0.285780 0.507340 -0.510285
O7    O     O_R   0.422750 0.492760 0.344140 -0.507323
O8    O     O_R   0.724560 0.521200 0.363210 -0.525151

loop_
_geom_bond_atom_site_label_1
_geom_bond_atom_site_label_2
_ccdc_geom_bond_type
C15   C16   S    
C2    C4    S    
Cu2   O6    S    
C1    O1    A    
C17   H3    S    
C8    H12   S    
Cu1   O5    S    
C16   H6    S    
C16   H5    S    
C17   H2    S    
C15   H7    S    
C19   C23   A    
C7    O7    A    
Cu1   O1    S    
C3    C5    D    
C6    O5    A    
C18   N4    T    
C12   C20   A    
C13   H14   S    
C8    C21   A    
C9    C25   A    
C14   N3    T    
C21   C22   A    
C20   C21   A    
C25   H1    S    
C8    C25   A    
C11   C13   A    
C3    H16   S    
Cu1   Cu2   S    
C7    O8    A    
Cu1   O7    S    
C12   C19   A    
C15   H8    S    
C15   C24   S    
Cu2   O4    S    
Cu1   O3    S    
C5    C6    S    
C17   H4    S    
Cu2   O8    S    
C10   C11   A    
C4    O4    A    
H10   N2    S    
C18   C23   S    
C2    C10   A    
C5    H9    S    
C20   C24   A    
N1    N2    D    
C11   H15   S    
C14   N1    S    
C7    C9    S    
C22   C23   A    
C10   H13   S    
C6    O6    A    
Cu1   N2    S    
C12   C13   A    
C2    C19   A    
C1    O2    A    
Cu2   N1    S    
C9    C24   A    
Cu2   O2    S    
C4    O3    A    
C16   C17   S    
C1    C3    S    
C22   H11   S    
