data_mof_unit_11237.cif
_audit_creation_date              2012-12-11T15:24:43-0500
_audit_creation_method            fapswitch 2.2
_symmetry_space_group_name_H-M    P1
_symmetry_Int_Tables_number       1
_space_group_crystal_system       triclinic
_cell_length_a                    22.99439
_cell_length_b                    6.956219
_cell_length_c                    20.711092
_cell_angle_alpha                 89.986455
_cell_angle_beta                  93.253232
_cell_angle_gamma                 89.973664
_cell_volume                      3307.48309804

loop_
_atom_site_label
_atom_site_type_symbol
_atom_type_description
_atom_site_fract_x
_atom_site_fract_y
_atom_site_fract_z
_atom_type_partial_charge
O1    O     O_R   0.188030 0.379840 0.189340 -0.542091
O2    O     O_R   0.811970 0.620160 0.810660 -0.542091
O3    O     O_R   0.311970 0.879840 0.310660 -0.541187
O4    O     O_R   0.688030 0.120160 0.689340 -0.541187
O5    O     O_R   0.307090 0.708420 0.185790 -0.532680
O6    O     O_R   0.692910 0.291580 0.814210 -0.532680
O7    O     O_R   0.192910 0.208420 0.314210 -0.532195
O8    O     O_R   0.807090 0.791580 0.685790 -0.532195
C1    C     C_R   0.326728 0.540764 0.170722 0.724691
C2    C     C_R   0.673272 0.459235 0.829278 0.724691
C3    C     C_R   0.173274 0.040791 0.329281 0.726937
C4    C     C_R   0.826725 0.959209 0.670719 0.726937
O9    O     O_R   0.188180 0.709480 0.181650 -0.542573
O10   O     O_R   0.811820 0.290520 0.818350 -0.542573
O11   O     O_R   0.311820 0.209480 0.318350 -0.544258
O12   O     O_R   0.688180 0.790520 0.681650 -0.544259
O13   O     O_R   0.192210 0.880960 0.306500 -0.537039
O14   O     O_R   0.807790 0.119040 0.693500 -0.537039
O15   O     O_R   0.307790 0.380960 0.193500 -0.537163
O16   O     O_R   0.692210 0.619040 0.806500 -0.537163
C5    C     C_R   0.167742 0.540626 0.165347 0.710264
C6    C     C_R   0.832258 0.459374 0.834653 0.710265
C7    C     C_R   0.332404 0.040509 0.334480 0.711019
C8    C     C_R   0.667596 0.959491 0.665520 0.711019
O17   O     O_3   0.251460 0.546730 0.290970 -0.367844
O18   O     O_3   0.748540 0.453270 0.709030 -0.367844
O19   O     O_3   0.248540 0.046730 0.209030 -0.368717
O20   O     O_3   0.751460 0.953270 0.790970 -0.368717
V1    V     V_3+5 0.249730 0.821120 0.242400 1.438204
V2    V     V_3+5 0.750270 0.178880 0.757600 1.438205
V3    V     V_3+5 0.250270 0.321120 0.257600 1.436847
V4    V     V_3+5 0.749730 0.678880 0.742400 1.436848
C9    C     C_R   0.582046 0.134736 0.612863 -0.213222
C10   C     C_R   0.417954 0.865264 0.387137 -0.213222
C11   C     C_R   0.921362 0.316938 0.892105 -0.218699
C12   C     C_R   0.078638 0.683062 0.107895 -0.218699
C13   C     C_R   0.618097 0.970729 0.616287 -0.083252
C14   C     C_R   0.381902 0.029271 0.383713 -0.083252
C15   C     C_R   0.881404 0.469803 0.884312 -0.080741
C16   C     C_R   0.118595 0.530197 0.115688 -0.080741
C17   C     C_R   0.606393 0.818370 0.572713 -0.215382
C18   C     C_R   0.393607 0.181630 0.427287 -0.215382
C19   C     C_R   0.889215 0.634474 0.923421 -0.211659
C20   C     C_R   0.110785 0.365526 0.076578 -0.211659
C21   C     C_R   0.559847 0.829946 0.525841 0.089020
C22   C     C_R   0.440153 0.170054 0.474159 0.089020
C23   C     C_R   0.935864 0.646439 0.970118 0.087674
C24   C     C_R   0.064136 0.353560 0.029882 0.087674
C25   C     C_R   0.523651 0.994117 0.523274 0.054590
C26   C     C_R   0.476349 0.005883 0.476726 0.054589
C27   C     C_R   0.976204 0.493822 0.976895 0.054464
C28   C     C_R   0.023795 0.506178 0.023105 0.054464
C29   C     C_R   0.534674 0.146570 0.567169 0.089046
C30   C     C_R   0.465326 0.853430 0.432831 0.089046
C31   C     C_R   0.969085 0.329000 0.937481 0.090814
C32   C     C_R   0.030915 0.671000 0.062519 0.090814
C33   C     C_R   0.548869 0.680379 0.481342 -0.175936
C34   C     C_R   0.451131 0.319621 0.518658 -0.175936
C35   C     C_R   0.942931 0.808423 0.010205 -0.184203
C36   C     C_R   0.057069 0.191577 0.989795 -0.184203
C37   C     C_R   0.502007 0.691900 0.435313 -0.190417
C38   C     C_R   0.497993 0.308100 0.564687 -0.190417
C39   C     C_R   0.989951 0.820422 0.056043 -0.182665
C40   C     C_R   0.010049 0.179578 0.943957 -0.182664
H1    H     H_    0.590337 0.252462 0.646428 0.123114
H2    H     H_    0.409663 0.747538 0.353572 0.123114
H3    H     H_    0.915983 0.190150 0.861918 0.121496
H4    H     H_    0.084016 0.809849 0.138082 0.121496
H5    H     H_    0.633949 0.691761 0.574699 0.133531
H6    H     H_    0.366051 0.308239 0.425301 0.133531
H7    H     H_    0.858551 0.752623 0.918021 0.132089
H8    H     H_    0.141449 0.247377 0.081978 0.132089
H9    H     H_    0.576328 0.553647 0.482388 0.139511
H10   H     H_    0.423672 0.446352 0.517612 0.139512
H11   H     H_    0.912267 0.926685 0.005835 0.138971
H12   H     H_    0.087733 0.073315 0.994165 0.138972
H13   H     H_    0.494255 0.573692 0.401860 0.132474
H14   H     H_    0.505745 0.426308 0.598140 0.132474
H15   H     H_    0.994487 0.947480 0.086165 0.135694
H16   H     H_    0.005513 0.052520 0.913835 0.135695
C41   C     C_3   0.037074 0.136821 0.519586 0.054625
C42   C     C_3   0.962926 0.863180 0.480414 0.054628
C43   C     C_3   0.462925 0.636988 0.980446 0.054805
C44   C     C_3   0.537075 0.363012 0.019554 0.054805
C45   C     C_3   0.022823 0.957240 0.559685 -0.215983
C46   C     C_3   0.977177 0.042760 0.440315 -0.215993
C47   C     C_3   0.477181 0.457517 0.940304 -0.216119
C48   C     C_3   0.522819 0.542483 0.059696 -0.216119
H17   H     H_    0.041770 0.923011 0.608842 0.125297
H18   H     H_    0.958230 0.076990 0.391158 0.125297
H19   H     H_    0.458239 0.423512 0.891138 0.125185
H20   H     H_    0.541761 0.576487 0.108862 0.125185
H21   H     H_    0.051349 0.690588 0.496533 0.148467
H22   H     H_    0.948651 0.309412 0.503467 0.148477
H23   H     H_    0.448655 0.190729 0.003388 0.148335
H24   H     H_    0.551345 0.809271 0.996612 0.148335
C49   C     C_1   0.872157 0.968658 0.624966 -0.160957
C50   C     C_1   0.127843 0.031342 0.375034 -0.160957
C51   C     C_1   0.627842 0.468731 0.875030 -0.161119
C52   C     C_1   0.372158 0.531269 0.124970 -0.161119
C53   C     C_3   0.971664 0.169452 0.501698 -0.217886
C54   C     C_3   0.028336 0.830548 0.498302 -0.217878
C55   C     C_3   0.528332 0.669378 0.998345 -0.217964
C56   C     C_3   0.471668 0.330622 0.001655 -0.217964
C57   C     C_3   0.957488 0.988204 0.540961 0.148088
C58   C     C_3   0.042512 0.011796 0.459039 0.148088
C59   C     C_3   0.542514 0.488237 0.959039 0.148146
C60   C     C_3   0.457486 0.511763 0.040961 0.148146
C61   C     C_1   0.910490 0.977219 0.587033 0.025116
C62   C     C_1   0.089510 0.022781 0.412967 0.025115
C63   C     C_1   0.589510 0.477286 0.912965 0.024847
C64   C     C_1   0.410490 0.522714 0.087035 0.024847
C65   C     C_2   0.077505 0.292882 0.543651 0.340039
H25   H     H_    0.068142 0.371756 0.587016 0.042660
O21   O     O_2   0.120773 0.332479 0.514883 -0.523249
C66   C     C_2   0.922496 0.707121 0.456347 0.340036
H26   H     H_    0.931855 0.628269 0.412975 0.042658
O22   O     O_2   0.879231 0.667504 0.485120 -0.523250
C67   C     C_2   0.422492 0.793233 0.956416 0.339850
H27   H     H_    0.431868 0.872278 0.913085 0.042561
O23   O     O_2   0.379210 0.832797 0.985177 -0.523277
C68   C     C_2   0.577507 0.206766 0.043584 0.339851
H28   H     H_    0.568132 0.127722 0.086915 0.042561
O24   O     O_2   0.620790 0.167203 0.014823 -0.523277

loop_
_geom_bond_atom_site_label_1
_geom_bond_atom_site_label_2
_ccdc_geom_bond_type
C34   C38   A    
C43   C47   S    
O1    C5    A    
C50   C62   T    
C47   H19   S    
O19   V1    S    
O13   V1    S    
O3    C7    A    
O1    V3    S    
O15   V3    S    
C10   H2    S    
C9    H1    S    
C39   H15   S    
C66   H26   S    
O7    C3    A    
C21   C33   A    
C26   C30   A    
C43   C55   S    
C3    C50   S    
O9    V1    S    
C14   C18   A    
O16   V4    S    
O4    C8    A    
C43   C67   S    
C18   H6    S    
C44   C59   S    
C43   C60   S    
O2    V4    S    
C18   C22   A    
C42   C57   S    
C33   H9    S    
O3    V1    S    
C12   C16   A    
C41   C65   S    
C1    O15   A    
C48   H20   S    
H22   C53   S    
C2    O16   A    
O2    C6    A    
C54   C58   S    
O14   V2    S    
C11   H3    S    
C16   C20   A    
O11   C7    A    
O12   C8    A    
C22   C34   A    
O17   V1    S    
C40   H16   S    
C46   C58   S    
O10   V2    S    
C45   C57   S    
C24   C36   A    
O5    V1    S    
C67   O23   D    
C9    C29   A    
C53   C57   S    
O7    V3    S    
O19   V3    S    
C27   C28   A    
O8    V4    S    
O20   V4    S    
C46   H18   S    
C37   H13   S    
C45   H17   S    
O18   V4    S    
C41   C53   S    
C42   C46   S    
C11   C31   A    
C36   H12   S    
C9    C13   A    
C60   C64   S    
C11   C15   A    
O5    C1    A    
C12   C32   A    
C49   C61   T    
C29   C38   A    
C21   C25   A    
O8    C4    A    
C51   C63   T    
C31   C40   A    
C8    C13   S    
C42   C54   S    
C32   C39   A    
O9    C5    A    
C33   C37   A    
C4    C49   S    
O6    V2    S    
C52   C64   T    
C1    C52   S    
C44   C56   S    
C68   O24   D    
C35   H11   S    
C56   C60   S    
C48   C55   S    
H23   C56   S    
C34   H10   S    
C17   H5    S    
C65   H25   S    
C58   C62   S    
C57   C61   S    
C41   C58   S    
C3    O13   A    
C19   H7    S    
C10   C14   A    
C59   C63   S    
O17   V3    S    
C38   H14   S    
C44   C48   S    
H21   C54   S    
O6    C2    A    
C23   C27   A    
C67   H27   S    
C12   H4    S    
O11   V3    S    
C30   C37   A    
O12   V4    S    
C7    C14   S    
C22   C26   A    
C35   C39   A    
C36   C40   A    
O10   C6    A    
O20   V2    S    
C42   C66   S    
C10   C30   A    
C5    C16   S    
C19   C23   A    
C25   C29   A    
C6    C15   S    
C66   O22   D    
C20   H8    S    
C27   C31   A    
C13   C17   A    
C2    C51   S    
O4    V2    S    
C23   C35   A    
C47   C56   S    
C48   C60   S    
C28   C32   A    
C24   C28   A    
C47   C59   S    
C15   C19   A    
C25   C26   A    
H24   C55   S    
C4    O14   A    
C17   C21   A    
C55   C59   S    
C68   H28   S    
C46   C53   S    
C44   C68   S    
C41   C45   S    
C45   C54   S    
C20   C24   A    
C65   O21   D    
O18   V2    S    
