data_mof_unit_29666.cif
_audit_creation_date              2012-12-10T17:00:41-0500
_audit_creation_method            fapswitch 2.2
_symmetry_space_group_name_H-M    P1
_symmetry_Int_Tables_number       1
_space_group_crystal_system       triclinic
_cell_length_a                    27.822395
_cell_length_b                    10.901428
_cell_length_c                    9.676208
_cell_angle_alpha                 90.732813
_cell_angle_beta                  89.512009
_cell_angle_gamma                 90.677128
_cell_volume                      2934.28331225

loop_
_atom_site_label
_atom_site_type_symbol
_atom_type_description
_atom_site_fract_x
_atom_site_fract_y
_atom_site_fract_z
_atom_type_partial_charge
C1    C     C_R   0.500382 0.265136 0.498798 0.865401
C2    C     C_R   0.279745 0.486070 0.369762 0.509775
C3    C     C_R   0.253526 0.507820 0.491746 0.249471
C4    C     C_R   0.101948 0.506546 0.484619 -0.043423
C5    C     C_R   0.127272 0.395420 0.481416 -0.028565
C6    C     C_R   0.101890 0.284391 0.476723 -0.151381
C7    C     C_R   0.127927 0.618165 0.489938 -0.030541
C8    C     C_R   0.354375 0.505626 0.500531 -0.173427
C9    C     C_R   0.645458 0.497572 0.497513 -0.118439
C10   C     C_R   0.974163 0.391963 0.472223 0.042795
C11   C     C_R   0.974736 0.618485 0.490204 0.042972
C12   C     C_R   0.407427 0.501791 0.500581 0.834560
C13   C     C_R   0.949212 0.504916 0.481262 0.067945
C14   C     C_R   0.946824 0.282004 0.459451 -0.204038
C15   C     C_R   0.896946 0.282705 0.459569 -0.147074
C16   C     C_R   0.872139 0.392808 0.471629 -0.022260
C17   C     C_R   0.898054 0.504248 0.481742 -0.043938
C18   C     C_R   0.872650 0.614970 0.492729 -0.024628
C19   C     C_R   0.822170 0.612161 0.494466 0.542744
C20   C     C_R   0.821694 0.394042 0.473463 0.538876
C21   C     C_R   0.722006 0.453327 0.604201 -0.206058
C22   C     C_R   0.671579 0.447394 0.607595 0.430801
C23   C     C_R   0.501394 0.734749 0.501131 0.858420
C24   C     C_R   0.670295 0.545319 0.382729 -0.303135
C25   C     C_R   0.720331 0.546823 0.378632 -0.100871
C26   C     C_R   0.746310 0.501387 0.489503 0.302842
C27   C     C_R   0.025264 0.392390 0.476040 0.043549
C28   C     C_R   0.050805 0.506037 0.482797 0.069648
C29   C     C_R   0.025882 0.619164 0.488057 0.043037
C30   C     C_R   0.052016 0.282585 0.474406 -0.201635
C31   C     C_R   0.103183 0.728707 0.492215 -0.146788
C32   C     C_R   0.947906 0.727839 0.502031 -0.203179
C33   C     C_R   0.898002 0.725819 0.503014 -0.146817
C34   C     C_R   0.592511 0.498881 0.499472 0.819482
C35   C     C_R   0.053296 0.729516 0.490936 -0.201455
C36   C     C_2   0.514083 0.930619 0.391199 -0.248103
C37   C     C_2   0.505043 0.866931 0.505904 -0.384078
C38   C     C_2   0.516829 0.065851 0.389778 0.462442
C39   C     C_2   0.498702 0.132536 0.496082 -0.402122
C40   C     C_2   0.465780 0.450088 0.922631 -0.040654
C41   C     C_2   0.470513 0.433229 0.076997 0.082033
C42   C     C_R   0.177707 0.397932 0.483854 0.567624
C43   C     C_R   0.178367 0.616582 0.492305 0.570710
C44   C     C_R   0.277213 0.527694 0.617051 -0.301741
C45   C     C_R   0.327543 0.529900 0.622379 0.423648
C46   C     C_R   0.330146 0.487413 0.374817 -0.403562
Cu1   Cu    Cu3+1 0.500010 0.500020 0.638630 0.947324
Cu2   Cu    Cu3+1 0.499990 0.499980 0.361370 0.969362
H1    H     H_    0.350401 0.473884 0.280072 0.183461
H2    H     H_    0.256376 0.541833 0.710868 0.160703
H3    H     H_    0.122337 0.815823 0.494946 0.185198
H4    H     H_    0.964145 0.817453 0.512461 0.135090
H5    H     H_    0.879318 0.812218 0.512441 0.185949
H6    H     H_    0.738987 0.583756 0.289442 0.154823
H7    H     H_    0.037540 0.819130 0.491147 0.134438
H8    H     H_    0.502349 0.909910 0.607123 0.153916
H9    H     H_    0.433445 0.415400 0.873244 0.163939
H10   H     H_    0.532666 0.508767 0.891302 0.237669
H11   H     H_    0.448642 0.362687 0.125528 0.069303
H12   H     H_    0.742482 0.420523 0.690639 0.144621
H13   H     H_    0.877850 0.195825 0.450181 0.186686
H14   H     H_    0.962639 0.192880 0.447908 0.135444
H15   H     H_    0.035723 0.192633 0.472965 0.134462
N1    N     N_R   0.202052 0.507478 0.489206 -0.434099
N2    N     N_R   0.797841 0.502684 0.485270 -0.455487
N3    N     N_2   0.499480 0.498660 0.846910 -0.272730
N4    N     N_2   0.499460 0.498630 0.153040 -0.014008
O1    O     O_R   0.500010 0.321960 0.617040 -0.595869
O2    O     O_2   0.796630 0.287593 0.462929 -0.544599
O3    O     O_2   0.203588 0.723055 0.497155 -0.541329
O4    O     O_2   0.797577 0.717793 0.506618 -0.537073
O5    O     O_R   0.499990 0.321920 0.382900 -0.556194
O6    O     O_R   0.430270 0.500040 0.617060 -0.548400
O7    O     O_R   0.430260 0.500000 0.382910 -0.590116
O8    O     O_R   0.500010 0.678080 0.617100 -0.591777
O9    O     O_R   0.499990 0.678040 0.382960 -0.559211
O10   O     O_R   0.569740 0.500000 0.617090 -0.541388
O11   O     O_R   0.569730 0.499960 0.382940 -0.618301
O12   O     O_2   0.202276 0.291883 0.481482 -0.555446
H16   H     H_    0.651008 0.582812 0.296523 0.164803
H17   H     H_    0.521470 0.881203 0.295553 0.174313
O13   O     O_3   0.542822 0.123168 0.285119 -0.590365
C47   C     C_3   0.518373 0.109308 0.158305 0.086234
H18   H     H_    0.482202 0.151790 0.165554 0.133936
H19   H     H_    0.514116 0.011314 0.127616 0.123719
C48   C     C_3   0.547624 0.172735 0.045026 -0.327502
H20   H     H_    0.551145 0.272194 0.069841 0.223136
H21   H     H_    0.584300 0.133405 0.040190 0.221838
C49   C     C_3   0.524002 0.155949 0.904202 -0.932934
H22   H     H_    0.523877 0.057625 0.872518 0.249231
H23   H     H_    0.544543 0.209215 0.826349 0.283201
H24   H     H_    0.486457 0.189311 0.907298 0.253553
O14   O     O_3   0.255234 0.475015 0.245680 -0.602616
C50   C     C_3   0.268566 0.368156 0.170287 0.069715
H25   H     H_    0.235246 0.314100 0.149414 0.182688
H26   H     H_    0.292935 0.305664 0.226617 0.135152
C51   C     C_3   0.291245 0.404531 0.031715 -0.341468
H27   H     H_    0.265129 0.458804 0.972197 0.233792
H28   H     H_    0.323679 0.462705 0.049633 0.219624
C52   C     C_3   0.305586 0.291803 0.946479 -0.880267
H29   H     H_    0.332771 0.238048 0.002437 0.241614
H30   H     H_    0.321396 0.320949 0.846277 0.284882
H31   H     H_    0.273597 0.232774 0.925445 0.261161
H32   H     H_    0.480200 0.091105 0.582832 0.117723
O15   O     O_3   0.510340 0.609354 0.098600 -0.518119
C53   C     C_3   0.559787 0.633406 0.118021 0.164400
H33   H     H_    0.581740 0.549938 0.098015 0.121484
H34   H     H_    0.566358 0.668248 0.224016 0.181562
C54   C     C_3   0.576075 0.734065 0.018607 -0.418992
H35   H     H_    0.570968 0.702633 0.910022 0.236651
H36   H     H_    0.553855 0.816964 0.036192 0.221909
C55   C     C_3   0.628869 0.768429 0.039409 -0.895874
H37   H     H_    0.634679 0.803517 0.146348 0.256653
H38   H     H_    0.639482 0.841383 0.965723 0.266569
H39   H     H_    0.651923 0.687323 0.020388 0.264379
H40   H     H_    0.120523 0.197647 0.475233 0.184630
O16   O     O_3   0.647473 0.398758 0.720790 -0.605737
C56   C     C_3   0.655715 0.271055 0.730360 0.034731
H41   H     H_    0.641896 0.241667 0.832942 0.173790
H42   H     H_    0.694611 0.248458 0.728078 0.149484
C57   C     C_3   0.628749 0.198008 0.617765 -0.351891
H43   H     H_    0.590890 0.228018 0.615237 0.229137
H44   H     H_    0.645357 0.216085 0.515069 0.224498
C58   C     C_3   0.629795 0.060355 0.644188 -0.868729
H45   H     H_    0.667480 0.027928 0.645677 0.269581
H46   H     H_    0.610270 0.010576 0.560601 0.270035
H47   H     H_    0.612052 0.039053 0.744463 0.248820
O17   O     O_3   0.350245 0.546747 0.748246 -0.611858
C59   C     C_3   0.345553 0.669628 0.795736 0.033142
H48   H     H_    0.341155 0.667660 0.909911 0.166299
H49   H     H_    0.313427 0.717405 0.755209 0.148772
C60   C     C_3   0.391193 0.743300 0.760991 -0.289913
H50   H     H_    0.422823 0.697198 0.805505 0.258975
H51   H     H_    0.395919 0.746987 0.646965 0.205489
C61   C     C_3   0.388907 0.874034 0.818695 -0.929691
H52   H     H_    0.357989 0.922964 0.774082 0.265243
H53   H     H_    0.422529 0.924434 0.791403 0.251551
H54   H     H_    0.385159 0.872993 0.933063 0.260628

loop_
_geom_bond_atom_site_label_1
_geom_bond_atom_site_label_2
_ccdc_geom_bond_type
C10   C27   A    
C61   H54   S    
C21   C26   A    
O14   C50   S    
C12   O7    A    
C22   O16   S    
Cu2   O9    S    
C19   O4    S    
C23   O9    A    
C5    C42   A    
O17   C59   S    
C55   H38   S    
C51   H27   S    
C39   H32   S    
C41   N4    D    
C3    N1    S    
C2    C46   A    
C46   H1    S    
C28   C29   A    
C54   H36   S    
C34   O10   A    
C5    C6    A    
C48   H21   S    
C9    C22   A    
C53   H33   S    
C45   O17   S    
C15   C16   A    
C14   H14   S    
C1    O1    A    
C18   C19   A    
Cu2   O11   S    
C56   H41   S    
C32   H4    S    
C57   C58   S    
C4    C28   A    
C8    C45   A    
C37   H8    S    
H10   N3    S    
Cu1   Cu2   S    
C60   H50   S    
C7    C43   A    
C49   H23   S    
Cu1   N3    S    
C16   C20   A    
C59   C60   S    
C42   O12   S    
C40   N3    D    
C21   C22   A    
C38   O13   S    
C27   C30   A    
Cu2   O5    S    
C4    C7    A    
C55   H37   S    
C51   H28   S    
C24   H16   S    
C43   N1    A    
C56   H42   S    
C33   H5    S    
C38   C39   D    
C3    C44   A    
C1    O5    A    
C7    C31   A    
C35   H7    S    
Cu2   O7    S    
C20   N2    A    
C61   H52   S    
C24   C25   A    
Cu1   O6    S    
C21   H12   S    
C10   C14   A    
C54   C55   S    
C23   O8    A    
C48   H20   S    
N4    O15   S    
C50   C51   S    
C25   C26   A    
C23   C37   S    
C48   C49   S    
C52   H31   S    
C56   C57   S    
C47   H18   S    
C36   H17   S    
C8    C12   S    
C6    H40   S    
C52   H30   S    
C17   C18   A    
C15   H13   S    
C25   H6    S    
C49   H24   S    
C50   H26   S    
C41   H11   S    
C57   H43   S    
C58   H47   S    
C40   C41   S    
C47   H19   S    
C11   C32   A    
C43   O3    S    
C9    C34   S    
C31   C35   A    
C20   O2    S    
Cu1   O10   S    
C42   N1    A    
Cu1   O1    S    
C51   C52   S    
C44   C45   A    
C58   H46   S    
C59   H48   S    
C44   H2    S    
C61   H53   S    
C36   C37   D    
C40   H9    S    
C6    C30   A    
C26   N2    S    
C2    O14   S    
C31   H3    S    
C4    C5    A    
C10   C13   A    
C9    C24   A    
O15   C53   S    
C29   C35   A    
C13   C17   A    
C32   C33   A    
C36   C38   S    
C2    C3    A    
Cu1   O8    S    
O16   C56   S    
C34   O11   A    
C11   C13   A    
C16   C17   A    
C53   H34   S    
C60   C61   S    
C30   H15   S    
C52   H29   S    
C19   N2    A    
Cu2   N4    S    
C50   H25   S    
C18   C33   A    
C8    C46   A    
C57   H44   S    
C1    C39   S    
C47   C48   S    
C11   C29   A    
C60   H51   S    
O13   C47   S    
C54   H35   S    
C27   C28   A    
C14   C15   A    
C49   H22   S    
C12   O6    A    
C55   H39   S    
C58   H45   S    
C59   H49   S    
C53   C54   S    
