data_mof_unit_36106.cif
_audit_creation_date              2012-12-11T17:14:55-0500
_audit_creation_method            fapswitch 2.2
_symmetry_space_group_name_H-M    P1
_symmetry_Int_Tables_number       1
_space_group_crystal_system       triclinic
_cell_length_a                    7.2292
_cell_length_b                    12.119068
_cell_length_c                    21.37847
_cell_angle_alpha                 90.018674
_cell_angle_beta                  90.435878
_cell_angle_gamma                 90.025637
_cell_volume                      1872.93820451

loop_
_atom_site_label
_atom_site_type_symbol
_atom_type_description
_atom_site_fract_x
_atom_site_fract_y
_atom_site_fract_z
_atom_type_partial_charge
O1    O     O_R   0.354460 0.152320 0.595720 -0.533526
O2    O     O_R   0.645540 0.847680 0.404280 -0.533638
O3    O     O_R   0.145540 0.652320 0.404280 -0.533426
O4    O     O_R   0.854460 0.347680 0.595720 -0.534220
O5    O     O_R   0.683670 0.140090 0.727290 -0.540532
O6    O     O_R   0.316330 0.859910 0.272710 -0.528064
O7    O     O_R   0.816330 0.640090 0.272710 -0.542155
O8    O     O_R   0.183670 0.359910 0.727290 -0.526862
O9    O     O_R   0.854010 0.349340 0.727750 -0.545534
O10   O     O_R   0.145990 0.650660 0.272250 -0.531996
O11   O     O_R   0.645990 0.849340 0.272250 -0.545405
O12   O     O_R   0.354010 0.150660 0.727750 -0.531871
C1    C     C_R   0.516359 0.112638 0.747075 0.712692
C2    C     C_R   0.483874 0.888495 0.253638 0.744654
C3    C     C_R   0.983608 0.612580 0.252929 0.712813
C4    C     C_R   0.016186 0.388548 0.746368 0.741628
O13   O     O_R   0.684170 0.139420 0.596190 -0.535035
O14   O     O_R   0.315830 0.860580 0.403810 -0.537378
O15   O     O_R   0.815830 0.639420 0.403810 -0.535415
O16   O     O_R   0.184170 0.360580 0.596190 -0.537685
C5    C     C_R   0.515189 0.113102 0.574470 0.711248
C6    C     C_R   0.484812 0.886905 0.425526 0.706886
C7    C     C_R   0.984782 0.613095 0.425532 0.712135
C8    C     C_R   0.015216 0.386909 0.574469 0.704583
O17   O     O_3   0.520730 0.319480 0.661730 -0.378272
O18   O     O_3   0.479270 0.680520 0.338270 -0.376875
O19   O     O_3   0.979270 0.819480 0.338270 -0.377617
O20   O     O_3   0.020730 0.180520 0.661730 -0.375188
V1    V     V_3+5 0.795560 0.238090 0.661730 1.428842
V2    V     V_3+5 0.204440 0.761910 0.338270 1.441416
V3    V     V_3+5 0.704440 0.738090 0.338270 1.423446
V4    V     V_3+5 0.295560 0.261910 0.661730 1.444123
C9    C     C_R   0.009868 0.468437 0.797519 -0.148897
C10   C     C_R   0.988493 0.536012 0.199955 -0.145613
C11   C     C_R   0.490595 0.968320 0.202520 -0.110994
C12   C     C_R   0.511534 0.036052 0.799997 -0.156713
C13   C     C_R   0.991035 0.657212 0.834423 0.235251
C14   C     C_R   0.995498 0.348594 0.159488 0.221778
C15   C     C_R   0.511475 0.156970 0.165329 0.224624
C16   C     C_R   0.506156 0.848537 0.840220 0.201251
C17   C     C_R   0.982307 0.581213 0.785256 0.152449
C18   C     C_R   0.007733 0.422045 0.210359 0.101026
C19   C     C_R   0.516949 0.081194 0.214883 0.088394
C20   C     C_R   0.492450 0.922096 0.789490 0.131810
C21   C     C_R   0.036014 0.430543 0.858802 0.113007
C22   C     C_R   0.968594 0.578213 0.138920 0.107403
C23   C     C_R   0.467091 0.930104 0.141149 0.109416
C24   C     C_R   0.532879 0.078118 0.861026 0.104966
C25   C     C_R   0.007288 0.503933 0.909777 0.018386
C26   C     C_R   0.985879 0.506699 0.086581 0.031594
C27   C     C_R   0.497002 0.003399 0.090204 -0.008024
C28   C     C_R   0.516181 0.006549 0.913339 0.037498
C29   C     C_R   0.006048 0.618983 0.896908 -0.015511
C30   C     C_R   0.979685 0.390972 0.098044 0.028577
C31   C     C_R   0.499047 0.118368 0.103125 0.048710
C32   C     C_R   0.521946 0.890808 0.901745 -0.008760
C33   C     C_R   0.985876 0.467726 0.972976 0.067636
C34   C     C_R   0.000955 0.544701 0.023119 0.098499
C35   C     C_R   0.517881 0.967367 0.026929 0.065705
C36   C     C_R   0.502647 0.044524 0.976880 0.104790
C37   C     C_R   0.038092 0.655705 0.007750 -0.139442
C38   C     C_R   0.939646 0.357935 0.987211 -0.224846
C39   C     C_R   0.467111 0.155705 0.992450 -0.178331
C40   C     C_R   0.563411 0.857574 0.012506 -0.212183
C41   C     C_R   0.028155 0.693095 0.946540 -0.208339
C42   C     C_R   0.947954 0.318960 0.047940 -0.150236
C43   C     C_R   0.478188 0.192820 0.053720 -0.175450
C44   C     C_R   0.554247 0.818724 0.951747 -0.165453
H1    H     H_    0.045447 0.780658 0.938569 0.135462
H2    H     H_    0.923440 0.231784 0.055397 0.174163
H3    H     H_    0.461900 0.280399 0.062263 0.173580
H4    H     H_    0.578534 0.731560 0.944193 0.175399
H5    H     H_    0.078171 0.716217 0.041825 0.165419
H6    H     H_    0.896417 0.300242 0.951694 0.160934
H7    H     H_    0.427125 0.216519 0.958555 0.169824
H8    H     H_    0.606936 0.799800 0.047902 0.160585
C45   C     C_1   0.995227 0.533110 0.478080 -0.166540
C46   C     C_1   0.004769 0.466900 0.521925 -0.164549
C47   C     C_1   0.504735 0.033118 0.521921 -0.165702
C48   C     C_1   0.495268 0.966898 0.478070 -0.164545
N1    N     N_3   0.909832 0.690604 0.131044 -0.694435
H9    H     H_    0.006830 0.742833 0.152294 0.244739
H10   H     H_    0.782964 0.701054 0.153308 0.233576
N2    N     N_3   0.125247 0.325161 0.866532 -0.678628
H11   H     H_    0.200219 0.321193 0.908355 0.236131
H12   H     H_    0.028038 0.261692 0.863261 0.218384
N3    N     N_3   0.592770 0.190348 0.868867 -0.693059
H13   H     H_    0.496049 0.242868 0.847768 0.245178
H14   H     H_    0.719564 0.200452 0.846490 0.233448
N4    N     N_3   0.378490 0.824546 0.133225 -0.680885
H15   H     H_    0.303148 0.820792 0.091479 0.237132
H16   H     H_    0.475992 0.761280 0.136273 0.219282
N5    N     N_3   0.032116 0.380039 0.272661 -0.684739
H17   H     H_    0.919086 0.404380 0.299588 0.226223
H18   H     H_    0.151891 0.415022 0.291920 0.232165
N6    N     N_3   0.956986 0.620748 0.722522 -0.610555
H19   H     H_    0.071529 0.597198 0.696101 0.212534
H20   H     H_    0.839461 0.582826 0.703479 0.221449
N7    N     N_3   0.467094 0.880202 0.727187 -0.663183
H21   H     H_    0.579514 0.904818 0.700042 0.230106
H22   H     H_    0.346839 0.915014 0.708227 0.235932
N8    N     N_3   0.538469 0.120846 0.277771 -0.671417
H23   H     H_    0.422403 0.097200 0.303403 0.221445
H24   H     H_    0.654978 0.083161 0.297615 0.231361
N9    N     N_3   0.983921 0.772716 0.819619 -0.606315
H25   H     H_    0.876705 0.808988 0.844709 0.244595
H26   H     H_    0.108171 0.809518 0.833570 0.217007
N10   N     N_3   0.997444 0.230782 0.169152 -0.671369
H27   H     H_    0.991312 0.209716 0.216420 0.274800
H28   H     H_    0.122696 0.200561 0.152183 0.229057
N11   N     N_3   0.516907 0.273305 0.178049 -0.668431
H29   H     H_    0.403206 0.293189 0.205786 0.252012
H30   H     H_    0.636497 0.290599 0.203965 0.276962
N12   N     N_3   0.508591 0.730769 0.830233 -0.662618
H31   H     H_    0.515840 0.710124 0.782919 0.286102
H32   H     H_    0.384859 0.698325 0.847169 0.224237

loop_
_geom_bond_atom_site_label_1
_geom_bond_atom_site_label_2
_ccdc_geom_bond_type
N3    H13   S    
O1    C5    A    
N5    H17   S    
C18   N5    S    
C9    C21   A    
O3    C7    A    
N11   H29   S    
C10   C18   A    
C11   C23   A    
N1    H9    S    
N4    H15   S    
C25   C33   A    
C33   C38   A    
C45   C46   T    
N9    H26   S    
C35   C40   A    
C26   C30   A    
C36   C39   A    
C40   C44   A    
O20   V1    S    
O9    C4    A    
N2    H12   S    
C14   C18   A    
O10   C3    A    
O4    C8    A    
C20   N7    S    
C25   C29   A    
C17   N6    S    
O13   V1    S    
N10   H27   S    
C28   C36   A    
C16   N12   S    
O16   C8    A    
C15   C31   A    
N6    H20   S    
O2    C6    A    
C43   H3    S    
C10   C22   A    
C11   C19   A    
C3    C10   S    
O5    C1    A    
O4    V1    S    
O9    V1    S    
C13   C29   A    
C34   C37   A    
C15   N11   S    
O15   V3    S    
C35   C36   A    
O8    C4    A    
C16   C32   A    
O12   V4    S    
O19   V2    S    
C14   N10   S    
N1    H10   S    
N12   H31   S    
O5    V1    S    
C15   C19   A    
C39   C43   A    
O7    V3    S    
C38   C42   A    
C26   C34   A    
N2    H11   S    
C1    C12   S    
C2    C11   S    
C23   C27   A    
C37   H5    S    
C32   C44   A    
O1    V4    S    
O13   C5    A    
O2    V3    S    
O8    V4    S    
O3    V2    S    
O15   C7    A    
C13   N9    S    
C4    C9    S    
O6    C2    A    
C22   N1    S    
O10   V2    S    
N4    H16   S    
N7    H21   S    
C14   C30   A    
C21   C25   A    
C44   H4    S    
N6    H19   S    
C5    C47   S    
C40   H8    S    
C24   N3    S    
N11   H30   S    
C7    C45   S    
N8    H24   S    
O14   V2    S    
C8    C46   S    
O6    V2    S    
C16   C20   A    
N3    H14   S    
C23   N4    S    
C12   C20   A    
C21   N2    S    
C27   C35   A    
C29   C41   A    
O16   V4    S    
N7    H22   S    
O14   C6    A    
O18   V3    S    
N12   H32   S    
C30   C42   A    
N9    H25   S    
C22   C26   A    
C9    C17   A    
C19   N8    S    
C6    C48   S    
C31   C43   A    
C33   C34   A    
C42   H2    S    
C39   H7    S    
O17   V4    S    
C41   H1    S    
O7    C3    A    
O11   C2    A    
N10   H28   S    
C12   C24   A    
C27   C31   A    
C13   C17   A    
N8    H23   S    
O11   V3    S    
C47   C48   T    
C37   C41   A    
C24   C28   A    
O12   C1    A    
N5    H18   S    
C38   H6    S    
C28   C32   A    
