data_mof_unit_37945.cif
_audit_creation_date              2013-03-05T16:12:10-0500
_audit_creation_method            fapswitch 2.2
_symmetry_space_group_name_H-M    P1
_symmetry_Int_Tables_number       1
_space_group_crystal_system       triclinic
_cell_length_a                    10.719746
_cell_length_b                    9.411241
_cell_length_c                    27.772876
_cell_angle_alpha                 90.141408
_cell_angle_beta                  89.817228
_cell_angle_gamma                 90.004224
_cell_volume                      2801.87471284

loop_
_atom_site_label
_atom_site_type_symbol
_atom_site_description
_atom_site_fract_x
_atom_site_fract_y
_atom_site_fract_z
_atom_type_partial_charge
O1    O     O_R   0.317570 0.620260 0.500030 -0.594699
O2    O     O_R   0.317570 0.379740 0.500030 -0.595396
C1    C     C_R   0.259661 0.499787 0.499870 0.761219
O3    O     O_R   0.499900 0.620250 0.430280 -0.592892
O4    O     O_R   0.499900 0.379750 0.430280 -0.580919
C2    C     C_R   0.498218 0.499974 0.407546 0.815991
Cu1   Cu    Cu3+1 0.499860 0.642410 0.500020 0.894118
Cu2   Cu    Cu3+1 0.499860 0.357590 0.500020 0.894977
O5    O     O_R   0.682190 0.620260 0.500010 -0.597350
O6    O     O_R   0.682190 0.379740 0.500010 -0.596732
O7    O     O_R   0.499860 0.620280 0.569750 -0.588996
O8    O     O_R   0.499860 0.379720 0.569750 -0.590036
C3    C     C_R   0.740107 0.499791 0.499862 0.765064
C4    C     C_R   0.500039 0.500131 0.592594 0.803751
C5    C     C_R   0.401961 0.566501 0.177492 0.536180
O9    O     O_2   0.301747 0.615488 0.201942 -0.540583
N1    N     N_R   0.504726 0.520184 0.202025 -0.462806
C6    C     C_R   0.609183 0.473894 0.178225 0.538933
C7    C     C_R   0.578178 0.605082 0.280760 -0.098472
C8    C     C_R   0.575848 0.598576 0.330854 -0.281154
C9    C     C_R   0.417978 0.412340 0.327361 0.138884
C10   C     C_R   0.421236 0.420347 0.276976 -0.098960
C11   C     C_R   0.501305 0.515633 0.253666 0.308552
C12   C     C_R   0.505425 0.512135 0.101828 -0.045722
C13   C     C_R   0.400226 0.562972 0.126976 -0.018195
C14   C     C_R   0.296923 0.611454 0.101139 -0.152270
C15   C     C_R   0.611908 0.470220 0.127686 -0.021661
C16   C     C_R   0.497569 0.501546 0.354616 -0.047382
H1    H     H_    0.361869 0.352051 0.255501 0.144715
H2    H     H_    0.217376 0.658191 0.119384 0.188005
C17   C     C_R   0.500831 0.500214 0.645610 -0.042430
C18   C     C_R   0.387483 0.511006 0.975004 0.023266
C19   C     C_R   0.615621 0.472413 0.974612 0.056290
C20   C     C_R   0.501627 0.492645 0.949494 0.029269
C21   C     C_R   0.273418 0.502730 0.948582 0.169579
C22   C     C_R   0.276315 0.508615 0.898270 -0.149339
C23   C     C_R   0.389223 0.506640 0.873011 -0.067490
C24   C     C_R   0.501877 0.493676 0.898433 -0.049258
C25   C     C_R   0.614883 0.481707 0.872671 -0.007060
C26   C     C_R   0.613064 0.484995 0.822143 0.531888
N2    N     N_R   0.502511 0.499141 0.798206 -0.468504
C27   C     C_R   0.391655 0.509702 0.822447 0.545098
C28   C     C_R   0.483671 0.627007 0.721638 -0.104010
C29   C     C_R   0.483257 0.627455 0.671409 -0.225549
C30   C     C_R   0.519361 0.372821 0.670958 -0.227258
C31   C     C_R   0.520522 0.372859 0.721154 -0.105505
C32   C     C_R   0.502490 0.499800 0.746610 0.363017
O10   O     O_2   0.284098 0.521723 0.797650 -0.537294
C33   C     C_R   0.393171 0.535925 0.025487 0.045131
C34   C     C_R   0.504189 0.503735 0.050823 0.069821
C35   C     C_R   0.614237 0.465083 0.025632 0.041802
C36   C     C_R   0.294568 0.600656 0.051193 -0.215448
H3    H     H_    0.468494 0.727085 0.652850 0.142579
H4    H     H_    0.469620 0.725428 0.741205 0.135486
H5    H     H_    0.188859 0.507435 0.878744 0.194295
H6    H     H_    0.215940 0.647456 0.033011 0.168557
O11   O     O_2   0.709396 0.429750 0.203393 -0.541143
C37   C     C_R   0.717786 0.423884 0.102628 -0.144501
H7    H     H_    0.636435 0.668516 0.351191 0.149839
H8    H     H_    0.639755 0.679639 0.262942 0.153107
H9    H     H_    0.800425 0.389293 0.121653 0.187030
C38   C     C_R   0.727517 0.461993 0.947748 -0.207865
C39   C     C_R   0.726941 0.466971 0.897752 -0.146858
O12   O     O_2   0.720797 0.474582 0.797097 -0.536802
C40   C     C_R   0.719516 0.422349 0.052532 -0.210185
H10   H     H_    0.817890 0.454417 0.964485 0.140081
H11   H     H_    0.533562 0.273283 0.652056 0.144427
H12   H     H_    0.815211 0.459257 0.878809 0.186408
C41   C     C_3   0.071482 0.574254 0.545628 -0.375188
C42   C     C_3   0.071292 0.344218 0.498932 -0.374705
H13   H     H_    0.105813 0.685806 0.547164 0.160827
H14   H     H_    0.105888 0.287416 0.466287 0.162865
H15   H     H_    0.106104 0.519058 0.578373 0.158604
H16   H     H_    0.105019 0.284915 0.531007 0.161408
C43   C     C_3   0.927528 0.574208 0.545635 -0.375765
C44   C     C_3   0.928540 0.344222 0.498888 -0.377179
H17   H     H_    0.892405 0.518916 0.578368 0.158904
H18   H     H_    0.894084 0.284683 0.530886 0.161109
H19   H     H_    0.893119 0.685736 0.547194 0.161263
H20   H     H_    0.894735 0.287639 0.466171 0.161594
H21   H     H_    0.106646 0.689396 0.454358 0.164129
H22   H     H_    0.107290 0.525155 0.421417 0.153666
H23   H     H_    0.893974 0.689503 0.454418 0.159722
H24   H     H_    0.893584 0.525313 0.421423 0.156663
C45   C     C_3   0.072242 0.577796 0.454734 -0.375323
C46   C     C_3   0.121732 0.499040 0.499781 0.157484
C47   C     C_3   0.878046 0.499044 0.499779 0.159397
C48   C     C_3   0.928259 0.577864 0.454746 -0.378148
C49   C     C_3   0.626165 0.083775 0.510839 -0.188068
C50   C     C_3   0.626093 0.916376 0.510998 -0.188081
H25   H     H_    0.693271 0.120749 0.482940 0.139079
H26   H     H_    0.693626 0.878475 0.483327 0.137642
H27   H     H_    0.443016 0.122095 0.574683 0.141042
H28   H     H_    0.441836 0.878247 0.574542 0.139327
C51   C     C_3   0.414948 0.084113 0.538385 -0.184135
C52   C     C_3   0.414564 0.916391 0.538249 -0.187162
C53   C     C_3   0.459032 0.083174 0.454214 -0.193288
C54   C     C_3   0.459595 0.916000 0.454093 -0.179990
N3    N     N_3   0.500250 0.143650 0.501060 -0.112693
N4    N     N_3   0.500250 0.856350 0.501060 -0.114727
H29   H     H_    0.363695 0.122231 0.445728 0.139885
H30   H     H_    0.364960 0.875625 0.445019 0.141442
H31   H     H_    0.318383 0.123316 0.532518 0.137173
H32   H     H_    0.317923 0.877720 0.532056 0.137156
C55   C     C_3   0.327263 0.311792 0.350882 -0.866427
H33   H     H_    0.260290 0.266947 0.324457 0.233064
H34   H     H_    0.379079 0.222099 0.366929 0.230211
H35   H     H_    0.272593 0.367850 0.379143 0.219129
H36   H     H_    0.534922 0.274197 0.740345 0.135213
H37   H     H_    0.803704 0.383205 0.035797 0.142614
H38   H     H_    0.660947 0.124034 0.546027 0.137419
H39   H     H_    0.660305 0.877164 0.546340 0.139472
H40   H     H_    0.521955 0.120339 0.424965 0.148791
H41   H     H_    0.523211 0.879151 0.424934 0.147259
C56   C     C_3   0.148931 0.464648 0.970875 -0.902547
H42   H     H_    0.100633 0.383998 0.948337 0.235533
H43   H     H_    0.159356 0.414929 0.006791 0.248001
H44   H     H_    0.088240 0.560058 0.972994 0.229709

loop_
_geom_bond_atom_site_label_1
_geom_bond_atom_site_label_2
_geom_bond_distance
_ccdc_geom_bond_type
C47   C48   1.550632 S    
C10   H1    1.083657 S    
N2    C27   1.367432 A    
C21   C22   1.398783 A    
C12   C15   1.407485 A    
C50   H39   1.112746 S    
C4    C17   1.472437 S    
C53   C54   1.573320 S    
Cu1   Cu2   2.680509 S    
C45   C46   1.550778 S    
Cu1   O7    1.948281 S    
C55   H34   1.105993 S    
N1    C11   1.435322 S    
C49   N3    1.488760 S    
C22   C23   1.397121 A    
C23   C24   1.406275 A    
C44   H18   1.113771 S    
O4    C2    1.297214 A    
O7    C4    1.297950 A    
C51   N3    1.490462 S    
C54   H41   1.111879 S    
C56   H42   1.111593 S    
C5    N1    1.368987 A    
C35   C40   1.414380 A    
C23   C27   1.404827 A    
C41   H13   1.113214 S    
O5    C3    1.292661 A    
C37   C40   1.391422 A    
C31   C32   1.399805 A    
C29   H3    1.082956 S    
C2    C16   1.470179 S    
C51   C52   1.578477 S    
C19   C38   1.413867 A    
C56   H43   1.108821 S    
C30   H11   1.083230 S    
C41   H15   1.113165 S    
C49   H25   1.112069 S    
H21   C45   1.113192 S    
C33   C36   1.411104 A    
C37   H9    1.083414 S    
H23   C48   1.113181 S    
H27   C51   1.111163 S    
O1    Cu1   1.965175 S    
C9    C10   1.401888 A    
C1    C46   1.478585 S    
O3    Cu1   1.947563 S    
C50   N4    1.488836 S    
C53   N3    1.487230 S    
C51   H31   1.111592 S    
C19   C20   1.422070 A    
C12   C34   1.418652 A    
C18   C33   1.422454 A    
C55   H35   1.110386 S    
Cu1   N4    2.013581 S    
C38   H10   1.078294 S    
C18   C21   1.430069 A    
C44   H20   1.113649 S    
C12   C13   1.407779 A    
O3    C2    1.294919 A    
C17   C29   1.406356 A    
C25   C26   1.403929 A    
C8    C16   1.404591 A    
C34   C35   1.416691 A    
C13   C14   1.398613 A    
C30   C31   1.394185 A    
O6    C3    1.289142 A    
O1    C1    1.292585 A    
C18   C20   1.422289 A    
C7    C11   1.398111 A    
C28   C29   1.395047 A    
C42   H16   1.113693 S    
C38   C39   1.389466 A    
C14   C36   1.390918 A    
C6    O11   1.349633 S    
C50   H26   1.112228 S    
Cu2   O8    1.947258 S    
C56   H44   1.110219 S    
C53   H29   1.112267 S    
C3    C47   1.478687 S    
N1    C6    1.369121 A    
N2    C32   1.432999 S    
C27   O10   1.349785 S    
C8    H7    1.083744 S    
H28   C52   1.110851 S    
C43   H17   1.113163 S    
C44   C47   1.554502 S    
C43   C47   1.550319 S    
C26   N2    1.367331 A    
C9    C16   1.416541 A    
O8    C4    1.297377 A    
C14   H2    1.083308 S    
C54   N4    1.487884 S    
C52   H32   1.111770 S    
C42   C44   1.530273 S    
C53   H40   1.111345 S    
C42   C46   1.554275 S    
C45   C48   1.543464 S    
Cu1   O5    1.965631 S    
C39   H12   1.083545 S    
C20   C24   1.418176 A    
Cu2   N3    2.013724 S    
O2    Cu2   1.965205 S    
C6    C15   1.404162 A    
H24   C48   1.113183 S    
C15   C37   1.398632 A    
O4    Cu2   1.948586 S    
C7    H8    1.082832 S    
C19   C35   1.418848 A    
H22   C45   1.112796 S    
C25   C39   1.397587 A    
C55   H33   1.110825 S    
C49   H38   1.112719 S    
C26   O12   1.349718 S    
C7    C8    1.392899 A    
O2    C1    1.289165 A    
C22   H5    1.084582 S    
C54   H30   1.112714 S    
C24   C25   1.409320 A    
C43   H19   1.113269 S    
C52   N4    1.490269 S    
C41   C43   1.543148 S    
C28   H4    1.083046 S    
C40   H37   1.078303 S    
C5    C13   1.403480 A    
C36   H6    1.078554 S    
C21   C56   1.512733 S    
Cu2   O6    1.965600 S    
C33   C34   1.417629 A    
C17   C30   1.406261 A    
C31   H36   1.083089 S    
C10   C11   1.399703 A    
C42   H14   1.113905 S    
C49   C50   1.575447 S    
C28   C32   1.399988 A    
C9    C55   1.505540 S    
C41   C46   1.550417 S    
C5    O9    1.349664 S    
