data_mof_unit_20866.cif
_audit_creation_date              2012-12-10T20:58:02-0500
_audit_creation_method            fapswitch 2.2
_symmetry_space_group_name_H-M    P1
_symmetry_Int_Tables_number       1
_space_group_crystal_system       triclinic
_cell_length_a                    18.228391
_cell_length_b                    18.207572
_cell_length_c                    18.366458
_cell_angle_alpha                 119.85382
_cell_angle_beta                  90.164962
_cell_angle_gamma                 119.912859
_cell_volume                      4319.30820954

loop_
_atom_site_label
_atom_site_type_symbol
_atom_type_description
_atom_site_fract_x
_atom_site_fract_y
_atom_site_fract_z
_atom_type_partial_charge
C1    C     C_R   0.356549 0.219970 0.360831 0.500810
C2    C     C_3   0.798073 0.941683 0.701676 -0.235243
C3    C     C_3   0.081119 0.701009 0.754552 -0.135396
C4    C     C_3   0.864218 0.478676 0.549794 -0.159727
C5    C     C_3   0.584947 0.109336 0.571082 -0.145673
C6    C     C_3   0.472976 0.792755 0.892366 -0.010804
C7    C     C_3   0.548174 0.908791 0.953573 -0.274493
C8    C     C_3   0.558542 0.951239 0.051380 -0.492966
C9    C     C_3   0.404235 0.456033 0.807929 0.005251
C10   C     C_3   0.493463 0.487129 0.790731 -0.230775
C11   C     C_3   0.569502 0.544624 0.874668 -0.506999
C12   C     C_3   0.491439 0.763333 0.397325 -0.123747
C13   C     C_3   0.699062 0.897531 0.698157 0.068822
C14   C     C_3   0.337354 0.710907 0.202159 0.007619
C15   C     C_3   0.359335 0.702509 0.119169 -0.259504
C16   C     C_3   0.353860 0.775806 0.105191 -0.485421
C17   C     C_R   0.641020 0.780998 0.639548 0.494718
C18   C     C_3   0.799561 0.102409 0.802091 0.067168
C19   C     C_3   0.753747 0.057759 0.854765 -0.243695
C20   C     C_3   0.857107 0.061112 0.763813 -0.228348
C21   C     C_3   0.677150 0.388327 0.240121 0.127111
C22   C     C_3   0.734653 0.387938 0.177406 -0.211577
C23   C     C_3   0.679968 0.528068 0.240807 -0.246318
C24   C     C_3   0.801450 0.575183 0.362339 0.118788
C25   C     C_3   0.345103 0.613853 0.328029 0.212835
C26   C     C_3   0.698918 0.500063 0.302798 0.045052
C27   C     C_3   0.801288 0.498857 0.201536 0.006313
C28   C     C_3   0.744040 0.533842 0.185847 -0.302029
C29   C     C_R   0.362637 0.503762 0.644191 0.536209
C30   C     C_3   0.861501 0.577235 0.302685 0.172279
C31   C     C_R   0.380831 0.161878 0.578787 -0.121691
C32   C     C_R   0.361358 0.117972 0.487460 -0.066236
C33   C     C_R   0.285801 0.097603 0.439304 0.068666
C34   C     C_R   0.229495 0.120334 0.483093 -0.079440
C35   C     C_R   0.248831 0.163401 0.574215 -0.064044
C36   C     C_3   0.300669 0.501417 0.302028 0.081165
C37   C     C_R   0.324495 0.184348 0.622068 -0.075955
C38   C     C_R   0.212371 0.943508 0.286842 -0.180582
C39   C     C_R   0.193774 0.892052 0.194980 -0.033289
C40   C     C_R   0.224473 0.948544 0.156952 -0.019011
C41   C     C_R   0.640776 0.500238 0.359583 0.526757
C42   C     C_R   0.264424 0.054608 0.211043 0.236800
C43   C     C_R   0.293409 0.107391 0.304845 0.004909
C44   C     C_R   0.264469 0.050313 0.342561 -0.078572
C45   C     C_R   0.310160 0.924270 0.052436 -0.096800
C46   C     C_R   0.318491 0.894141 0.968512 -0.176086
C47   C     C_3   0.199814 0.501701 0.199702 0.024602
C48   C     C_R   0.244960 0.842758 0.896019 -0.107649
C49   C     C_R   0.160837 0.819564 0.906624 0.301771
C50   C     C_R   0.154113 0.852765 0.991888 -0.006794
C51   C     C_R   0.228075 0.904270 0.064908 0.058605
C52   C     C_R   0.912088 0.693886 0.610238 -0.060766
C53   C     C_R   0.641849 0.498977 0.638916 0.519711
C54   C     C_R   0.857426 0.617635 0.624408 0.328629
C55   C     C_R   0.844980 0.647732 0.707984 0.074268
C56   C     C_R   0.888844 0.753562 0.776100 -0.113887
C57   C     C_R   0.942863 0.828577 0.760944 -0.115173
C58   C     C_3   0.150015 0.468841 0.257454 -0.258446
C59   C     C_R   0.954594 0.798778 0.678166 -0.137477
C60   C     C_R   0.841536 0.569302 0.784362 -0.180636
C61   C     C_R   0.799102 0.496514 0.804157 0.016879
C62   C     C_R   0.705024 0.421281 0.765933 0.008678
C63   C     C_R   0.656252 0.421871 0.709038 -0.135190
C64   C     C_R   0.698529 0.496969 0.691578 0.040477
C65   C     C_R   0.357955 0.500124 0.359385 0.552386
C66   C     C_R   0.792891 0.569969 0.727521 -0.017014
C67   C     C_R   0.622588 0.237836 0.720833 0.315168
C68   C     C_R   0.574879 0.165286 0.741877 -0.113236
C69   C     C_3   0.289372 0.612422 0.261682 0.186099
C70   C     C_R   0.557515 0.195919 0.822290 -0.146038
C71   C     C_R   0.587376 0.298600 0.883234 -0.119591
C72   C     C_R   0.635187 0.371315 0.864260 -0.119653
C73   C     C_R   0.654089 0.342033 0.784160 0.080232
C74   C     C_R   0.427273 0.821298 0.741102 -0.078575
C75   C     C_R   0.403865 0.746120 0.757345 0.330867
C76   C     C_R   0.313717 0.658437 0.719161 0.070661
C77   C     C_3   0.287841 0.430109 0.202103 -0.264240
C78   C     C_R   0.248572 0.650628 0.669055 -0.143366
C79   C     C_R   0.272809 0.726275 0.653773 -0.124987
C80   C     C_3   0.665268 0.940697 0.662567 -0.239890
C81   C     C_R   0.362052 0.811473 0.689726 -0.150800
C82   C     C_R   0.228777 0.572773 0.787395 -0.198500
C83   C     C_R   0.199039 0.501983 0.809468 -0.033681
C84   C     C_R   0.230821 0.438952 0.784986 -0.037067
C85   C     C_R   0.293577 0.450579 0.740620 0.225555
C86   C     C_R   0.313893 0.512119 0.708294 0.043252
C87   C     C_R   0.285119 0.578581 0.736807 -0.061582
C88   C     C_R   0.237194 0.377662 0.879388 -0.060905
C89   C     C_3   0.223207 0.424088 0.142135 -0.238861
C90   C     C_R   0.205213 0.298272 0.891429 -0.102073
C91   C     C_3   0.725327 0.060712 0.722404 -0.231586
C92   C     C_R   0.132130 0.197645 0.824836 -0.102490
C93   C     C_R   0.091254 0.175959 0.745728 -0.124881
C94   C     C_R   0.123414 0.254843 0.733014 -0.075687
C95   C     C_R   0.196784 0.356143 0.799673 0.102008
C96   C     C_R   0.857408 0.498872 0.142954 0.518663
C97   C     C_R   0.138709 0.499667 0.861696 0.506342
C98   C     C_R   0.856902 0.218995 0.861657 0.495726
C99   C     C_R   0.139426 0.779894 0.140936 0.488413
C100  C     C_R   0.855824 0.499451 0.861754 0.510368
C101  C     C_3   0.205692 0.459372 0.312024 0.097533
C102  C     C_3   0.697428 0.937751 0.794586 -0.234247
C103  C     C_R   0.140269 0.500344 0.142582 0.506947
C104  C     C_3   0.137658 0.453546 0.417617 -0.127270
C105  C     C_3   0.554391 0.215817 0.166318 -0.108011
C106  C     C_3   0.821687 0.738556 0.424218 0.027697
C107  C     C_3   0.893833 0.852266 0.498119 -0.258713
C108  C     C_3   0.879935 0.924252 0.489934 -0.501102
C109  C     C_3   0.917845 0.504193 0.346388 -0.120102
C110  C     C_3   0.226827 0.139055 0.175216 0.041971
C111  C     C_3   0.141866 0.056876 0.093063 -0.281458
C112  C     C_3   0.088799 0.098979 0.088691 -0.494996
H1    H     H_    0.260217 0.350423 0.182389 0.095692
H2    H     H_    0.824967 0.911772 0.725847 0.136051
H3    H     H_    0.388602 0.403771 0.829023 0.136981
H4    H     H_    0.412438 0.527220 0.864905 0.101584
H5    H     H_    0.487264 0.416238 0.737575 0.190328
H6    H     H_    0.509883 0.538338 0.768285 0.184352
H7    H     H_    0.578433 0.617471 0.927867 0.142491
H8    H     H_    0.633169 0.564623 0.859888 0.148161
H9    H     H_    0.554482 0.495209 0.898786 0.140739
H10   H     H_    0.498874 0.775701 0.463379 0.108211
H11   H     H_    0.465923 0.806022 0.393614 0.101163
H12   H     H_    0.559044 0.795824 0.390608 0.131973
H13   H     H_    0.353704 0.460209 0.191045 0.188377
H14   H     H_    0.388246 0.790224 0.262317 0.122227
H15   H     H_    0.270410 0.697526 0.196049 0.141189
H16   H     H_    0.428064 0.721006 0.125670 0.166090
H17   H     H_    0.310910 0.621663 0.059722 0.168072
H18   H     H_    0.284840 0.756411 0.095687 0.163286
H19   H     H_    0.370576 0.767675 0.044671 0.139841
H20   H     H_    0.402083 0.857450 0.163330 0.136516
H21   H     H_    0.801429 0.916079 0.633620 0.119853
H22   H     H_    0.891395 0.092564 0.726091 0.124539
H23   H     H_    0.910142 0.087533 0.819044 0.132940
H24   H     H_    0.724820 0.910879 0.822333 0.112055
H25   H     H_    0.805471 0.088158 0.913507 0.104331
H26   H     H_    0.696099 0.369918 0.283576 0.075076
H27   H     H_    0.769913 0.353308 0.178555 0.076345
H28   H     H_    0.689498 0.336576 0.107184 0.166882
H29   H     H_    0.273549 0.669342 0.303207 0.057735
H30   H     H_    0.609659 0.467377 0.193995 0.189808
H31   H     H_    0.254996 0.441764 0.096266 0.175929
H32   H     H_    0.703621 0.483497 0.114024 0.144693
H33   H     H_    0.805899 0.537590 0.392649 0.151514
H34   H     H_    0.896705 0.654683 0.315111 0.161419
H35   H     H_    0.683371 0.600290 0.277257 0.083514
H36   H     H_    0.788313 0.614132 0.203947 0.092103
H37   H     H_    0.339422 0.217902 0.692647 0.114893
H38   H     H_    0.439371 0.178228 0.616005 0.101211
H39   H     H_    0.405172 0.100411 0.454383 0.096790
H40   H     H_    0.136994 0.526757 0.302968 0.162183
H41   H     H_    0.160882 0.343686 0.100407 0.113362
H42   H     H_    0.170757 0.104476 0.446637 0.087073
H43   H     H_    0.205163 0.180545 0.607702 0.130922
H44   H     H_    0.188653 0.900609 0.316365 0.156568
H45   H     H_    0.368415 0.966016 0.108439 0.100703
H46   H     H_    0.382684 0.912946 0.959904 0.108097
H47   H     H_    0.255001 0.823420 0.832739 0.109929
H48   H     H_    0.090677 0.837754 0.001063 0.109533
H49   H     H_    0.996599 0.857007 0.666571 0.111583
H50   H     H_    0.172570 0.375404 0.283203 0.095686
H51   H     H_    0.594835 0.912448 0.660850 0.125546
H52   H     H_    0.921918 0.671736 0.546568 0.152088
H53   H     H_    0.881262 0.777831 0.841023 0.102260
H54   H     H_    0.976084 0.909927 0.813606 0.106127
H55   H     H_    0.913715 0.626198 0.812737 0.179887
H56   H     H_    0.584231 0.364019 0.679700 0.133666
H57   H     H_    0.551584 0.085209 0.697372 0.078280
H58   H     H_    0.521140 0.139833 0.837563 0.110081
H59   H     H_    0.573978 0.322054 0.945575 0.115132
H60   H     H_    0.083512 0.393009 0.214317 0.082067
H61   H     H_    0.659043 0.451119 0.912672 0.097809
H62   H     H_    0.665530 0.912252 0.593152 0.093757
H63   H     H_    0.380754 0.870128 0.677914 0.103896
H64   H     H_    0.495972 0.887959 0.768672 0.090652
H65   H     H_    0.178834 0.585774 0.642016 0.085186
H66   H     H_    0.222207 0.719120 0.614475 0.116805
H67   H     H_    0.207770 0.624431 0.809445 0.146236
H68   H     H_    0.293489 0.455471 0.931677 0.075890
H69   H     H_    0.237285 0.314426 0.952109 0.090588
H70   H     H_    0.342072 0.659201 0.395688 0.115487
H71   H     H_    0.107323 0.136395 0.834411 0.096954
H72   H     H_    0.034876 0.097902 0.694222 0.090363
H73   H     H_    0.756392 0.090145 0.682423 0.118002
H74   H     H_    0.091418 0.237085 0.671286 0.085272
H75   H     H_    0.141796 0.393766 0.415732 0.111017
H76   H     H_    0.073159 0.416381 0.368866 0.087917
H77   H     H_    0.137668 0.503328 0.484553 0.136929
H78   H     H_    0.554457 0.215813 0.226867 0.120404
H79   H     H_    0.595571 0.189879 0.132401 0.085393
H80   H     H_    0.484190 0.158897 0.119801 0.168411
H81   H     H_    0.754833 0.722255 0.427548 0.151445
H82   H     H_    0.827575 0.727586 0.360160 0.100219
H83   H     H_    0.892336 0.866111 0.564047 0.168233
H84   H     H_    0.682902 0.088984 0.747136 0.137953
H85   H     H_    0.961042 0.870361 0.494211 0.164326
H86   H     H_    0.884148 0.913586 0.425421 0.145024
H87   H     H_    0.932814 0.006097 0.544734 0.135866
H88   H     H_    0.813329 0.908089 0.494202 0.137508
H89   H     H_    0.848424 0.434020 0.313928 0.070108
H90   H     H_    0.935860 0.545837 0.419698 0.119338
H91   H     H_    0.962413 0.478220 0.326350 0.131911
H92   H     H_    0.264611 0.210588 0.177031 0.175663
H93   H     H_    0.208073 0.160161 0.236843 0.102610
H94   H     H_    0.160384 0.030873 0.031804 0.188820
H95   H     H_    0.627443 0.905389 0.794844 0.148244
H96   H     H_    0.098530 0.989558 0.096091 0.142667
H97   H     H_    0.070492 0.126967 0.149836 0.135506
H98   H     H_    0.026253 0.036473 0.030061 0.146392
H99   H     H_    0.128972 0.163685 0.081633 0.137184
H100  H     H_    0.097082 0.650302 0.756558 0.113865
H101  H     H_    0.124933 0.741513 0.726731 0.117684
H102  H     H_    0.011640 0.650014 0.708754 0.128144
H103  H     H_    0.875426 0.476867 0.608263 0.131659
H104  H     H_    0.929473 0.526123 0.544024 0.071421
H105  H     H_    0.828569 0.398139 0.489318 0.138196
H106  H     H_    0.709416 0.082908 0.880196 0.117946
H107  H     H_    0.513754 0.082224 0.563695 0.096337
H108  H     H_    0.598541 0.059146 0.577105 0.105506
H109  H     H_    0.595633 0.102187 0.509089 0.138209
H110  H     H_    0.487723 0.751421 0.911808 0.146919
H111  H     H_    0.407910 0.778116 0.902329 0.117448
H112  H     H_    0.612610 0.921999 0.943495 0.165798
H113  H     H_    0.533251 0.951616 0.936517 0.143269
H114  H     H_    0.495562 0.940610 0.063796 0.138869
H115  H     H_    0.613483 0.035330 0.093769 0.134016
H116  H     H_    0.575428 0.910976 0.070413 0.145926
O1    O     O_3   0.500000 0.500000 0.500000 -0.461052
O2    O     O_R   0.113800 0.731630 0.056520 -0.554638
O3    O     O_R   0.819390 0.439310 0.886160 -0.534199
O4    O     O_R   0.383400 0.268380 0.323710 -0.506484
O5    O     O_R   0.115110 0.560720 0.179280 -0.557857
O6    O     O_R   0.941380 0.560750 0.885620 -0.550994
O7    O     O_R   0.115110 0.439270 0.057830 -0.546252
O8    O     O_R   0.942690 0.268390 0.886930 -0.547655
O9    O     O_R   0.114340 0.731630 0.178520 -0.555329
O10   O     O_R   0.820160 0.439310 0.057830 -0.561985
O11   O     O_R   0.113800 0.560730 0.885620 -0.547921
O12   O     O_R   0.383400 0.560740 0.616060 -0.524405
O13   O     O_R   0.555060 0.731630 0.615290 -0.539393
O14   O     O_R   0.383950 0.439280 0.616600 -0.503575
O15   O     O_R   0.677590 0.560710 0.444390 -0.510215
O16   O     O_R   0.556370 0.439260 0.616600 -0.572941
O17   O     O_R   0.382640 0.439290 0.322940 -0.575985
O18   O     O_R   0.678360 0.560700 0.616060 -0.513906
O19   O     O_R   0.382640 0.560750 0.444390 -0.503173
O20   O     O_3   0.212823 0.515783 0.402885 -0.559010
O21   O     O_3   0.584438 0.314526 0.187970 -0.542856
O22   O     O_3   0.834603 0.676241 0.439124 -0.567333
O23   O     O_R   0.555060 0.439270 0.322940 -0.497308
O24   O     O_3   0.934665 0.573074 0.323327 -0.542429
O25   O     O_3   0.284083 0.106463 0.170627 -0.544179
O26   O     O_3   0.085443 0.772775 0.838696 -0.584233
O27   O     O_3   0.809973 0.514077 0.554261 -0.564181
O28   O     O_3   0.645706 0.213969 0.643639 -0.567085
O29   O     O_3   0.470747 0.754011 0.803190 -0.584032
O30   O     O_3   0.334613 0.400377 0.728044 -0.552717
O31   O     O_3   0.435115 0.656538 0.328063 -0.537663
O32   O     O_3   0.339640 0.637785 0.208684 -0.537455
O33   O     O_R   0.383950 0.268380 0.445700 -0.540294
O34   O     O_R   0.677590 0.731610 0.615290 -0.550608
O35   O     O_3   0.997750 0.500010 0.002220 -0.439025
O36   O     O_R   0.942690 0.560750 0.179280 -0.491825
O37   O     O_R   0.114340 0.439270 0.886160 -0.537341
O38   O     O_R   0.820160 0.268410 0.886930 -0.541292
Zn1   Zn    Zn3+2 0.456040 0.586770 0.543190 0.957910
Zn2   Zn    Zn3+2 0.456820 0.413240 0.543960 0.935439
Zn3   Zn    Zn3+2 0.631110 0.586750 0.543190 0.958904
Zn4   Zn    Zn3+2 0.456040 0.413240 0.369660 0.946095
Zn5   Zn    Zn3+2 0.041710 0.413240 0.959030 0.923345
Zn6   Zn    Zn3+2 0.866640 0.413270 0.959030 0.929391
Zn7   Zn    Zn3+2 0.040930 0.586780 0.958260 0.919633
Zn8   Zn    Zn3+2 0.041710 0.586770 0.132560 0.931450

loop_
_geom_bond_atom_site_label_1
_geom_bond_atom_site_label_2
_ccdc_geom_bond_type
C5    H109  S    
C55   C56   A    
C109  O24   S    
C93   C94   A    
C4    H104  S    
C7    H112  S    
C78   H65   S    
C2    H2    S    
C54   O27   S    
C105  H79   S    
C25   C69   S    
C100  O6    A    
C111  C112  S    
C105  H80   S    
C53   O16   A    
C38   H44   S    
C21   C26   S    
O18   Zn3   S    
C11   H7    S    
C55   C66   S    
C107  H83   S    
O1    Zn1   S    
C7    C8    S    
C106  H82   S    
C45   C46   A    
C3    H102  S    
C74   H64   S    
C32   H39   S    
C77   C89   S    
O6    Zn7   S    
C41   O15   A    
C6    O29   S    
C59   H49   S    
C18   C91   S    
C81   H63   S    
C5    O28   S    
C6    H110  S    
C101  H50   S    
C35   C37   A    
C76   C78   A    
C18   C19   S    
C58   C101  S    
C36   C77   S    
C82   C87   A    
C21   O21   S    
C38   C39   A    
C24   C26   S    
C19   C102  S    
C57   C59   A    
C5    H108  S    
C106  C107  S    
C45   C51   A    
C110  O25   S    
C69   H29   S    
C15   C16   S    
C46   H46   S    
C22   H28   S    
C8    H115  S    
C56   C57   A    
C110  H92   S    
C34   C35   A    
C68   H57   S    
C23   C26   S    
C17   O34   A    
C16   H19   S    
C2    C13   S    
C53   O18   A    
C47   C69   S    
C23   H30   S    
C110  C111  S    
O1    Zn3   S    
C1    C43   S    
C75   O29   S    
C52   C54   A    
C104  O20   S    
C15   H17   S    
C56   H53   S    
C93   H72   S    
C107  C108  S    
O13   Zn1   S    
C62   C73   S    
C30   H34   S    
C70   C71   A    
C67   C73   A    
C12   O31   S    
O14   Zn2   S    
C85   O30   S    
C40   C42   A    
C16   H18   S    
C102  H95   S    
C29   O12   A    
C61   C62   A    
O19   Zn1   S    
O9    Zn8   S    
O35   Zn5   S    
C65   O19   A    
C88   C95   A    
C17   O13   A    
C103  O5    A    
C4    H103  S    
C21   C22   S    
C27   C30   S    
C108  H86   S    
C47   C89   S    
O12   Zn1   S    
C27   C96   S    
C11   H9    S    
C105  O21   S    
C21   H26   S    
C77   H1    S    
C11   H8    S    
O23   Zn4   S    
O1    Zn2   S    
C58   H40   S    
C88   H68   S    
C106  H81   S    
C24   C30   S    
C34   H42   S    
C8    H116  S    
C104  H76   S    
C48   H47   S    
C46   C48   A    
C28   H36   S    
C2    H21   S    
C47   C103  S    
C74   C75   A    
C2    C20   S    
C67   C68   A    
C60   H55   S    
C112  H99   S    
C109  H91   S    
C45   H45   S    
C84   C85   A    
O33   Zn2   S    
C10   C11   S    
C39   C40   A    
C79   C81   A    
C31   H38   S    
C8    H114  S    
C36   C65   S    
C57   H54   S    
C7    H113  S    
C42   O25   S    
O35   Zn7   S    
C89   H31   S    
C23   H35   S    
C22   H27   S    
O35   Zn6   S    
O8    Zn5   S    
O36   Zn8   S    
C14   H15   S    
C31   C37   A    
C60   C61   A    
O16   Zn2   S    
C84   C95   S    
C9    H3    S    
C108  H88   S    
C58   H60   S    
C75   C76   A    
O15   Zn3   S    
C80   H51   S    
C38   C44   A    
C62   C63   A    
C10   H6    S    
C52   C59   A    
O1    Zn4   S    
O37   Zn5   S    
C90   C92   A    
C83   C84   A    
C12   H12   S    
C90   H69   S    
C19   H25   S    
O35   Zn8   S    
O3    Zn6   S    
C41   O23   A    
C33   C34   A    
C79   H66   S    
C98   O8    A    
C50   C51   A    
C19   H106  S    
C72   H61   S    
O10   Zn6   S    
C111  H94   S    
C64   C66   A    
C29   C86   S    
C100  O3    A    
C52   H52   S    
C69   O32   S    
C28   H32   S    
C97   O37   A    
C48   C49   A    
C88   C90   A    
C4    H105  S    
C15   H16   S    
O11   Zn7   S    
O2    Zn7   S    
C67   O28   S    
C43   C44   A    
C49   C50   A    
C1    O33   A    
C61   C100  S    
C23   C28   S    
C42   C43   A    
C99   O9    A    
C74   C81   A    
C99   O2    A    
C77   H13   S    
C25   H70   S    
C107  H85   S    
C6    H111  S    
C9    C10   S    
C3    H100  S    
C104  H75   S    
C65   O17   A    
C54   C55   A    
C109  H90   S    
C82   H67   S    
C103  O7    A    
C9    H4    S    
C86   C87   A    
C33   C44   S    
C96   O10   A    
C105  H78   S    
C31   C32   A    
C94   H74   S    
C37   H37   S    
C72   C73   A    
C92   H71   S    
C85   C86   A    
O7    Zn5   S    
C76   C87   S    
C63   H56   S    
C6    C7    S    
C3    H101  S    
C40   C51   S    
C14   H14   S    
C13   C17   S    
C22   C27   S    
C50   H48   S    
C112  H97   S    
C71   H59   S    
C108  H87   S    
C24   O22   S    
O17   Zn4   S    
C70   H58   S    
C3    O26   S    
C80   H62   S    
C71   C72   A    
C10   H5    S    
O38   Zn6   S    
C32   C33   A    
C47   C58   S    
C49   O26   S    
C78   C79   A    
C1    O4    A    
C106  O22   S    
C5    H107  S    
C12   H11   S    
C98   O38   A    
C80   C91   S    
O5    Zn8   S    
O4    Zn4   S    
C109  H89   S    
C92   C93   A    
C53   C64   S    
C30   O24   S    
C110  H93   S    
C18   C20   S    
C20   H23   S    
C91   H73   S    
C94   C95   A    
C16   H20   S    
C102  H24   S    
C13   C80   S    
C89   H41   S    
C24   H33   S    
C25   C36   S    
C60   C66   A    
C63   C64   A    
C25   O31   S    
C39   C99   S    
C12   H10   S    
C96   O36   A    
C82   C83   A    
C83   C97   S    
C29   O14   A    
C27   C28   S    
C68   C70   A    
C97   O11   A    
C14   C15   S    
C36   C101  S    
C14   O32   S    
C18   C98   S    
C4    O27   S    
C20   H22   S    
C13   C102  S    
C9    O30   S    
C101  O20   S    
C104  H77   S    
C111  H96   S    
C35   H43   S    
C26   C41   S    
C112  H98   S    
O34   Zn3   S    
C91   H84   S    
