data_mof_unit_51290.cif
_audit_creation_date              2012-12-10T17:51:30-0500
_audit_creation_method            fapswitch 2.2
_symmetry_space_group_name_H-M    P1
_symmetry_Int_Tables_number       1
_space_group_crystal_system       triclinic
_cell_length_a                    14.620644
_cell_length_b                    14.741961
_cell_length_c                    17.143764
_cell_angle_alpha                 106.201248
_cell_angle_beta                  74.163124
_cell_angle_gamma                 115.24295
_cell_volume                      3158.73981714

loop_
_atom_site_label
_atom_site_type_symbol
_atom_type_description
_atom_site_fract_x
_atom_site_fract_y
_atom_site_fract_z
_atom_type_partial_charge
C1    C     C_R   0.118395 0.687959 0.518433 0.856413
C2    C     C_R   0.881524 0.311743 0.485227 0.825860
C3    C     C_R   0.183390 0.795072 0.544376 -0.194011
C4    C     C_R   0.816053 0.202597 0.474887 -0.285938
C5    C     C_R   0.217227 0.958897 0.635694 -0.093277
C6    C     C_R   0.775498 0.030248 0.399074 -0.107961
C7    C     C_R   0.151841 0.857479 0.616508 0.295687
C8    C     C_R   0.843164 0.131109 0.409168 0.316696
C9    C     C_R   0.281013 0.835499 0.497457 0.449618
C10   C     C_R   0.722139 0.169176 0.529963 0.423799
C11   C     C_R   0.356778 0.924081 0.533432 -0.076462
C12   C     C_R   0.643072 0.075334 0.505239 0.006732
C13   C     C_R   0.320245 0.992240 0.595502 -0.070954
C14   C     C_R   0.676201 0.001993 0.446126 -0.102881
C15   C     C_R   0.464903 0.948156 0.508026 -0.129396
C16   C     C_R   0.534772 0.049695 0.537261 -0.088510
C17   C     C_R   0.492291 0.122949 0.590074 0.377273
C18   C     C_R   0.505092 0.871790 0.459661 0.377623
C19   C     C_R   0.384506 0.093762 0.613518 0.283248
C20   C     C_R   0.612427 0.899906 0.437424 0.282720
C21   C     C_R   0.326648 0.394665 0.327714 0.408991
C22   C     C_R   0.704445 0.664559 0.650668 0.376984
C23   C     C_R   0.987650 0.499460 0.652047 0.866225
C24   C     C_R   0.011014 0.498734 0.347374 0.905170
C25   C     C_R   0.227318 0.391796 0.366400 -0.194349
C26   C     C_R   0.785907 0.630905 0.624657 -0.128801
C27   C     C_R   0.281709 0.475760 0.494391 0.602887
C28   C     C_R   0.718315 0.524032 0.505128 0.690481
C29   C     C_R   0.386530 0.491377 0.458409 -0.217601
C30   C     C_R   0.637255 0.561778 0.524897 -0.188400
C31   C     C_R   0.407982 0.446799 0.373946 -0.117716
C32   C     C_R   0.626127 0.626105 0.602637 -0.202007
C33   C     C_R   0.469269 0.545508 0.504679 -0.145588
C34   C     C_R   0.564720 0.533773 0.471805 -0.054206
C35   C     C_R   0.589626 0.506997 0.385234 0.335348
C36   C     C_R   0.464314 0.617743 0.579347 0.351715
C37   C     C_R   0.510823 0.458256 0.336859 0.334087
C38   C     C_R   0.539298 0.653557 0.629179 0.432452
C39   C     C_R   0.972721 0.485358 0.735793 -0.116451
C40   C     C_R   0.017637 0.501664 0.261321 -0.141079
C41   C     C_R   0.966522 0.393200 0.749785 0.274544
C42   C     C_R   0.981647 0.566054 0.241938 0.323586
C43   C     C_R   0.954890 0.382189 0.831731 0.270199
C44   C     C_R   0.984194 0.563143 0.158272 0.276430
C45   C     C_R   0.940246 0.459632 0.897168 -0.060831
C46   C     C_R   0.029585 0.501970 0.096041 -0.053101
C47   C     C_R   0.938548 0.548032 0.882857 0.395022
C48   C     C_R   0.070002 0.441928 0.115513 0.369347
C49   C     C_R   0.955660 0.560596 0.801574 -0.377640
C50   C     C_R   0.062767 0.441488 0.198463 -0.377847
C51   C     C_2   0.939764 0.454547 0.981591 0.526859
C52   C     C_2   0.029557 0.496677 0.009015 0.500806
Cu1   Cu    Cu3+1 0.916740 0.524770 0.521640 1.007416
Cu2   Cu    Cu3+1 0.083260 0.475230 0.478360 0.988316
H1    H     H_    0.845271 0.660177 0.661581 0.176842
H2    H     H_    0.164739 0.354924 0.332331 0.167003
H3    H     H_    0.091144 0.393012 0.214019 0.161142
H4    H     H_    0.956876 0.629466 0.789397 0.163879
H5    H     H_    0.189710 0.009132 0.686675 0.213158
H6    H     H_    0.799210 0.974683 0.351239 0.217144
N1    N     N_R   0.208390 0.438070 0.445820 -0.249253
N2    N     N_R   0.791610 0.561930 0.554180 -0.250829
O1    O     O_R   0.020090 0.662480 0.528530 -0.578430
O2    O     O_R   0.979910 0.337520 0.471470 -0.574044
O3    O     O_R   0.160710 0.620650 0.491980 -0.550611
O4    O     O_R   0.839290 0.379350 0.508020 -0.570899
O5    O     O_R   0.921540 0.523360 0.633990 -0.630005
O6    O     O_R   0.078460 0.476640 0.366010 -0.620177
O7    O     O_R   0.062170 0.481520 0.597440 -0.506831
O8    O     O_R   0.937830 0.518480 0.402560 -0.474134
O9    O     O_3   0.968983 0.315406 0.682942 -0.764166
H7    H     H_    0.931171 0.249119 0.701612 0.331081
O10   O     O_3   0.948207 0.632845 0.305252 -0.676411
H8    H     H_    0.959406 0.693411 0.284042 0.336815
O11   O     O_3   0.553514 0.225400 0.609928 -0.595024
C53   C     C_3   0.546549 0.259071 0.696927 0.121702
H9    H     H_    0.573438 0.216327 0.723850 0.190681
H10   H     H_    0.467671 0.249846 0.730274 0.160300
C54   C     C_3   0.612730 0.372551 0.714843 -0.774197
H11   H     H_    0.609546 0.399686 0.782441 0.205261
H12   H     H_    0.693890 0.387058 0.684693 0.276508
H13   H     H_    0.583914 0.416472 0.691140 0.221108
O12   O     O_3   0.439448 0.769678 0.439870 -0.584203
C55   C     C_3   0.468596 0.722669 0.357350 0.107538
H14   H     H_    0.513535 0.678379 0.357858 0.176250
H15   H     H_    0.514197 0.778353 0.315088 0.147248
C56   C     C_3   0.374962 0.645716 0.320061 -0.728668
H16   H     H_    0.342765 0.683735 0.293452 0.254419
H17   H     H_    0.398423 0.590280 0.268881 0.190950
H18   H     H_    0.315228 0.604274 0.367229 0.284087
O13   O     O_3   0.535570 0.428959 0.252096 -0.549419
C57   C     C_3   0.563821 0.343885 0.234926 0.110563
H19   H     H_    0.505856 0.282676 0.268962 0.141983
H20   H     H_    0.640311 0.367210 0.250943 0.168491
C58   C     C_3   0.572044 0.299787 0.143039 -0.718816
H21   H     H_    0.623789 0.360637 0.107051 0.258802
H22   H     H_    0.603552 0.239220 0.127961 0.202138
H23   H     H_    0.495063 0.265738 0.125522 0.253997
O14   O     O_3   0.531217 0.723027 0.701625 -0.521012
C59   C     C_3   0.457340 0.670118 0.762876 0.148571
H24   H     H_    0.471124 0.602839 0.766925 0.118545
H25   H     H_    0.378630 0.644571 0.750091 0.187080
C60   C     C_3   0.463258 0.741367 0.846397 -0.738290
H26   H     H_    0.451818 0.810421 0.844367 0.249925
H27   H     H_    0.402519 0.701655 0.894336 0.201997
H28   H     H_    0.539367 0.764651 0.863173 0.260725
O15   O     O_3   0.722638 0.446368 0.438345 -0.514658
C61   C     C_3   0.646532 0.352989 0.458190 0.055924
H29   H     H_    0.567804 0.350782 0.465116 0.115304
H30   H     H_    0.654701 0.340954 0.516473 0.216364
C62   C     C_3   0.658320 0.265022 0.389871 -0.741792
H31   H     H_    0.738467 0.269116 0.376140 0.253879
H32   H     H_    0.605581 0.191229 0.409053 0.199379
H33   H     H_    0.638880 0.267877 0.332884 0.215355
O16   O     O_3   0.251633 0.490202 0.578963 -0.543037
C63   C     C_3   0.228591 0.398351 0.604492 0.083921
H34   H     H_    0.286523 0.363037 0.573273 0.105525
H35   H     H_    0.151853 0.342506 0.591186 0.203113
C64   C     C_3   0.227233 0.419847 0.696793 -0.689388
H36   H     H_    0.193541 0.346839 0.719668 0.214742
H37   H     H_    0.181248 0.466989 0.730461 0.269007
H38   H     H_    0.306874 0.461234 0.709179 0.198109
O17   O     O_3   0.345403 0.344182 0.246731 -0.533239
C65   C     C_3   0.293226 0.355602 0.193784 0.070694
H39   H     H_    0.287198 0.431719 0.210212 0.130956
H40   H     H_    0.214972 0.294731 0.195577 0.145351
C66   C     C_3   0.351436 0.344521 0.105670 -0.748467
H41   H     H_    0.350876 0.265989 0.083864 0.238585
H42   H     H_    0.314335 0.358922 0.064387 0.205480
H43   H     H_    0.432056 0.400503 0.102585 0.268168
O18   O     O_3   0.701184 0.733451 0.724097 -0.551592
C67   C     C_3   0.771826 0.831669 0.710580 0.114287
H44   H     H_    0.758870 0.851858 0.657521 0.162424
H45   H     H_    0.852219 0.836078 0.698778 0.165808
C68   C     C_3   0.758165 0.910426 0.787059 -0.723546
H46   H     H_    0.768828 0.891872 0.841638 0.247267
H47   H     H_    0.815796 0.987420 0.778027 0.208794
H48   H     H_    0.680074 0.911370 0.798331 0.260000
O19   O     O_3   0.692229 0.540708 0.348680 -0.659652
H49   H     H_    0.698605 0.542871 0.290155 0.348677
O20   O     O_3   0.395926 0.666235 0.601140 -0.672302
H50   H     H_    0.375419 0.665686 0.550572 0.372524
O21   O     O_3   0.120732 0.535960 0.955867 -0.744333
H51   H     H_    0.177625 0.565814 0.987646 0.330655
O22   O     O_3   0.848642 0.410283 0.032828 -0.736529
H52   H     H_    0.792089 0.384587 0.001216 0.320448
O23   O     O_3   0.923685 0.622188 0.949192 -0.676358
H53   H     H_    0.925229 0.679314 0.928405 0.335817
O24   O     O_3   0.112482 0.381695 0.052544 -0.701734
H54   H     H_    0.134398 0.342164 0.076823 0.324197
O25   O     O_3   0.942438 0.617884 0.135218 -0.681435
H55   H     H_    0.884323 0.625199 0.178948 0.347292
O26   O     O_3   0.961001 0.299592 0.850009 -0.709904
H56   H     H_    0.002937 0.270682 0.802359 0.336877
O27   O     O_3   0.338956 0.164504 0.648072 -0.758459
H57   H     H_    0.384510 0.229432 0.628687 0.337001
O28   O     O_3   0.657412 0.828599 0.410316 -0.740778
H58   H     H_    0.619027 0.775197 0.444741 0.338489
O29   O     O_3   0.716641 0.212938 0.612470 -0.712163
H59   H     H_    0.784855 0.263965 0.623695 0.325902
O30   O     O_3   0.292217 0.799622 0.413583 -0.714121
H60   H     H_    0.350278 0.853001 0.385841 0.324475
O31   O     O_3   0.934193 0.156769 0.354014 -0.721727
H61   H     H_    0.990145 0.185970 0.386510 0.343567
O32   O     O_3   0.058679 0.824011 0.668463 -0.735780
H62   H     H_    0.038216 0.750531 0.667368 0.318597

loop_
_geom_bond_atom_site_label_1
_geom_bond_atom_site_label_2
_ccdc_geom_bond_type
C15   C18   A    
C56   H16   S    
O32   H62   S    
C29   C33   A    
C22   O18   S    
C27   C29   A    
C19   O27   S    
O10   H8    S    
C23   O7    A    
C58   H21   S    
C25   H2    S    
C4    C8    A    
C26   H1    S    
O30   H60   S    
C58   H23   S    
C24   O8    A    
O17   C65   S    
C39   C41   A    
Cu2   O3    S    
Cu1   Cu2   S    
C63   H34   S    
C21   C31   A    
C18   O12   S    
O28   H58   S    
C22   C32   A    
C57   H19   S    
C35   C37   A    
C53   H10   S    
C3    C7    A    
C23   C39   S    
Cu2   O6    S    
C45   C51   S    
C28   O15   S    
O16   C63   S    
C46   C52   S    
C33   C36   A    
C61   H29   S    
C34   C35   A    
C23   O5    A    
Cu1   O1    S    
C27   N1    A    
O23   H53   S    
C35   O19   S    
C11   C15   A    
C60   H27   S    
O29   H59   S    
C2    O2    A    
C67   H44   S    
C1    O3    A    
O15   C61   S    
C55   C56   S    
C32   C38   A    
C60   H28   S    
C5    C13   A    
C41   O9    S    
C64   H37   S    
C48   C50   A    
C7    O32   S    
C48   O24   S    
C41   C43   A    
C42   C44   A    
C12   C16   A    
Cu1   O8    S    
C1    O1    A    
C57   H20   S    
C44   C46   A    
O22   H52   S    
C46   C48   A    
C45   C47   A    
O19   H49   S    
C47   O23   S    
C44   O25   S    
C15   C16   A    
C30   C34   A    
C51   C52   D    
C52   O21   S    
C63   C64   S    
C6    H6    S    
C68   H46   S    
C53   H9    S    
C47   C49   A    
O13   C57   S    
C5    C7    A    
C13   C19   A    
C16   C17   A    
C6    C8    A    
C57   C58   S    
C49   H4    S    
C31   C37   A    
C1    C3    S    
C21   O17   S    
C2    C4    S    
O11   C53   S    
C66   H42   S    
C3    C9    A    
C14   C20   A    
C6    C14   A    
C9    C11   A    
Cu1   N2    S    
O12   C55   S    
O25   H55   S    
C59   H25   S    
C33   C34   A    
C62   H32   S    
C25   N1    A    
C55   H14   S    
C9    O30   S    
Cu1   O4    S    
C43   C45   A    
C61   H30   S    
C68   H48   S    
C10   C12   A    
C65   C66   S    
C5    H5    S    
C39   C49   A    
C12   C14   A    
C20   O28   S    
C56   H17   S    
C4    C10   A    
O18   C67   S    
C60   H26   S    
C65   H40   S    
C64   H38   S    
C68   H47   S    
C36   O20   S    
C21   C25   A    
C58   H22   S    
C42   O10   S    
C62   H31   S    
C50   H3    S    
C55   H15   S    
C38   O14   S    
C2    O4    A    
C8    O31   S    
C54   H13   S    
C64   H36   S    
C61   C62   S    
Cu2   N1    S    
C54   H12   S    
O14   C59   S    
C28   C30   A    
O21   H51   S    
C26   N2    A    
C66   H43   S    
O9    H7    S    
C29   C31   A    
C43   O26   S    
O20   H50   S    
C36   C38   A    
C30   C32   A    
C11   C13   A    
Cu2   O7    S    
Cu2   O2    S    
C67   C68   S    
C40   C50   A    
C40   C42   A    
C59   H24   S    
C24   C40   S    
C63   H35   S    
C62   H33   S    
C18   C20   A    
C59   C60   S    
Cu1   O5    S    
O31   H61   S    
C24   O6    A    
C54   H11   S    
C17   C19   A    
C53   C54   S    
C67   H45   S    
C22   C26   A    
C56   H18   S    
O27   H57   S    
C17   O11   S    
C51   O22   S    
O26   H56   S    
O24   H54   S    
C10   O29   S    
C66   H41   S    
C37   O13   S    
C27   O16   S    
C65   H39   S    
C28   N2    A    
