data_mof_unit_12455.cif
_audit_creation_date              2012-12-10T17:13:43-0500
_audit_creation_method            fapswitch 2.2
_symmetry_space_group_name_H-M    P1
_symmetry_Int_Tables_number       1
_space_group_crystal_system       triclinic
_cell_length_a                    27.723192
_cell_length_b                    10.632253
_cell_length_c                    10.013143
_cell_angle_alpha                 90.889632
_cell_angle_beta                  90.174239
_cell_angle_gamma                 90.347047
_cell_volume                      2951.04952565

loop_
_atom_site_label
_atom_site_type_symbol
_atom_type_description
_atom_site_fract_x
_atom_site_fract_y
_atom_site_fract_z
_atom_type_partial_charge
C1    C     C_R   0.497184 0.262323 0.498697 0.781367
C2    C     C_R   0.974029 0.395654 0.532669 0.122591
C3    C     C_R   0.975406 0.625649 0.505191 -0.162483
C4    C     C_R   0.406147 0.499986 0.499755 0.957394
C5    C     C_R   0.949390 0.511337 0.517189 0.018783
C6    C     C_R   0.946993 0.282724 0.534315 -0.220118
C7    C     C_R   0.897143 0.284013 0.527296 -0.144540
C8    C     C_R   0.872523 0.397741 0.518568 0.012936
C9    C     C_R   0.898395 0.512317 0.514183 -0.124941
C10   C     C_R   0.873210 0.627153 0.506059 -0.237570
C11   C     C_R   0.822439 0.623416 0.502048 0.648080
C12   C     C_R   0.277292 0.439313 0.396401 0.474440
C13   C     C_R   0.822270 0.399291 0.513191 0.573558
C14   C     C_R   0.722225 0.508601 0.624549 0.509471
C15   C     C_R   0.671872 0.508351 0.622622 -0.325235
C16   C     C_R   0.503403 0.737291 0.501264 0.899395
C17   C     C_R   0.672311 0.500651 0.380269 -0.342092
C18   C     C_R   0.722905 0.507309 0.380236 0.519655
C19   C     C_R   0.747253 0.509570 0.503229 0.134645
C20   C     C_R   0.024889 0.396038 0.543351 -0.025892
C21   C     C_R   0.050790 0.506926 0.513660 0.075239
C22   C     C_R   0.026076 0.620389 0.487316 0.103590
C23   C     C_R   0.252955 0.503260 0.499238 0.073424
C24   C     C_R   0.050682 0.288730 0.582306 -0.325663
C25   C     C_R   0.102597 0.719823 0.431631 -0.192612
C26   C     C_R   0.949705 0.740893 0.514165 0.382252
C27   C     C_R   0.899227 0.741578 0.505496 0.461877
C28   C     C_R   0.594006 0.500283 0.500228 0.926455
C29   C     C_R   0.052717 0.723117 0.438131 -0.177467
C30   C     C_2   0.520303 0.933165 0.395468 -0.136971
C31   C     C_2   0.513515 0.868233 0.506355 -0.243111
C32   C     C_2   0.521755 0.068389 0.407052 -0.265191
C33   C     C_2   0.492045 0.128235 0.492034 0.383833
C34   C     C_R   0.101777 0.504420 0.509349 -0.129155
C35   C     C_2   0.537794 0.521345 0.927581 0.413503
C36   C     C_2   0.537629 0.480523 0.072895 0.409950
C37   C     C_R   0.177749 0.396733 0.539813 0.618037
C38   C     C_R   0.177782 0.609718 0.467414 0.515509
C39   C     C_R   0.278437 0.567937 0.599366 -0.279463
C40   C     C_R   0.328607 0.569989 0.598426 0.445770
C41   C     C_R   0.327746 0.433954 0.398983 0.319889
C42   C     C_3   0.357189 0.241877 0.343332 -0.173536
C43   C     C_3   0.981490 0.869501 0.675020 -0.275177
C44   C     C_3   0.876452 0.907740 0.380818 -0.178327
C45   C     C_R   0.127028 0.394211 0.543436 -0.168271
C46   C     C_3   0.730951 0.578819 0.163570 -0.294978
C47   C     C_3   0.246813 0.451663 0.187007 -0.235412
C48   C     C_3   0.437197 0.115862 0.668329 -0.336403
C49   C     C_3   0.599533 0.665424 0.950427 -0.325527
C50   C     C_3   0.597433 0.333072 0.051947 -0.335870
C51   C     C_3   0.119477 0.083015 0.524599 -0.223648
C52   C     C_3   0.738426 0.411829 0.822227 -0.294733
C53   C     C_3   0.359917 0.760422 0.656430 -0.229982
C54   C     C_R   0.100995 0.285689 0.579849 0.566255
C55   C     C_R   0.127501 0.612470 0.470202 0.013799
C56   C     C_R   0.353525 0.501152 0.499139 -0.352372
C57   C     C_R   0.646783 0.502741 0.500978 -0.170313
H1    H     H_    0.259128 0.617670 0.677646 0.190778
H2    H     H_    0.999521 0.961672 0.693050 0.181831
H3    H     H_    0.652913 0.493242 0.286771 0.220169
H4    H     H_    0.854537 0.994686 0.382025 0.195336
H5    H     H_    0.860287 0.842289 0.304874 0.149630
H6    H     H_    0.913734 0.934381 0.351335 0.158076
H7    H     H_    0.718128 0.670923 0.204044 0.166693
H8    H     H_    0.701661 0.528726 0.108227 0.164185
H9    H     H_    0.759895 0.599240 0.090654 0.211044
H10   H     H_    0.035652 0.805461 0.398452 0.196899
H11   H     H_    0.523613 0.888565 0.297589 0.163968
H12   H     H_    0.514776 0.913566 0.604545 0.173467
H13   H     H_    0.548344 0.118596 0.348125 0.140166
H14   H     H_    0.282586 0.474860 0.143326 0.192966
H15   H     H_    0.226896 0.539379 0.212288 0.167679
H16   H     H_    0.225656 0.400022 0.109345 0.193569
H17   H     H_    0.419256 0.208130 0.655882 0.179177
H18   H     H_    0.467900 0.123101 0.739979 0.172665
H19   H     H_    0.410199 0.051106 0.711926 0.185670
H20   H     H_    0.619491 0.625718 0.036118 0.189107
H21   H     H_    0.571914 0.733845 0.985906 0.145153
H22   H     H_    0.626041 0.718268 0.889963 0.194392
H23   H     H_    0.032652 0.206361 0.619713 0.159218
H24   H     H_    0.471485 0.457575 0.896035 0.105046
H25   H     H_    0.616839 0.370223 0.963996 0.190091
H26   H     H_    0.568898 0.264623 0.020021 0.148607
H27   H     H_    0.624102 0.281059 0.112312 0.191012
H28   H     H_    0.471846 0.545879 0.103641 0.109039
H29   H     H_    0.131845 0.114953 0.424871 0.167750
H30   H     H_    0.081685 0.047676 0.518565 0.139043
H31   H     H_    0.142509 0.002793 0.553246 0.209924
H32   H     H_    0.652546 0.512996 0.716082 0.224326
H33   H     H_    0.741339 0.322176 0.763732 0.193845
H34   H     H_    0.321609 0.194879 0.357140 0.189686
H35   H     H_    0.702499 0.418869 0.870417 0.149908
H36   H     H_    0.765770 0.408909 0.903207 0.206196
H37   H     H_    0.877954 0.194968 0.528687 0.198440
H38   H     H_    0.963502 0.191150 0.536292 0.160629
H39   H     H_    0.324816 0.808720 0.641881 0.168128
H40   H     H_    0.381824 0.764274 0.563531 0.155872
H41   H     H_    0.380065 0.812805 0.735591 0.184000
H42   H     H_    0.378774 0.238050 0.436948 0.139988
H43   H     H_    0.377037 0.188209 0.265371 0.183875
H44   H     H_    0.121543 0.801718 0.395047 0.179623
H45   H     H_    0.005972 0.795299 0.712576 0.165962
H46   H     H_    0.947122 0.869747 0.732253 0.185239
N1    N     N_R   0.201567 0.503170 0.502090 -0.320618
N2    N     N_R   0.798623 0.510831 0.505292 -0.317333
N3    N     N_2   0.500520 0.501330 0.852150 -0.227176
N4    N     N_2   0.500540 0.501360 0.147810 -0.228365
O1    O     O_R   0.499990 0.319060 0.613040 -0.640487
O2    O     O_R   0.571240 0.499960 0.613080 -0.565701
O3    O     O_R   0.571250 0.500000 0.386950 -0.566696
O4    O     O_2   0.203370 0.294515 0.573784 -0.491277
O5    O     O_3   0.351674 0.366643 0.300435 -0.581428
O6    O     O_3   0.972895 0.854873 0.536800 -0.627807
O7    O     O_3   0.875517 0.855785 0.509615 -0.542834
O8    O     O_3   0.750166 0.501567 0.263845 -0.600004
O9    O     O_3   0.251520 0.374057 0.299086 -0.585001
O10   O     O_3   0.451904 0.065392 0.544068 -0.624838
O11   O     O_3   0.579210 0.569115 0.869301 -0.578534
O12   O     O_2   0.797008 0.290374 0.515973 -0.573456
O13   O     O_3   0.578659 0.431647 0.131643 -0.577704
O14   O     O_3   0.124515 0.179006 0.622708 -0.562717
O15   O     O_3   0.747910 0.517946 0.743313 -0.600327
O16   O     O_3   0.353063 0.635539 0.698154 -0.579979
O17   O     O_2   0.202905 0.712427 0.429939 -0.580699
O18   O     O_2   0.796746 0.730511 0.495406 -0.507789
O19   O     O_R   0.500010 0.319100 0.386900 -0.603244
O20   O     O_R   0.428750 0.500000 0.613050 -0.581943
O21   O     O_R   0.428760 0.500040 0.386920 -0.574972
O22   O     O_R   0.499990 0.680900 0.613100 -0.596822
O23   O     O_R   0.500010 0.680940 0.386960 -0.626079
Zn1   Zn    Zn3+2 0.499990 0.499970 0.650990 0.992336
Zn2   Zn    Zn3+2 0.500010 0.500030 0.349010 0.998784

loop_
_geom_bond_atom_site_label_1
_geom_bond_atom_site_label_2
_ccdc_geom_bond_type
C10   C27   A    
C33   O10   S    
C8    C13   A    
C14   O15   S    
C22   C29   A    
C48   H19   S    
C52   H33   S    
C35   C36   S    
C50   H27   S    
C7    C8    A    
C28   C57   S    
C16   C31   S    
C12   C23   A    
C26   C27   A    
C12   C41   A    
C46   O8    S    
C50   O13   S    
C11   O18   S    
C44   H5    S    
C46   H9    S    
C30   C31   D    
C12   O9    S    
C24   C54   A    
C49   H21   S    
C18   C19   A    
C7    H37   S    
C42   O5    S    
O1    Zn1   S    
C38   N1    A    
C29   H10   S    
C52   O15   S    
C24   H23   S    
C38   C55   A    
C23   N1    S    
C8    C9    A    
C40   C56   A    
C41   O5    S    
C11   N2    A    
O3    Zn2   S    
C16   O23   A    
C9    C10   A    
C43   H2    S    
C44   O7    S    
C34   C55   A    
C21   C22   A    
C4    C56   S    
C53   H39   S    
C15   C57   A    
C48   H18   S    
C2    C6    A    
O21   Zn2   S    
C51   H29   S    
C13   O12   S    
C50   H26   S    
C43   H46   S    
C44   H6    S    
C25   C29   A    
N3    Zn1   S    
C44   H4    S    
C37   O4    S    
C4    O21   A    
C2    C20   A    
C48   H17   S    
C1    O19   A    
C47   H16   S    
C46   H8    S    
C13   N2    A    
C53   O16   S    
C51   H30   S    
C39   C40   A    
C32   H13   S    
C21   C34   A    
C17   H3    S    
C53   H40   S    
C39   H1    S    
C49   H22   S    
C46   H7    S    
C18   O8    S    
O23   Zn2   S    
C41   C56   A    
C5    C9    A    
O2    Zn1   S    
C42   H43   S    
C15   H32   S    
C49   O11   S    
O19   Zn2   S    
C17   C18   A    
C52   H36   S    
C34   C45   A    
C16   O22   A    
C47   H14   S    
C48   O10   S    
C19   N2    S    
C54   O14   S    
C45   C54   A    
C51   O14   S    
C52   H35   S    
C2    C5    A    
C35   O11   S    
C37   C45   A    
C50   H25   S    
C40   O16   S    
H24   N3    S    
C28   O2    A    
C4    O20   A    
C14   C19   A    
C3    C26   A    
C25   C55   A    
N4    Zn2   S    
C3    C5    A    
C51   H31   S    
C37   N1    A    
C6    C7    A    
C53   H41   S    
C28   O3    A    
C32   C33   D    
C26   O6    S    
C35   N3    D    
C30   H11   S    
C42   H42   S    
C43   O6    S    
C30   C32   S    
C25   H44   S    
C23   C39   A    
C47   O9    S    
C49   H20   S    
C36   O13   S    
O20   Zn1   S    
C47   H15   S    
C43   H45   S    
C10   C11   A    
C1    C33   S    
C1    O1    A    
C27   O7    S    
C31   H12   S    
C20   C21   A    
C6    H38   S    
C14   C15   A    
C3    C22   A    
O22   Zn1   S    
H28   N4    S    
C20   C24   A    
C38   O17   S    
C42   H34   S    
C17   C57   A    
C36   N4    D    
