data_mof_unit_31139.cif
_audit_creation_date              2012-10-26T20:20:44-0400
_audit_creation_method            fapswitch 2.2
_symmetry_space_group_name_H-M    P1
_symmetry_Int_Tables_number       1
_space_group_crystal_system       triclinic
_cell_length_a                    8.768416
_cell_length_b                    10.808233
_cell_length_c                    9.584257
_cell_angle_alpha                 89.261341
_cell_angle_beta                  96.925777
_cell_angle_gamma                 91.384953
_cell_volume                      901.373688543

loop_
_atom_site_label
_atom_site_type_symbol
_atom_type_description
_atom_site_fract_x
_atom_site_fract_y
_atom_site_fract_z
_atom_type_partial_charge
C1    C     C_R   0.499646 0.262303 0.500463 0.554381
C2    C     C_R   0.547370 0.063417 0.624736 -0.114090
C3    C     C_R   0.500632 0.871635 0.499329 0.028804
C4    C     C_R   0.499365 0.128364 0.500669 0.028798
C5    C     C_R   0.425893 0.408540 0.069269 0.036521
C6    C     C_R   0.574100 0.591463 0.930730 0.036516
C7    C     C_R   0.424422 0.407876 0.921350 0.180155
C8    C     C_R   0.575576 0.592126 0.078649 0.180162
C9    C     C_2   0.339923 0.303271 0.848460 0.602551
C10   C     C_2   0.660085 0.696729 0.151545 0.602539
C11   C     C_R   0.500353 0.737697 0.499537 0.554381
C12   C     C_R   0.204699 0.498335 0.465231 0.602664
C13   C     C_R   0.795301 0.501665 0.534769 0.602666
C14   C     C_2   0.041241 0.480645 0.449570 0.215008
C15   C     C_2   0.958759 0.519356 0.550430 0.215008
C16   C     C_R   0.452338 0.064630 0.375792 -0.106116
C17   C     C_R   0.547658 0.935369 0.624206 -0.106130
C18   C     C_R   0.452625 0.936582 0.375261 -0.114046
Cl1   Cl    Cl    0.964453 0.389320 0.303639 -0.537894
Cl2   Cl    Cl    0.035548 0.610681 0.696361 -0.537898
Cu1   Cu    Cu3+1 0.500000 0.500020 0.640660 1.082395
Cu2   Cu    Cu3+1 0.500000 0.499980 0.359340 1.082404
H1    H     H_    0.413898 0.113571 0.279043 0.159722
H2    H     H_    0.586098 0.886428 0.720955 0.159715
H3    H     H_    0.413393 0.888533 0.278654 0.179044
H4    H     H_    0.586601 0.111466 0.721342 0.179021
H5    H     H_    0.365562 0.336174 0.121198 0.152840
H6    H     H_    0.634429 0.663831 0.878802 0.152828
H7    H     H_    0.310123 0.117899 0.836053 0.349904
H8    H     H_    0.689977 0.882083 0.163905 0.349901
N1    N     N_R   0.500040 0.500030 0.852080 -0.269618
N2    N     N_R   0.499960 0.499970 0.147920 -0.269615
O1    O     O_R   0.499990 0.319660 0.618740 -0.501682
O2    O     O_R   0.378322 0.182439 0.890237 -0.724491
O3    O     O_2   0.769883 0.678810 0.239746 -0.458174
O4    O     O_R   0.621681 0.817561 0.109777 -0.724480
O5    O     O_R   0.500010 0.680340 0.381260 -0.501669
O6    O     O_R   0.499990 0.319630 0.381170 -0.514617
O7    O     O_R   0.500010 0.680370 0.618830 -0.514621
O8    O     O_R   0.274840 0.500010 0.591370 -0.435594
O9    O     O_R   0.725160 0.499990 0.408630 -0.435591
O10   O     O_R   0.274830 0.499980 0.353800 -0.481728
O11   O     O_R   0.725170 0.500020 0.646200 -0.481724
O12   O     O_2   0.230123 0.321187 0.760253 -0.458150

loop_
_geom_bond_atom_site_label_1
_geom_bond_atom_site_label_2
_ccdc_geom_bond_type
C12   O8    A    
C2    C4    A    
C4    C16   A    
C10   O3    D    
Cu1   O1    S    
Cu1   O7    S    
H8    O4    S    
C5    N2    A    
C1    C4    S    
C13   O9    A    
C6    N1    A    
C1    O1    A    
C2    H4    S    
C5    H5    S    
Cu1   Cu2   S    
C2    C17   A    
C11   O7    A    
Cu1   N1    S    
Cu2   O10   S    
C18   H3    S    
Cu2   N2    S    
C1    O6    A    
C14   Cl1   S    
C8    C10   S    
C12   C14   S    
C3    C17   A    
C16   H1    S    
C5    C7    A    
C13   C15   S    
C9    O2    S    
Cu2   O9    S    
C3    C11   S    
C12   O10   A    
C17   H2    S    
C7    C9    S    
C13   O11   A    
C7    N1    A    
C3    C18   A    
C16   C18   A    
C11   O5    A    
C8    N2    A    
C14   C15   D    
C9    O12   D    
C6    C8    A    
Cu1   O11   S    
Cu2   O5    S    
H7    O2    S    
C6    H6    S    
C15   Cl2   S    
C10   O4    S    
Cu2   O6    S    
Cu1   O8    S    
