data_mof_unit_35918.cif
_audit_creation_date              2013-03-05T15:51:40-0500
_audit_creation_method            fapswitch 2.2
_symmetry_space_group_name_H-M    P1
_symmetry_Int_Tables_number       1
_space_group_crystal_system       triclinic
_cell_length_a                    11.56018
_cell_length_b                    11.559581
_cell_length_c                    19.537851
_cell_angle_alpha                 90.48875
_cell_angle_beta                  90.078628
_cell_angle_gamma                 59.865851
_cell_volume                      2257.91296495

loop_
_atom_site_label
_atom_site_type_symbol
_atom_site_description
_atom_site_fract_x
_atom_site_fract_y
_atom_site_fract_z
_atom_type_partial_charge
O1    O     O_R   0.267750 0.231960 0.575440 -0.503225
O2    O     O_R   0.527290 0.186640 0.570530 -0.483713
C1    C     C_R   0.640511 0.117342 0.599214 0.554342
O3    O     O_R   0.728110 0.003450 0.576380 -0.505419
O4    O     O_R   0.682980 0.789190 0.570500 -0.495756
C2    C     C_R   0.612537 0.745988 0.598595 0.552879
O5    O     O_R   0.499300 0.771880 0.575540 -0.493154
O6    O     O_R   0.285350 0.030870 0.569740 -0.495739
C3    C     C_R   0.241075 0.145316 0.598156 0.542682
O7    O     O_R   0.270960 0.227070 0.423890 -0.515321
O8    O     O_R   0.530270 0.182120 0.430040 -0.456718
C4    C     C_R   0.645566 0.112898 0.402858 0.580604
O9    O     O_R   0.731320 0.998570 0.424830 -0.523759
O10   O     O_R   0.685950 0.784660 0.430010 -0.511949
C5    C     C_R   0.614998 0.742604 0.401294 0.564391
O11   O     O_R   0.502510 0.767000 0.423980 -0.494038
O12   O     O_R   0.288320 0.026340 0.429250 -0.507048
C6    C     C_R   0.240086 0.143159 0.402718 0.536361
Cr1   Cr    Cr6+3 0.404720 0.198220 0.499960 1.085951
Cr2   Cr    Cr6+3 0.698290 0.897110 0.500380 1.036427
Cr3   Cr    Cr6+3 0.396970 0.904720 0.499610 1.053208
O13   O     O_3   0.499990 0.000020 0.499980 -0.275042
C7    C     C_1   0.670251 0.646476 0.860167 0.005295
C8    C     C_1   0.654885 0.683627 0.728425 -0.029416
C9    C     C_1   0.663391 0.666667 0.799708 -0.030210
C10   C     C_1   0.641417 0.703841 0.667963 0.008150
C11   C     C_1   0.126722 0.198741 0.859330 0.004161
C12   C     C_1   0.171486 0.170366 0.727696 -0.029013
C13   C     C_1   0.150171 0.182269 0.798950 -0.030125
C14   C     C_1   0.195284 0.161031 0.667345 0.006787
C15   C     C_1   0.678519 0.191305 0.860812 0.004767
C16   C     C_1   0.658580 0.167258 0.729011 -0.029102
C17   C     C_1   0.665625 0.180947 0.800344 -0.029816
C18   C     C_1   0.653064 0.149678 0.668594 0.008249
C19   C     C_R   0.661906 0.684194 0.188249 0.022700
C20   C     C_R   0.535339 0.753269 0.217905 0.008666
C21   C     C_R   0.523929 0.768796 0.287541 0.018847
C22   C     C_R   0.762378 0.666874 0.299615 -0.160979
C23   C     C_R   0.774915 0.654137 0.228712 -0.159893
C24   C     C_3   0.416633 0.733870 0.213343 -0.267835
C25   C     C_3   0.406704 0.749008 0.290205 -0.247474
C26   C     C_R   0.636620 0.713944 0.329452 0.041109
H1    H     H_    0.850673 0.634451 0.330896 0.123241
H2    H     H_    0.874647 0.605879 0.207007 0.138104
H3    H     H_    0.439720 0.632414 0.196845 0.171061
H4    H     H_    0.331170 0.817611 0.186485 0.133042
H5    H     H_    0.316104 0.838554 0.308505 0.144249
H6    H     H_    0.431236 0.656553 0.317534 0.231452
C27   C     C_R   0.112572 0.212821 0.198750 0.021522
C28   C     C_R   0.114784 0.312869 0.237306 0.013487
C29   C     C_R   0.140577 0.297060 0.305962 0.005781
C30   C     C_R   0.129338 0.095261 0.305010 -0.161436
C31   C     C_R   0.107934 0.108806 0.234006 -0.154073
C32   C     C_3   0.191862 0.382634 0.226245 -0.270284
C33   C     C_3   0.221850 0.364787 0.301968 -0.211897
C34   C     C_R   0.163106 0.180704 0.339558 0.021345
H7    H     H_    0.127800 0.014542 0.331653 0.116186
H8    H     H_    0.091911 0.036438 0.206755 0.122111
H9    H     H_    0.126678 0.488926 0.211617 0.138511
H10   H     H_    0.281834 0.324223 0.193447 0.143353
H11   H     H_    0.329520 0.295357 0.312367 0.188692
H12   H     H_    0.174559 0.460787 0.331127 0.180263
C35   C     C_R   0.664823 0.186098 0.191952 -0.026647
C36   C     C_R   0.726640 0.056871 0.218655 0.008304
C37   C     C_R   0.725272 0.037961 0.287773 -0.011179
C38   C     C_R   0.584643 0.275411 0.306860 0.169007
C39   C     C_R   0.584127 0.294615 0.235856 -0.157695
C40   C     C_3   0.865586 0.939387 0.211399 -0.256174
C41   C     C_3   0.864675 0.922073 0.288040 -0.257515
C42   C     C_R   0.662576 0.145256 0.333471 0.005364
H13   H     H_    0.532943 0.395715 0.216527 0.150298
H14   H     H_    0.941529 0.965388 0.195516 0.155181
H15   H     H_    0.867308 0.855933 0.181824 0.137000
H16   H     H_    0.869692 0.827492 0.302825 0.151676
H17   H     H_    0.935226 0.944589 0.315849 0.141223
O14   O     O_R   0.821590 0.119350 0.952850 -0.505239
O15   O     O_R   0.037230 0.162540 0.957390 -0.493596
C43   C     C_R   0.081731 0.231166 0.928634 0.547447
O16   O     O_R   0.056530 0.344750 0.951370 -0.503874
O17   O     O_R   0.798000 0.560370 0.957490 -0.494582
C44   C     C_R   0.683876 0.604369 0.929538 0.544894
O18   O     O_R   0.596230 0.579400 0.952760 -0.504965
O19   O     O_R   0.639160 0.321170 0.958690 -0.493446
C45   C     C_R   0.708353 0.206675 0.930175 0.546391
O20   O     O_R   0.821370 0.124220 0.104400 -0.521287
O21   O     O_R   0.037020 0.167050 0.097880 -0.510410
C46   C     C_R   0.077441 0.238735 0.127050 0.545507
O22   O     O_R   0.056310 0.349620 0.102920 -0.516640
O23   O     O_R   0.797790 0.564880 0.097980 -0.511165
C47   C     C_R   0.682464 0.614294 0.124346 0.550398
O24   O     O_R   0.596000 0.584270 0.104310 -0.525501
O25   O     O_R   0.638950 0.325690 0.099180 -0.507559
C48   C     C_R   0.707249 0.211040 0.126533 0.553788
Cr4   Cr    Cr6+3 0.926290 0.152010 0.028150 1.022742
Cr5   Cr    Cr6+3 0.921440 0.451830 0.027490 1.025416
Cr6   Cr    Cr6+3 0.626370 0.446880 0.028730 1.024600
O26   O     O_3   0.824700 0.350240 0.028120 -0.253618
N1    N     N_R   0.513403 0.388957 0.351358 0.068881
O27   O     O_R   0.570417 0.402538 0.405896 -0.333972
O28   O     O_R   0.391110 0.479564 0.337378 -0.418591

loop_
_geom_bond_atom_site_label_1
_geom_bond_atom_site_label_2
_geom_bond_distance
_ccdc_geom_bond_type
C46   O22   1.272993 A    
O11   Cr3   2.054516 S    
C11   C13   1.202755 T    
C27   C46   1.449307 S    
C19   C20   1.391216 A    
C11   C43   1.428984 S    
O14   C45   1.268118 A    
C44   O18   1.269986 A    
O4    Cr2   1.927691 S    
C32   H10   1.112505 S    
O15   C43   1.275841 A    
C24   H4    1.111525 S    
O8    Cr1   1.933191 S    
C28   C32   1.488635 S    
C36   C40   1.500523 S    
C20   C21   1.368664 A    
C8    C10   1.200820 T    
C22   C26   1.397169 A    
O4    C2    1.275957 A    
C27   C31   1.414925 A    
C37   C42   1.393224 A    
C33   H12   1.111691 S    
O15   Cr4   1.932710 S    
O25   Cr6   1.925114 S    
C29   C34   1.403799 A    
C35   C48   1.451664 S    
C21   C26   1.395075 A    
O21   Cr4   1.933770 S    
O14   Cr4   2.053374 S    
O24   Cr6   2.056130 S    
O20   C48   1.264691 A    
C40   C41   1.513163 S    
C15   C17   1.203061 T    
C29   C33   1.497170 S    
C6    C34   1.456503 S    
C38   C39   1.406301 A    
O22   Cr5   2.042682 S    
Cr3   O13   1.987228 S    
O12   C6    1.287743 A    
C32   H9    1.111295 S    
C2    C10   1.425615 S    
C24   H3    1.109092 S    
C35   C39   1.410141 A    
O1    Cr1   2.051974 S    
O18   Cr6   2.042702 S    
C5    O11   1.264212 A    
O10   Cr2   1.937904 S    
C20   C24   1.499869 S    
Cr1   O13   1.982076 S    
O1    C3    1.270143 A    
C8    C9    1.404529 S    
C43   O16   1.269831 A    
O6    C3    1.276234 A    
Cr4   O26   1.981922 S    
C40   H15   1.111825 S    
O5    Cr3   2.041650 S    
O12   Cr3   1.923301 S    
C15   C45   1.429402 S    
C16   C18   1.203100 T    
O23   Cr5   1.935687 S    
C19   C23   1.413690 A    
O16   Cr5   2.053502 S    
O20   Cr4   2.048909 S    
O19   C45   1.275765 A    
O7    Cr1   2.048298 S    
C40   H14   1.106642 S    
Cr6   O26   1.983161 S    
C28   C29   1.367479 A    
C25   H5    1.096557 S    
C41   H16   1.106259 S    
O17   Cr5   1.925415 S    
C2    O5    1.270192 A    
C3    C14   1.428922 S    
C24   C25   1.508238 S    
Cr2   O13   1.982995 S    
N1    O27   1.301372 A    
N1    O28   1.298975 A    
C1    O3    1.269017 A    
C30   C31   1.405029 A    
C4    C42   1.449013 S    
C32   C33   1.511131 S    
C12   C13   1.407613 S    
C7    C44   1.425622 S    
O9    Cr2   2.044724 S    
O2    Cr1   1.932360 S    
O21   C46   1.268788 A    
C5    C26   1.432575 S    
O17   C44   1.275348 A    
O6    Cr3   1.936590 S    
C31   H8    1.079501 S    
Cr5   O26   1.987157 S    
C23   H2    1.082498 S    
C38   C42   1.413060 A    
C1    C18   1.429525 S    
C36   C37   1.371224 A    
C38   N1    1.433192 S    
C12   C14   1.202741 T    
O2    C1    1.273500 A    
C22   H1    1.083474 S    
C16   C17   1.408157 S    
C47   O24   1.271890 A    
C22   C23   1.391899 A    
O7    C6    1.256861 A    
C37   C41   1.491348 S    
O19   Cr6   1.938307 S    
C33   H11   1.110736 S    
O25   C48   1.275040 A    
C25   H6    1.101234 S    
C41   H17   1.112490 S    
C39   H13   1.082188 S    
C7    C9    1.200813 T    
C21   C25   1.484285 S    
C30   H7    1.080218 S    
C35   C36   1.398122 A    
O3    Cr2   2.056129 S    
C19   C47   1.434897 S    
C4    O9    1.267551 A    
C27   C28   1.385794 A    
O10   C5    1.272138 A    
O23   C47   1.265425 A    
C30   C34   1.399476 A    
O8    C4    1.273835 A    
