data_mof_unit_48995.cif
_audit_creation_date              2012-12-10T20:27:58-0500
_audit_creation_method            fapswitch 2.2
_symmetry_space_group_name_H-M    P1
_symmetry_Int_Tables_number       1
_space_group_crystal_system       triclinic
_cell_length_a                    12.776115
_cell_length_b                    10.730073
_cell_length_c                    9.867964
_cell_angle_alpha                 90.33504
_cell_angle_beta                  97.076313
_cell_angle_gamma                 91.029415
_cell_volume                      1342.22062888

loop_
_atom_site_label
_atom_site_type_symbol
_atom_type_description
_atom_site_fract_x
_atom_site_fract_y
_atom_site_fract_z
_atom_type_partial_charge
C1    C     C_R   0.505327 0.260372 0.500400 0.934992
C2    C     C_R   0.509216 0.934635 0.377591 -0.347708
C3    C     C_R   0.502115 0.871750 0.499985 -0.185727
C4    C     C_R   0.298908 0.514073 0.472985 0.942665
C5    C     C_R   0.499419 0.937049 0.621750 0.040868
C6    C     C_3   0.575744 0.928187 0.748755 -0.517707
C7    C     C_3   0.583786 0.068932 0.747188 0.385469
C8    C     C_R   0.408482 0.480157 0.056338 0.020755
C9    C     C_R   0.588606 0.530858 0.086106 -0.106288
C10   C     C_R   0.588703 0.530462 0.942293 -0.143225
C11   C     C_R   0.408041 0.481974 0.914132 0.035544
C12   C     C_R   0.030690 0.564218 0.560714 0.104809
C13   C     C_3   0.333233 0.372709 0.894680 0.937668
C14   C     C_3   0.334531 0.369916 0.049992 0.165424
C15   C     C_R   0.501418 0.739803 0.500396 0.898435
C16   C     C_R   0.702518 0.502447 0.526668 0.847155
C17   C     C_R   0.815529 0.519641 0.541783 -0.057425
C18   C     C_R   0.188593 0.548128 0.454326 -0.278838
C19   C     C_R   0.020955 0.557093 0.311074 0.430298
C20   C     C_R   0.130835 0.559687 0.323231 0.434899
C21   C     C_R   0.139189 0.568078 0.570582 -0.319454
C22   C     C_3   0.622415 0.181908 0.947265 -0.092399
C23   C     C_R   0.971485 0.549809 0.430779 -0.038246
C24   C     C_3   0.163703 0.305330 0.811736 -0.315998
C25   C     C_3   0.307584 0.167838 0.116075 -0.146932
C26   C     C_3   0.920161 0.658375 0.140664 -0.349920
C27   C     C_3   0.219203 0.686500 0.190878 -0.289472
C28   C     C_R   0.864717 0.524501 0.423216 -0.214512
C29   C     C_R   0.873288 0.540846 0.670161 -0.217160
C30   C     C_R   0.981163 0.563264 0.679608 -0.160341
C31   C     C_R   0.504228 0.065100 0.622013 0.128067
C32   C     C_R   0.511179 0.128244 0.500295 -0.347857
C33   C     C_R   0.516999 0.062441 0.378229 0.612799
F1    F     F_    0.377934 0.271340 0.837787 -0.612502
F2    F     F_    0.535741 0.120178 0.261468 -0.644468
H1    H     H_    0.819760 0.507692 0.324254 0.194933
H2    H     H_    0.513620 0.885332 0.282363 0.199897
H3    H     H_    0.537701 0.890052 0.835578 0.230099
H4    H     H_    0.587701 0.223134 0.034422 0.259139
H5    H     H_    0.660006 0.259471 0.895189 0.115426
H6    H     H_    0.682383 0.113507 0.988545 0.117019
H7    H     H_    0.140543 0.279208 0.912763 0.139392
H8    H     H_    0.195117 0.223831 0.760709 0.211587
H9    H     H_    0.090976 0.333221 0.746887 0.201047
H10   H     H_    0.271619 0.138866 0.012200 0.145531
H11   H     H_    0.245836 0.195993 0.179863 0.109426
H12   H     H_    0.650378 0.882362 0.731218 0.156959
H13   H     H_    0.346123 0.084635 0.163861 0.201373
H14   H     H_    0.982049 0.724474 0.114249 0.174382
H15   H     H_    0.875396 0.701132 0.218381 0.148964
H16   H     H_    0.863904 0.642329 0.046964 0.180280
H17   H     H_    0.283970 0.710950 0.273000 0.168388
H18   H     H_    0.156491 0.757065 0.189337 0.128555
H19   H     H_    0.252028 0.691932 0.092070 0.180927
H20   H     H_    0.662052 0.106208 0.724539 0.026604
H21   H     H_    0.660609 0.554284 0.151267 0.141972
H22   H     H_    0.660768 0.552980 0.899929 0.136557
H23   H     H_    0.258709 0.394021 0.087120 0.139133
H24   H     H_    0.835471 0.539474 0.762552 0.154879
H25   H     H_    0.026183 0.575434 0.779497 0.170258
H26   H     H_    0.184804 0.577562 0.670008 0.239821
N1    N     N_R   0.499290 0.499140 0.142710 -0.065300
N2    N     N_R   0.499290 0.499180 0.857070 -0.088021
O1    O     O_R   0.500010 0.316790 0.614690 -0.559365
O2    O     O_3   0.235401 0.407465 0.823883 -0.674153
O3    O     O_3   0.384025 0.263642 0.110205 -0.502117
O4    O     O_3   0.964135 0.543105 0.182735 -0.584983
O5    O     O_3   0.179452 0.564268 0.205750 -0.585994
O6    O     O_R   0.500000 0.316760 0.385350 -0.514776
O7    O     O_R   0.346360 0.499990 0.595720 -0.585397
O8    O     O_R   0.346350 0.499960 0.366370 -0.587815
O9    O     O_R   0.500000 0.683240 0.614650 -0.621164
O10   O     O_R   0.499990 0.683210 0.385310 -0.646881
O11   O     O_R   0.653650 0.500040 0.633630 -0.643764
O12   O     O_R   0.653640 0.500010 0.404280 -0.637422
O13   O     O_3   0.541223 0.123312 0.858548 -0.506604
Zn1   Zn    Zn3+2 0.500010 0.500020 0.653130 0.995666
Zn2   Zn    Zn3+2 0.499990 0.499980 0.346870 1.001873

loop_
_geom_bond_atom_site_label_1
_geom_bond_atom_site_label_2
_ccdc_geom_bond_type
C16   O12   A    
C17   C29   A    
O1    Zn1   S    
C10   N2    A    
C7    H20   S    
C4    O7    A    
C27   H19   S    
C13   O2    S    
C15   O9    A    
C12   C23   A    
C29   C30   A    
C16   O11   A    
C26   O4    S    
C11   N2    A    
C26   H15   S    
C5    C6    S    
C22   H6    S    
C18   C21   A    
C24   H7    S    
C27   O5    S    
C19   C20   A    
C16   C17   S    
O11   Zn1   S    
C30   H25   S    
O10   Zn2   S    
C6    H3    S    
C19   O4    S    
C22   O13   S    
C9    C10   A    
C21   H26   S    
C4    C18   S    
C13   C14   S    
O7    Zn1   S    
O6    Zn2   S    
N1    Zn2   S    
C14   H23   S    
C7    C31   S    
C6    H12   S    
C9    N1    A    
C29   H24   S    
C10   H22   S    
C26   H14   S    
C12   C21   A    
C1    C32   S    
C1    O6    A    
C19   C23   A    
O9    Zn1   S    
C31   C32   A    
C22   H5    S    
C14   O3    S    
C9    H21   S    
C23   C28   A    
C25   H13   S    
C6    C7    S    
C24   O2    S    
C2    C33   A    
C15   O10   A    
C24   H9    S    
C1    O1    A    
C25   H10   S    
C3    C15   S    
C27   H17   S    
N2    Zn1   S    
C8    C14   S    
C12   C30   A    
C17   C28   A    
C20   O5    S    
C25   O3    S    
C3    C5    A    
C27   H18   S    
C7    O13   S    
C32   C33   A    
C2    C3    A    
C13   F1    S    
C26   H16   S    
C11   C13   S    
C2    H2    S    
C8    C11   A    
C22   H4    S    
C33   F2    S    
C18   C20   A    
O8    Zn2   S    
O12   Zn2   S    
C28   H1    S    
C24   H8    S    
C25   H11   S    
C4    O8    A    
C8    N1    A    
C5    C31   A    
