data_mof_unit_17717.cif
_audit_creation_date              2012-12-11T14:01:29-0500
_audit_creation_method            fapswitch 2.2
_symmetry_space_group_name_H-M    P1
_symmetry_Int_Tables_number       1
_space_group_crystal_system       triclinic
_cell_length_a                    19.057672
_cell_length_b                    10.965885
_cell_length_c                    18.760249
_cell_angle_alpha                 89.662917
_cell_angle_beta                  90.095969
_cell_angle_gamma                 90.064323
_cell_volume                      3920.52059344

loop_
_atom_site_label
_atom_site_type_symbol
_atom_type_description
_atom_site_fract_x
_atom_site_fract_y
_atom_site_fract_z
_atom_type_partial_charge
C1    C     C_R   0.272544 0.042132 0.853516 0.555002
C2    C     C_R   0.727439 0.042517 0.146483 0.557293
C3    C     C_R   0.772544 0.542133 0.853516 0.555001
C4    C     C_R   0.227439 0.542518 0.146484 0.557293
C5    C     C_R   0.495447 0.059999 0.070404 -0.081592
C6    C     C_R   0.521377 0.050659 0.924413 -0.087930
C7    C     C_R   0.995457 0.560003 0.070402 -0.081587
C8    C     C_R   0.021386 0.550652 0.924411 -0.087934
C9    C     C_R   0.006659 0.667373 0.031864 -0.125883
C10   C     C_R   0.021802 0.662383 0.959464 -0.126974
C11   C     C_R   0.506642 0.167373 0.031867 -0.125883
C12   C     C_R   0.521786 0.162388 0.959467 -0.126972
C13   C     C_2   0.249162 0.579174 0.920572 -0.111783
C14   C     C_2   0.750897 0.580019 0.079592 -0.112120
C15   C     C_2   0.749161 0.079173 0.920572 -0.111781
C16   C     C_2   0.250897 0.080019 0.079592 -0.112121
C17   C     C_2   0.249834 0.587297 0.077025 -0.106704
C18   C     C_2   0.750080 0.586504 0.922787 -0.106481
C19   C     C_2   0.749834 0.087296 0.077025 -0.106704
C20   C     C_2   0.250080 0.086504 0.922787 -0.106481
C21   C     C_2   0.295080 0.522301 0.037761 -0.165787
C22   C     C_2   0.705346 0.520870 0.962834 -0.164147
C23   C     C_2   0.795079 0.022299 0.037760 -0.165788
C24   C     C_2   0.205347 0.020870 0.962834 -0.164146
C25   C     C_2   0.303861 0.546481 0.961591 -0.162090
C26   C     C_2   0.696359 0.546044 0.038797 -0.162730
C27   C     C_2   0.803860 0.046478 0.961591 -0.162090
C28   C     C_2   0.196360 0.046043 0.038797 -0.162730
C29   C     C_2   0.512097 0.839822 0.584404 -0.105711
C30   C     C_2   0.513614 0.828564 0.428359 -0.107762
C31   C     C_2   0.012097 0.339822 0.584404 -0.105711
C32   C     C_2   0.013614 0.328564 0.428359 -0.107761
C33   C     C_2   0.545424 0.748056 0.472274 -0.171132
C34   C     C_2   0.531291 0.741628 0.547973 -0.172762
C35   C     C_2   0.045424 0.248056 0.472274 -0.171132
C36   C     C_2   0.031291 0.241627 0.547973 -0.172762
C37   C     C_2   0.244261 0.561861 0.584822 -0.075039
C38   C     C_2   0.752834 0.567535 0.418149 -0.073849
C39   C     C_2   0.744261 0.061860 0.584823 -0.075037
C40   C     C_2   0.252835 0.067533 0.418149 -0.073849
C41   C     C_2   0.239241 0.569291 0.426846 -0.138210
C42   C     C_2   0.761749 0.571538 0.573129 -0.132879
C43   C     C_2   0.739241 0.069291 0.426846 -0.138213
C44   C     C_2   0.261749 0.071538 0.573128 -0.132880
C45   C     C_R   0.471210 0.821729 0.853367 0.538502
C46   C     C_R   0.527950 0.822798 0.147239 0.544413
C47   C     C_R   0.971209 0.321729 0.853367 0.538501
C48   C     C_R   0.027950 0.322798 0.147240 0.544414
C49   C     C_2   0.189043 0.532923 0.472288 -0.158971
C50   C     C_2   0.813846 0.540651 0.528534 -0.153354
C51   C     C_2   0.689043 0.032923 0.472289 -0.158974
C52   C     C_2   0.313846 0.040648 0.528534 -0.153355
C53   C     C_2   0.187223 0.581337 0.544627 0.239836
C54   C     C_2   0.813167 0.578147 0.453859 0.237983
C55   C     C_2   0.687222 0.081337 0.544627 0.239837
C56   C     C_2   0.313167 0.078146 0.453859 0.237984
C57   C     C_R   0.260966 0.635861 0.851364 0.549580
C58   C     C_R   0.738988 0.636305 0.148601 0.554654
C59   C     C_R   0.760965 0.135860 0.851364 0.549580
C60   C     C_R   0.238988 0.136305 0.148601 0.554653
C61   C     C_R   0.273096 0.044591 0.647238 0.549788
C62   C     C_R   0.727082 0.043998 0.352757 0.549787
C63   C     C_R   0.773096 0.544592 0.647238 0.549787
C64   C     C_R   0.227082 0.543999 0.352757 0.549786
C65   C     C_R   0.472283 0.824817 0.649358 0.552688
C66   C     C_R   0.531974 0.823079 0.353789 0.557315
C67   C     C_R   0.972283 0.324817 0.649358 0.552688
C68   C     C_R   0.031974 0.323079 0.353789 0.557316
C69   C     C_R   0.259747 0.634440 0.647309 0.567965
C70   C     C_R   0.739889 0.634548 0.352955 0.566488
C71   C     C_R   0.759747 0.134440 0.647309 0.567965
C72   C     C_R   0.239889 0.134548 0.352955 0.566489
C73   C     C_R   0.497965 0.833200 0.075647 -0.001360
C74   C     C_R   0.497139 0.828436 0.926577 0.003120
C75   C     C_R   0.997962 0.333203 0.075649 -0.001362
C76   C     C_R   0.997136 0.328434 0.926578 0.003123
C77   C     C_R   0.499612 0.945010 0.036855 0.025777
C78   C     C_R   0.506201 0.941406 0.961764 0.024386
C79   C     C_R   0.999616 0.445012 0.036854 0.025778
C80   C     C_R   0.006204 0.441404 0.961764 0.024385
C81   C     C_R   0.491237 0.720555 0.966549 -0.150214
C82   C     C_R   0.489817 0.723248 0.039387 -0.154186
C83   C     C_R   0.991226 0.220556 0.966552 -0.150210
C84   C     C_R   0.989807 0.223252 0.039391 -0.154188
Cr1   Cr    Cr6+3 0.230530 0.836340 0.748870 1.038269
Cr2   Cr    Cr6+3 0.769470 0.836340 0.251130 1.023456
Cr3   Cr    Cr6+3 0.730530 0.336340 0.748870 1.038268
Cr4   Cr    Cr6+3 0.269470 0.336340 0.251130 1.023465
Cr5   Cr    Cr6+3 0.387420 0.989430 0.750820 1.020624
Cr6   Cr    Cr6+3 0.612580 0.989430 0.249180 1.011894
Cr7   Cr    Cr6+3 0.887420 0.489430 0.750820 1.020626
Cr8   Cr    Cr6+3 0.112580 0.489430 0.249180 1.011891
Cr9   Cr    Cr6+3 0.385640 0.677860 0.749230 1.013090
Cr10  Cr    Cr6+3 0.614360 0.677860 0.250770 1.005197
Cr11  Cr    Cr6+3 0.885640 0.177860 0.749230 1.013092
Cr12  Cr    Cr6+3 0.114360 0.177860 0.250770 1.005196
H1    H     H_    0.484512 0.632365 0.941693 0.136842
H2    H     H_    0.486535 0.636642 0.067351 0.137043
H3    H     H_    0.984494 0.132366 0.941697 0.136842
H4    H     H_    0.986520 0.136647 0.067355 0.137042
H5    H     H_    0.143926 0.481331 0.453578 0.138570
H6    H     H_    0.861235 0.496782 0.548492 0.140857
H7    H     H_    0.643925 0.981331 0.453578 0.138570
H8    H     H_    0.361233 0.996776 0.548492 0.140855
H9    H     H_    0.284658 0.621877 0.443575 0.077182
H10   H     H_    0.713588 0.615311 0.555528 0.072310
H11   H     H_    0.784659 0.121876 0.443575 0.077184
H12   H     H_    0.213589 0.115314 0.555528 0.072309
H13   H     H_    0.285057 0.501131 0.566168 0.052621
H14   H     H_    0.707997 0.523718 0.442948 0.037346
H15   H     H_    0.785056 0.001128 0.566169 0.052623
H16   H     H_    0.207997 0.023714 0.442947 0.037346
H17   H     H_    0.481875 0.068423 0.126079 0.133639
H18   H     H_    0.534385 0.050533 0.868326 0.130870
H19   H     H_    0.981885 0.568433 0.126077 0.133640
H20   H     H_    0.034394 0.550521 0.868324 0.130869
H21   H     H_    0.004397 0.754618 0.058464 0.106450
H22   H     H_    0.032746 0.745516 0.930104 0.110524
H23   H     H_    0.504375 0.254617 0.058468 0.106450
H24   H     H_    0.532725 0.245525 0.930108 0.110520
H25   H     H_    0.325128 0.447848 0.060971 0.153048
H26   H     H_    0.675785 0.445477 0.940401 0.152048
H27   H     H_    0.825126 0.947845 0.060971 0.153049
H28   H     H_    0.175786 0.945477 0.940401 0.152047
H29   H     H_    0.356538 0.540595 0.939893 0.150543
H30   H     H_    0.643660 0.539653 0.060507 0.154438
H31   H     H_    0.856537 0.040590 0.939892 0.150540
H32   H     H_    0.143660 0.039652 0.060507 0.154439
H33   H     H_    0.221612 0.663985 0.053824 0.113310
H34   H     H_    0.777878 0.663947 0.945242 0.113396
H35   H     H_    0.721613 0.163984 0.053824 0.113310
H36   H     H_    0.277878 0.163947 0.945242 0.113397
H37   H     H_    0.196329 0.581353 0.942306 0.113777
H38   H     H_    0.803725 0.582822 0.057852 0.112279
H39   H     H_    0.696329 0.081354 0.942306 0.113777
H40   H     H_    0.303725 0.082821 0.057852 0.112280
H41   H     H_    0.579527 0.677243 0.451467 0.153652
H42   H     H_    0.530824 0.651336 0.572191 0.153912
H43   H     H_    0.079526 0.177243 0.451467 0.153652
H44   H     H_    0.030824 0.151336 0.572191 0.153912
H45   H     H_    0.479698 0.900814 0.447424 0.109318
H46   H     H_    0.516535 0.930772 0.561461 0.111912
H47   H     H_    0.979698 0.400814 0.447424 0.109321
H48   H     H_    0.016535 0.430772 0.561461 0.111913
O1    O     O_R   0.215090 0.709860 0.828130 -0.523594
O2    O     O_R   0.784910 0.709860 0.171870 -0.519657
O3    O     O_R   0.715090 0.209860 0.828130 -0.523594
O4    O     O_R   0.284910 0.209860 0.171870 -0.519657
O5    O     O_R   0.445660 0.919250 0.676780 -0.504528
O6    O     O_R   0.554340 0.919250 0.323220 -0.498931
O7    O     O_R   0.945660 0.419250 0.676780 -0.504528
O8    O     O_R   0.054340 0.419250 0.323220 -0.498931
O9    O     O_R   0.456260 0.718170 0.670000 -0.513196
O10   O     O_R   0.543740 0.718170 0.330000 -0.516085
O11   O     O_R   0.956260 0.218170 0.670000 -0.513195
O12   O     O_R   0.043740 0.218170 0.330000 -0.516085
O13   O     O_R   0.320940 0.626760 0.674370 -0.517641
O14   O     O_R   0.679060 0.626760 0.325630 -0.529861
O15   O     O_R   0.820940 0.126760 0.674370 -0.517640
O16   O     O_R   0.179060 0.126760 0.325630 -0.529863
O17   O     O_3   0.334530 0.834540 0.749640 -0.251687
O18   O     O_3   0.665470 0.834540 0.250360 -0.249240
O19   O     O_3   0.834530 0.334540 0.749640 -0.251688
O20   O     O_3   0.165470 0.334540 0.250360 -0.249240
O21   O     O_R   0.236990 0.958390 0.823710 -0.500751
O22   O     O_R   0.763010 0.958390 0.176290 -0.499249
O23   O     O_R   0.736990 0.458390 0.823710 -0.500751
O24   O     O_R   0.263010 0.458390 0.176290 -0.499248
O25   O     O_R   0.332380 0.074750 0.830850 -0.510375
O26   O     O_R   0.667620 0.074750 0.169150 -0.512152
O27   O     O_R   0.832380 0.574750 0.830850 -0.510374
O28   O     O_R   0.167620 0.574750 0.169150 -0.512154
O29   O     O_R   0.445800 0.917770 0.825070 -0.503922
O30   O     O_R   0.554200 0.917770 0.174930 -0.505371
O31   O     O_R   0.945800 0.417770 0.825070 -0.503921
O32   O     O_R   0.054200 0.417770 0.174930 -0.505373
O33   O     O_R   0.456410 0.716580 0.829970 -0.525432
O34   O     O_R   0.543590 0.716580 0.170030 -0.521857
O35   O     O_R   0.956410 0.216580 0.829970 -0.525433
O36   O     O_R   0.043590 0.216580 0.170030 -0.521856
O37   O     O_R   0.321080 0.625290 0.822650 -0.498058
O38   O     O_R   0.678920 0.625290 0.177350 -0.496581
O39   O     O_R   0.821080 0.125290 0.822650 -0.498059
O40   O     O_R   0.178920 0.125290 0.177350 -0.496581
O41   O     O_R   0.214930 0.711450 0.668160 -0.446154
O42   O     O_R   0.785070 0.711450 0.331840 -0.461639
O43   O     O_R   0.714930 0.211450 0.668160 -0.446154
O44   O     O_R   0.285070 0.211450 0.331840 -0.461630
O45   O     O_R   0.236850 0.959870 0.675420 -0.491292
O46   O     O_R   0.763150 0.959870 0.324580 -0.505756
O47   O     O_R   0.736850 0.459870 0.675420 -0.491292
O48   O     O_R   0.263150 0.459870 0.324580 -0.505750
O49   O     O_R   0.332230 0.076350 0.670880 -0.516897
O50   O     O_R   0.667770 0.076350 0.329120 -0.522393
O51   O     O_R   0.832230 0.576350 0.670880 -0.516897
O52   O     O_R   0.167770 0.576350 0.329120 -0.522396
O53   O     O_3   0.131592 0.651737 0.570555 -0.534887
C85   C     C_3   0.089696 0.705212 0.516372 0.022006
H49   H     H_    0.042328 0.742761 0.542505 0.132442
H50   H     H_    0.069741 0.635889 0.478457 0.117735
C86   C     C_3   0.127608 0.811880 0.478785 -0.260016
H51   H     H_    0.124795 0.894331 0.512851 0.148742
H52   H     H_    0.183971 0.790819 0.471066 0.176954
C87   C     C_3   0.095522 0.840253 0.405753 -0.475517
H53   H     H_    0.090462 0.756159 0.373604 0.180087
H54   H     H_    0.129532 0.904822 0.376052 0.163424
H55   H     H_    0.043174 0.882586 0.411307 0.134786
O54   O     O_3   0.873531 0.619166 0.419267 -0.545691
C88   C     C_3   0.911651 0.704011 0.460822 0.010053
H56   H     H_    0.963273 0.715510 0.434768 0.135451
H57   H     H_    0.922880 0.670189 0.515612 0.120052
C89   C     C_3   0.876124 0.829765 0.461907 -0.248953
H58   H     H_    0.877291 0.869704 0.407348 0.190365
H59   H     H_    0.820425 0.820896 0.478589 0.168867
C90   C     C_3   0.913270 0.916343 0.513224 -0.488123
H60   H     H_    0.904679 0.886116 0.569147 0.159666
H61   H     H_    0.892314 0.010048 0.506341 0.153378
H62   H     H_    0.970371 0.919806 0.502919 0.138126
O55   O     O_3   0.631593 0.151737 0.570555 -0.534887
C91   C     C_3   0.589696 0.205212 0.516372 0.022002
H63   H     H_    0.542329 0.242761 0.542506 0.132443
H64   H     H_    0.569741 0.135889 0.478457 0.117736
C92   C     C_3   0.627608 0.311880 0.478785 -0.260017
H65   H     H_    0.624797 0.394330 0.512853 0.148744
H66   H     H_    0.683970 0.290818 0.471064 0.176955
C93   C     C_3   0.595519 0.340258 0.405755 -0.475517
H67   H     H_    0.590457 0.256165 0.373605 0.180083
H68   H     H_    0.629529 0.404826 0.376054 0.163425
H69   H     H_    0.543173 0.382593 0.411312 0.134790
O56   O     O_3   0.373530 0.119172 0.419268 -0.545689
C94   C     C_3   0.411652 0.204007 0.460828 0.010044
H70   H     H_    0.463269 0.215524 0.434769 0.135462
H71   H     H_    0.422891 0.170167 0.515610 0.120056
C95   C     C_3   0.376120 0.329752 0.461935 -0.248996
H72   H     H_    0.377268 0.369703 0.407383 0.190383
H73   H     H_    0.320431 0.320866 0.478633 0.168855
C96   C     C_3   0.413275 0.416325 0.513248 -0.488107
H74   H     H_    0.404682 0.386101 0.569175 0.159673
H75   H     H_    0.392323 0.510036 0.506361 0.153380
H76   H     H_    0.470379 0.419775 0.502941 0.138122

loop_
_geom_bond_atom_site_label_1
_geom_bond_atom_site_label_2
_ccdc_geom_bond_type
C16   C28   D    
C69   O41   A    
Cr3   O19   S    
C38   C70   S    
C60   O40   A    
C37   C69   S    
C9    H21   S    
C86   H51   S    
C46   O34   A    
C19   C23   D    
C35   C36   S    
Cr2   O22   S    
Cr5   O29   S    
Cr6   O6    S    
C11   H23   S    
Cr10  O38   S    
C91   H64   S    
C81   C82   A    
C92   C93   S    
C3    O23   A    
C40   H16   S    
C55   O55   S    
C77   C78   A    
Cr8   O32   S    
C31   C67   S    
C50   C54   S    
C30   H45   S    
C41   H9    S    
Cr6   O18   S    
Cr11  O15   S    
C7    C79   A    
Cr1   O1    S    
C47   C76   S    
C66   O6    A    
C45   O29   A    
C90   H61   S    
C16   C60   S    
Cr11  O39   S    
C49   C53   S    
C75   C84   A    
C6    C78   A    
C15   H39   S    
Cr1   O45   S    
C24   H28   S    
C88   C89   S    
Cr1   O17   S    
C3    C18   S    
C67   O11   A    
C26   H30   S    
C7    H19   S    
C31   H48   S    
C25   H29   S    
C6    H18   S    
C32   H47   S    
C65   O9    A    
C35   H43   S    
C12   H24   S    
C27   H31   S    
C41   C49   D    
C39   C55   D    
C92   H65   S    
C33   H41   S    
O54   C88   S    
C40   C56   D    
Cr6   O50   S    
Cr8   O8    S    
C69   O13   A    
C95   H73   S    
C85   H49   S    
Cr2   O18   S    
C23   C27   S    
C38   H14   S    
C4    O28   A    
C9    C10   A    
Cr10  O18   S    
C37   H13   S    
Cr5   O17   S    
C45   O33   A    
C32   C68   S    
C37   C53   D    
Cr8   O20   S    
Cr5   O5    S    
C28   H32   S    
Cr10  O14   S    
Cr10  O34   S    
C96   H74   S    
C61   O45   A    
C87   H53   S    
C86   H52   S    
C48   C75   S    
Cr7   O19   S    
O53   C85   S    
Cr9   O37   S    
Cr12  O40   S    
Cr2   O2    S    
C76   C83   A    
C57   O37   A    
C91   H63   S    
C64   O48   A    
C22   H26   S    
C44   H12   S    
C19   H35   S    
C85   H50   S    
C14   C58   S    
C88   H56   S    
Cr3   O23   S    
Cr2   O46   S    
C82   H2    S    
C67   O7    A    
C84   H4    S    
C32   C35   D    
C24   C28   S    
C62   O46   A    
C21   C25   S    
C90   H62   S    
C71   O43   A    
O55   C91   S    
C66   O10   A    
Cr9   O33   S    
Cr3   O43   S    
C14   H38   S    
C51   C55   S    
Cr4   O24   S    
C39   H15   S    
Cr4   O20   S    
C17   H33   S    
C29   C34   D    
C34   H42   S    
C14   C26   D    
Cr12  O20   S    
C45   C74   S    
C70   O14   A    
C95   C96   S    
C20   H36   S    
C47   O35   A    
C90   H60   S    
C68   O8    A    
Cr11  O19   S    
C10   H22   S    
Cr7   O51   S    
C57   O1    A    
C15   C27   D    
C83   C84   A    
C38   C54   D    
C89   C90   S    
C1    O21   A    
Cr10  O10   S    
Cr5   O49   S    
Cr6   O26   S    
C85   C86   S    
C46   O30   A    
C33   C34   S    
Cr4   O4    S    
Cr7   O31   S    
C94   H71   S    
C43   H11   S    
Cr12  O36   S    
C59   O39   A    
C36   H44   S    
C30   C66   S    
C22   C26   S    
Cr3   O3    S    
C42   C50   D    
C29   C65   S    
C4    C17   S    
Cr11  O35   S    
Cr12  O16   S    
C89   H59   S    
Cr9   O17   S    
C50   H6    S    
C54   O54   S    
C3    O27   A    
C5    C11   A    
C72   O44   A    
C86   C87   S    
C63   O51   A    
C18   H34   S    
C75   C79   A    
C95   H72   S    
C62   O50   A    
C74   C81   A    
C5    C77   A    
C16   H40   S    
C6    C12   A    
C61   O49   A    
C73   C82   A    
C48   O36   A    
Cr3   O47   S    
Cr4   O48   S    
C2    O22   A    
C52   H8    S    
C1    C20   S    
C15   C59   S    
C40   C72   S    
C30   C33   D    
C5    H17   S    
C2    C19   S    
C18   C22   D    
C4    O24   A    
C13   H37   S    
C76   C80   A    
C87   H54   S    
Cr8   O52   S    
C68   O12   A    
C44   C52   D    
C23   H27   S    
C11   C12   A    
C92   H66   S    
Cr2   O42   S    
C56   O56   S    
C44   C61   S    
C93   H69   S    
C71   O15   A    
Cr6   O30   S    
C93   H68   S    
C72   O16   A    
Cr7   O27   S    
C58   O2    A    
C58   O38   A    
C53   O53   S    
Cr7   O7    S    
C96   H75   S    
C70   O42   A    
Cr1   O21   S    
C2    O26   A    
Cr1   O41   S    
C49   H5    S    
Cr9   O13   S    
C43   C51   D    
Cr12  O12   S    
C81   H1    S    
C13   C25   D    
Cr8   O28   S    
C63   O47   A    
C29   H46   S    
C64   O52   A    
Cr9   O9    S    
C88   H57   S    
C87   H55   S    
Cr11  O11   S    
C46   C73   S    
C21   H25   S    
O56   C94   S    
C17   C21   D    
C94   C95   S    
C8    H20   S    
Cr5   O25   S    
C79   C80   A    
C42   H10   S    
C7    C9    A    
Cr4   O44   S    
C13   C57   S    
C89   H58   S    
C73   C77   A    
C8    C10   A    
C93   H67   S    
C74   C78   A    
C96   H76   S    
C1    O25   A    
C94   H70   S    
C8    C80   A    
C65   O5    A    
C39   C71   S    
C31   C36   D    
C83   H3    S    
C60   O4    A    
C41   C64   S    
C51   H7    S    
C42   C63   S    
C20   C24   D    
C91   C92   S    
C47   O31   A    
C52   C56   S    
C43   C62   S    
C48   O32   A    
C59   O3    A    
