data_mof_unit_35959.cif
_audit_creation_date              2013-03-05T15:50:14-0500
_audit_creation_method            fapswitch 2.2
_symmetry_space_group_name_H-M    P1
_symmetry_Int_Tables_number       1
_space_group_crystal_system       triclinic
_cell_length_a                    15.0388
_cell_length_b                    15.054582
_cell_length_c                    34.91422
_cell_angle_alpha                 90.497057
_cell_angle_beta                  89.940815
_cell_angle_gamma                 60.034794
_cell_volume                      6847.66249378

loop_
_atom_site_label
_atom_site_type_symbol
_atom_site_description
_atom_site_fract_x
_atom_site_fract_y
_atom_site_fract_z
_atom_type_partial_charge
O1    O     O_R   0.502070 0.323090 0.541280 -0.445536
O2    O     O_R   0.338340 0.520690 0.539540 -0.494940
C1    C     C_R   0.302906 0.608083 0.555883 0.539294
O3    O     O_R   0.324760 0.674070 0.543580 -0.512216
O4    O     O_R   0.522400 0.640310 0.540110 -0.472308
C2    C     C_R   0.610567 0.588349 0.555592 0.585590
O5    O     O_R   0.675940 0.500630 0.542210 -0.473837
O6    O     O_R   0.641790 0.337020 0.538150 -0.509762
C3    C     C_R   0.590481 0.300018 0.553687 0.555455
O7    O     O_R   0.500260 0.324550 0.456580 -0.503618
O8    O     O_R   0.336660 0.522040 0.461020 -0.460240
C4    C     C_R   0.300036 0.610290 0.446040 0.561314
O9    O     O_R   0.322940 0.675540 0.458880 -0.528170
O10   O     O_R   0.520720 0.641670 0.461580 -0.500627
C5    C     C_R   0.607806 0.589582 0.445168 0.546624
O11   O     O_R   0.674120 0.502090 0.457500 -0.515675
O12   O     O_R   0.640110 0.338380 0.459630 -0.507871
C6    C     C_R   0.587790 0.303243 0.443609 0.541817
Cr1   Cr    Cr6+3 0.421670 0.426920 0.499620 1.089980
Cr2   Cr    Cr6+3 0.427030 0.651190 0.500980 1.046024
Cr3   Cr    Cr6+3 0.651280 0.421870 0.499380 1.034104
O13   O     O_3   0.499990 0.499990 0.499990 -0.264698
N1    N     N_R   0.652327 0.591148 0.773552 -0.236370
N2    N     N_R   0.647740 0.588229 0.735602 -0.241674
C7    C     C_R   0.629060 0.621732 0.593601 0.068024
C8    C     C_R   0.709089 0.550569 0.617241 0.055818
C9    C     C_R   0.708882 0.571701 0.656168 -0.140999
C10   C     C_R   0.631797 0.662965 0.672463 0.006250
C11   C     C_R   0.558327 0.739638 0.648622 0.090090
C12   C     C_R   0.557433 0.719242 0.609176 0.101930
N3    N     N_R   0.610334 0.758544 0.732779 -0.205495
N4    N     N_R   0.615171 0.761401 0.770809 -0.144003
C13   C     C_R   0.637290 0.677372 0.791790 0.389344
C14   C     C_R   0.627730 0.671408 0.714490 0.333697
C15   C     C_R   0.752400 0.603368 0.848007 0.062899
C16   C     C_R   0.778791 0.613916 0.885582 0.103121
C17   C     C_R   0.609445 0.765397 0.894871 0.155924
C18   C     C_R   0.583767 0.755646 0.856891 0.180046
C19   C     C_R   0.656478 0.676681 0.833097 -0.017038
C20   C     C_R   0.709486 0.698062 0.908777 -0.011651
H1    H     H_    0.768056 0.514142 0.674130 0.138885
C21   C     C_R   0.720613 0.077290 0.906059 0.004423
C22   C     C_R   0.651890 0.071121 0.880304 -0.135537
C23   C     C_R   0.651695 0.094222 0.841900 -0.094386
C24   C     C_R   0.719753 0.124445 0.828351 0.035860
C25   C     C_R   0.783291 0.138572 0.853981 -0.039894
C26   C     C_R   0.783690 0.116481 0.893067 0.197640
C27   C     C_R   0.683910 0.235179 0.771434 0.065790
C28   C     C_R   0.675023 0.247320 0.731692 -0.127908
C29   C     C_R   0.708945 0.162305 0.707261 -0.037516
C30   C     C_R   0.758377 0.062463 0.722242 0.094987
C31   C     C_R   0.766130 0.048824 0.762235 0.240894
C32   C     C_R   0.726801 0.136070 0.786814 0.012294
C33   C     C_R   0.593623 0.189310 0.651582 0.103575
C34   C     C_R   0.566334 0.217942 0.613215 0.253982
C35   C     C_R   0.722052 0.227605 0.604810 -0.177171
C36   C     C_R   0.749893 0.196975 0.642460 -0.158491
C37   C     C_R   0.685045 0.180555 0.666260 -0.013999
C38   C     C_R   0.628391 0.242846 0.590077 -0.022872
H2    H     H_    0.602336 0.042029 0.889233 0.195120
H3    H     H_    0.820234 0.190219 0.653575 0.132299
H4    H     H_    0.637969 0.323635 0.719686 0.135607
H5    H     H_    0.601414 0.084260 0.822315 0.153636
H6    H     H_    0.833583 0.165123 0.843345 0.170626
H7    H     H_    0.771952 0.244475 0.587796 0.152954
C39   C     C_R   0.096227 0.695165 0.912128 0.019941
C40   C     C_R   0.129212 0.754786 0.892529 -0.085602
C41   C     C_R   0.157727 0.734815 0.854104 -0.083752
C42   C     C_R   0.154443 0.654575 0.834692 0.032973
C43   C     C_R   0.131605 0.588562 0.855137 -0.103265
C44   C     C_R   0.102722 0.608692 0.893679 -0.115894
C45   C     C_R   0.225589 0.554095 0.773794 -0.111751
C46   C     C_R   0.232961 0.550075 0.733850 -0.079263
C47   C     C_R   0.175579 0.639278 0.712221 0.038869
C48   C     C_R   0.110623 0.732195 0.731163 -0.095629
C49   C     C_R   0.105145 0.736555 0.770948 -0.068304
C50   C     C_R   0.162820 0.647836 0.792601 0.027611
C51   C     C_R   0.210289 0.712885 0.654826 -0.146115
C52   C     C_R   0.238720 0.707448 0.616644 -0.131518
C53   C     C_R   0.225013 0.554984 0.607810 -0.086494
C54   C     C_R   0.194568 0.560765 0.646268 0.116038
C55   C     C_R   0.191396 0.638173 0.670382 0.052319
C56   C     C_R   0.250345 0.626247 0.593178 -0.005336
H8    H     H_    0.126324 0.821210 0.906049 0.174390
H9    H     H_    0.078728 0.560817 0.908186 0.144157
H10   H     H_    0.285861 0.478025 0.719963 0.156714
H11   H     H_    0.270968 0.484893 0.790028 0.116906
H12   H     H_    0.177174 0.785391 0.838963 0.150570
H13   H     H_    0.065449 0.801907 0.715160 0.129105
H14   H     H_    0.055707 0.809492 0.784868 0.176862
H15   H     H_    0.208428 0.772850 0.672782 0.121510
H16   H     H_    0.257867 0.763447 0.606241 0.143311
H17   H     H_    0.128950 0.525994 0.840672 0.125228
H18   H     H_    0.232335 0.492839 0.589707 0.156054
C57   C     C_R   0.688165 0.717541 0.089575 0.011228
C58   C     C_R   0.617310 0.804530 0.110603 -0.160361
C59   C     C_R   0.591955 0.795588 0.148118 -0.139110
C60   C     C_R   0.636761 0.699488 0.165473 -0.001048
C61   C     C_R   0.701279 0.611388 0.143835 -0.076452
C62   C     C_R   0.725734 0.619000 0.105637 0.195778
C63   C     C_R   0.598364 0.622217 0.222640 0.117523
C64   C     C_R   0.596984 0.612775 0.262588 -0.071443
C65   C     C_R   0.619427 0.673662 0.286800 0.048743
C66   C     C_R   0.642669 0.744923 0.271329 -0.075762
C67   C     C_R   0.645501 0.754101 0.231799 -0.131436
C68   C     C_R   0.624698 0.692481 0.207121 0.059813
C69   C     C_R   0.544784 0.736385 0.352812 0.216812
C70   C     C_R   0.547528 0.716006 0.392077 -0.110111
C71   C     C_R   0.700388 0.550300 0.382749 -0.134463
C72   C     C_R   0.699053 0.569715 0.343830 -0.166745
C73   C     C_R   0.620506 0.660826 0.328426 0.002792
C74   C     C_R   0.622488 0.621591 0.407000 -0.019676
H19   H     H_    0.586241 0.880673 0.098942 0.152822
H20   H     H_    0.757899 0.512006 0.325364 0.125660
H21   H     H_    0.577990 0.558464 0.274934 0.102788
H22   H     H_    0.541011 0.864405 0.164258 0.131449
H23   H     H_    0.660384 0.791991 0.289884 0.128208
H24   H     H_    0.666701 0.807701 0.220388 0.108853
H25   H     H_    0.486674 0.771236 0.410533 0.164891
H26   H     H_    0.734969 0.536728 0.157035 0.181671
H27   H     H_    0.758935 0.476679 0.393332 0.143784
C75   C     C_R   0.696254 0.107938 0.087169 0.040910
C76   C     C_R   0.766865 0.136562 0.101723 0.173979
C77   C     C_R   0.756131 0.172926 0.139477 -0.100613
C78   C     C_R   0.673513 0.187098 0.162260 -0.032696
C79   C     C_R   0.596901 0.171998 0.146282 -0.124822
C80   C     C_R   0.607181 0.132762 0.109139 0.061389
C81   C     C_R   0.579116 0.277517 0.221956 -0.110193
C82   C     C_R   0.573415 0.283811 0.261775 -0.119740
C83   C     C_R   0.659894 0.220454 0.283886 0.028724
C84   C     C_R   0.753563 0.154701 0.265600 -0.109154
C85   C     C_R   0.759254 0.148307 0.225735 -0.106223
C86   C     C_R   0.671405 0.207765 0.203660 0.038558
C87   C     C_R   0.724700 0.229374 0.348723 -0.120527
C88   C     C_R   0.708813 0.246005 0.388093 -0.123314
C89   C     C_R   0.550654 0.240960 0.382766 -0.115270
C90   C     C_R   0.566437 0.224715 0.343421 -0.116029
C91   C     C_R   0.651375 0.222951 0.325939 0.026841
C92   C     C_R   0.619284 0.256489 0.405194 0.022568
H28   H     H_    0.510181 0.217434 0.326399 0.120785
H29   H     H_    0.501038 0.337228 0.275343 0.107436
H30   H     H_    0.510819 0.325101 0.205452 0.111688
H31   H     H_    0.812803 0.189755 0.151253 0.165104
H32   H     H_    0.821174 0.105352 0.282133 0.110968
H33   H     H_    0.830955 0.093037 0.212228 0.111966
H34   H     H_    0.790992 0.227827 0.335818 0.111516
H35   H     H_    0.763185 0.257519 0.404636 0.130252
H36   H     H_    0.531646 0.184226 0.163496 0.119306
H37   H     H_    0.481184 0.248209 0.395095 0.140287
C93   C     C_R   0.086782 0.706305 0.093272 -0.003486
C94   C     C_R   0.099981 0.615712 0.109618 -0.130098
C95   C     C_R   0.137161 0.589773 0.146644 -0.147423
C96   C     C_R   0.162225 0.653535 0.167816 0.053258
C97   C     C_R   0.157077 0.740521 0.150652 0.110283
C98   C     C_R   0.119853 0.765808 0.113220 -0.093928
C99   C     C_R   0.266128 0.628560 0.226365 -0.098566
C100  C     C_R   0.273596 0.627031 0.266049 -0.143197
C101  C     C_R   0.193354 0.634199 0.288942 0.052125
C102  C     C_R   0.106086 0.639493 0.271810 0.114838
C103  C     C_R   0.099572 0.640561 0.231807 -0.102202
C104  C     C_R   0.178218 0.637410 0.209160 0.014362
C105  C     C_R   0.198215 0.564351 0.353657 -0.089274
C106  C     C_R   0.220880 0.559372 0.392715 0.082952
C107  C     C_R   0.242701 0.708171 0.385886 -0.148118
C108  C     C_R   0.220423 0.712144 0.347163 -0.134590
C109  C     C_R   0.201814 0.638130 0.330659 0.016052
C110  C     C_R   0.248261 0.629035 0.408714 0.056326
H38   H     H_    0.076130 0.567798 0.094686 0.158536
H39   H     H_    0.110796 0.835397 0.100668 0.162536
H40   H     H_    0.221921 0.770509 0.329676 0.152393
H41   H     H_    0.341534 0.621675 0.279023 0.124323
H42   H     H_    0.327534 0.625444 0.209101 0.142863
H43   H     H_    0.141191 0.522728 0.159613 0.126200
H44   H     H_    0.031151 0.648541 0.218275 0.106441
H45   H     H_    0.182746 0.507529 0.340969 0.141164
H46   H     H_    0.262645 0.763113 0.397227 0.157409
O14   O     O_R   0.017640 0.822070 0.960410 -0.494470
O15   O     O_R   0.822000 0.989470 0.960340 -0.444619
C111  C     C_R   0.735265 0.027033 0.943606 0.568782
O16   O     O_R   0.666920 0.007430 0.955290 -0.499234
O17   O     O_R   0.694410 0.812480 0.959650 -0.456451
C112  C     C_R   0.745255 0.722275 0.945133 0.596348
O18   O     O_R   0.831550 0.656950 0.958960 -0.459907
O19   O     O_R   0.998590 0.685540 0.963930 -0.504655
C113  C     C_R   0.039018 0.733624 0.948504 0.536957
O20   O     O_R   0.008220 0.831200 0.045060 -0.492791
O21   O     O_R   0.813270 0.997930 0.038810 -0.456896
C114  C     C_R   0.722212 0.040502 0.052608 0.574205
O22   O     O_R   0.657500 0.016560 0.039940 -0.474117
O23   O     O_R   0.685680 0.820940 0.038120 -0.500687
C115  C     C_R   0.732356 0.733645 0.054238 0.571386
O24   O     O_R   0.822130 0.666070 0.043610 -0.460390
O25   O     O_R   0.989860 0.694000 0.042400 -0.508621
C116  C     C_R   0.028047 0.744419 0.057732 0.533343
Cr4   Cr    Cr6+3 0.910810 0.908010 0.001130 1.161175
Cr5   Cr    Cr6+3 0.682800 0.909890 0.998370 1.128454
Cr6   Cr    Cr6+3 0.908370 0.682300 0.002180 1.090438
O26   O     O_3   0.833990 0.833400 0.000560 -0.298480
N5    N     N_3   0.788522 0.454025 0.602513 -0.590939
H47   H     H_    0.859224 0.449230 0.607764 0.233816
H48   H     H_    0.786461 0.395557 0.617737 0.226498
N6    N     N_R   0.847519 0.134557 0.918882 0.087601
O27   O     O_R   0.933336 0.126104 0.906798 -0.303775
O28   O     O_R   0.813242 0.173962 0.952707 -0.255220
N7    N     N_3   0.645041 0.323340 0.796418 -0.608688
H49   H     H_    0.578593 0.332172 0.809595 0.238494
H50   H     H_    0.622961 0.389812 0.780624 0.254817
N8    N     N_3   0.802692 0.974559 0.697163 -0.561662
H51   H     H_    0.745087 0.976536 0.679885 0.242128
H52   H     H_    0.856437 0.978984 0.679462 0.225498
N9    N     N_R   0.811714 0.946942 0.777770 0.086021
O29   O     O_R   0.795579 0.877853 0.761809 -0.288701
O30   O     O_R   0.868330 0.922926 0.808304 -0.371488
N10   N     N_3   0.526384 0.171713 0.675519 -0.549296
H53   H     H_    0.566795 0.097136 0.686038 0.236814
H54   H     H_    0.503119 0.222964 0.698724 0.236686
N11   N     N_R   0.474939 0.223063 0.598401 0.113196
O31   O     O_R   0.387484 0.277288 0.616047 -0.318878
O32   O     O_R   0.480968 0.165367 0.569411 -0.315373
N12   N     N_3   0.481825 0.796934 0.585081 -0.582823
H55   H     H_    0.490069 0.861816 0.586869 0.265110
H56   H     H_    0.408994 0.816569 0.595517 0.252827
N13   N     N_3   0.168493 0.487825 0.661061 -0.610179
H57   H     H_    0.177282 0.434531 0.639850 0.260063
H58   H     H_    0.090522 0.528004 0.668304 0.235434
N14   N     N_3   0.878474 0.540560 0.899533 -0.551224
H59   H     H_    0.885822 0.467766 0.898231 0.281369
H60   H     H_    0.934023 0.540750 0.881555 0.244638
N15   N     N_R   0.788179 0.526779 0.083807 0.095861
O33   O     O_R   0.765965 0.520277 0.048248 -0.261051
O34   O     O_R   0.857081 0.444343 0.100768 -0.306325
N16   N     N_3   0.572559 0.561746 0.197881 -0.630746
H61   H     H_    0.558000 0.511928 0.213892 0.223549
H62   H     H_    0.503949 0.611992 0.184189 0.245252
N17   N     N_R   0.462051 0.830849 0.338236 0.070795
O35   O     O_R   0.422325 0.833546 0.304875 -0.338253
O36   O     O_R   0.418144 0.912125 0.360142 -0.340890
N18   N     N_R   0.849356 0.129696 0.078708 0.097421
O37   O     O_R   0.938118 0.102159 0.094063 -0.322800
O38   O     O_R   0.831036 0.167182 0.044312 -0.232339
N19   N     N_3   0.528494 0.114437 0.094735 -0.579217
H63   H     H_    0.459344 0.184198 0.094905 0.244724
H64   H     H_    0.520465 0.065183 0.113542 0.218749
N20   N     N_3   0.480399 0.836258 0.663945 -0.620504
H65   H     H_    0.515727 0.874834 0.675672 0.271198
H66   H     H_    0.440431 0.822835 0.685531 0.254492
N21   N     N_3   0.827562 0.520512 0.824779 -0.618797
H67   H     H_    0.842344 0.550312 0.800198 0.256694
H68   H     H_    0.798758 0.472593 0.816962 0.272398
N22   N     N_3   0.023138 0.648024 0.295048 -0.637885
H69   H     H_    0.966773 0.646771 0.277913 0.224960
H70   H     H_    0.988763 0.719850 0.308617 0.235671
N23   N     N_3   0.219867 0.481190 0.415502 -0.598271
H71   H     H_    0.146606 0.489673 0.413855 0.231198
H72   H     H_    0.271978 0.409944 0.403439 0.229557
N24   N     N_3   0.182128 0.806782 0.172225 -0.620896
H73   H     H_    0.124363 0.845013 0.192785 0.237967
H74   H     H_    0.181068 0.863123 0.154611 0.246211
N25   N     N_R   0.532063 0.840571 0.919787 0.115910
O39   O     O_R   0.500221 0.937514 0.915148 -0.275858
O40   O     O_R   0.503167 0.811343 0.949990 -0.294488
N26   N     N_R   0.482626 0.824121 0.842755 0.113173
O41   O     O_R   0.429255 0.787540 0.826844 -0.315920
O42   O     O_R   0.448395 0.922296 0.841829 -0.256210

loop_
_geom_bond_atom_site_label_1
_geom_bond_atom_site_label_2
_geom_bond_distance
_ccdc_geom_bond_type
C49   H14   1.081275 S    
O19   Cr6   1.921005 S    
C108  C109  1.397354 A    
C34   C38   1.420339 A    
C51   C55   1.403693 A    
C46   C47   1.407006 A    
C67   C68   1.406211 A    
C42   C50   1.473125 S    
C57   C58   1.406121 A    
C80   N19   1.433286 S    
C48   C49   1.390442 A    
C81   C82   1.392291 A    
C4    C110  1.474188 S    
N12   H56   1.045801 S    
O15   C111  1.277892 A    
N12   H55   1.045608 S    
C76   C77   1.400732 A    
C34   N11   1.434912 S    
O4    Cr2   1.929674 S    
C97   N24   1.437798 S    
N7    H49   1.045557 S    
N20   H65   1.044851 S    
C88   C92   1.406654 A    
O8    Cr1   1.926017 S    
C8    C9    1.392815 A    
C13   C19   1.470149 S    
N6    O28   1.301334 A    
O25   Cr6   1.928655 S    
C85   H33   1.083205 S    
C10   C11   1.410867 A    
C106  C110  1.415322 A    
C82   C83   1.404578 A    
C17   C20   1.418918 A    
O2    C1    1.275346 A    
C18   N26   1.436612 S    
C102  C103  1.399900 A    
O12   C6    1.274100 A    
O4    C2    1.278615 A    
N10   H54   1.045470 S    
C2    C7    1.489918 S    
C82   H29   1.083409 S    
Cr6   O26   1.972169 S    
N22   H70   1.045527 S    
C94   H38   1.083093 S    
C60   C61   1.402451 A    
C59   C60   1.398749 A    
C63   C68   1.413258 A    
O14   C113  1.269487 A    
C35   C36   1.390917 A    
C65   C73   1.466824 S    
N19   H63   1.045621 S    
C25   C26   1.406727 A    
C75   C80   1.419596 A    
C106  N23   1.432697 S    
O17   Cr5   1.928192 S    
C98   H39   1.083361 S    
C112  O18   1.272406 A    
C93   C116  1.468845 S    
O15   Cr4   1.927174 S    
C69   N17   1.440751 S    
C64   H21   1.084024 S    
C45   C50   1.402029 A    
C61   H26   1.083063 S    
C72   C73   1.400554 A    
C100  C101  1.404688 A    
N3    N4    1.331341 A    
C41   C42   1.402302 A    
N1    C13   1.354144 A    
N24   H74   1.045669 S    
C27   N7    1.438058 S    
C31   N9    1.442738 S    
N17   O35   1.301264 A    
C77   H31   1.083619 S    
C43   C44   1.396981 A    
C11   C12   1.409983 A    
C85   C86   1.404787 A    
C21   C111  1.480127 S    
O16   Cr5   2.040684 S    
C57   C115  1.478884 S    
C45   C46   1.397309 A    
Cr4   O26   1.972975 S    
N21   H68   1.044753 S    
C39   C40   1.405235 A    
C94   C95   1.388675 A    
C10   C14   1.470287 S    
N5    H47   1.045633 S    
O10   C5    1.274059 A    
C105  C109  1.398847 A    
Cr3   O13   1.971467 S    
C58   C59   1.390110 A    
N17   O36   1.301449 A    
C70   H25   1.083263 S    
C107  C108  1.387800 A    
C64   C65   1.401758 A    
C103  H44   1.083936 S    
C6    C92   1.472383 S    
C47   C55   1.478379 S    
C53   C56   1.405149 A    
C87   H34   1.083109 S    
C66   C67   1.390978 A    
N15   O33   1.301496 A    
C54   C55   1.412972 A    
C20   C112  1.490882 S    
N7    H50   1.045853 S    
C23   H5    1.083714 S    
C27   C32   1.408480 A    
C54   N13   1.437318 S    
C90   H28   1.083280 S    
N18   O38   1.301403 A    
O1    Cr1   2.043530 S    
C47   C48   1.402135 A    
C115  O24   1.271128 A    
C29   C37   1.470763 S    
C63   C64   1.404386 A    
O10   Cr2   1.920667 S    
O20   Cr4   2.044231 S    
C16   C20   1.417192 A    
C43   H17   1.083168 S    
O1    C3    1.272242 A    
C49   C50   1.403345 A    
N13   H57   1.045547 S    
Cr5   O26   1.971812 S    
N6    O27   1.301412 A    
C71   C74   1.402630 A    
N8    H51   1.044492 S    
N23   H72   1.045830 S    
C79   H36   1.083790 S    
N10   H53   1.044398 S    
O6    C3    1.278177 A    
N26   O42   1.300501 A    
C105  H45   1.083777 S    
C7    C8    1.416630 A    
C24   C25   1.400166 A    
C99   H42   1.083248 S    
O12   Cr3   1.927500 S    
C1    O3    1.269902 A    
C30   C31   1.409581 A    
C26   N6    1.437447 S    
C96   C104  1.465920 S    
C114  O22   1.273244 A    
N19   H64   1.045597 S    
C15   C16   1.401510 A    
C89   C92   1.404491 A    
C101  C102  1.408718 A    
O17   C112  1.278954 A    
C15   C19   1.411085 A    
C22   C23   1.387793 A    
O23   C115  1.276172 A    
C17   C18   1.408334 A    
C9    H1    1.084607 S    
C75   C114  1.490303 S    
N9    O29   1.301393 A    
C35   C38   1.407825 A    
O7    Cr1   2.041257 S    
C69   C70   1.403566 A    
N24   H73   1.045604 S    
Cr1   O13   1.972725 S    
N16   H62   1.045453 S    
C29   C30   1.408437 A    
C97   C98   1.401268 A    
N3    C14   1.356211 A    
C71   C72   1.390463 A    
O18   Cr6   2.047295 S    
O24   Cr6   2.037876 S    
C4    O9    1.270927 A    
C59   H22   1.083471 S    
C8    N5    1.433606 S    
C30   N8    1.435185 S    
C52   H16   1.083127 S    
C2    O5    1.272856 A    
C22   H2    1.082737 S    
C95   H43   1.083683 S    
C27   C28   1.398902 A    
N9    O30   1.301211 A    
Cr2   O13   1.972320 S    
C99   C104  1.397672 A    
N14   H59   1.045666 S    
C88   H35   1.083095 S    
C93   C98   1.403510 A    
C84   H32   1.083085 S    
C1    C56   1.473413 S    
C78   C79   1.396822 A    
C41   H12   1.083450 S    
C28   C29   1.397800 A    
C58   H19   1.082387 S    
C21   C22   1.407723 A    
C53   H18   1.083312 S    
N25   O39   1.300627 A    
C83   C91   1.472220 S    
C72   H20   1.083827 S    
C9    C10   1.396170 A    
C45   H11   1.083114 S    
C23   C24   1.395099 A    
C101  C109  1.465463 S    
C12   N12   1.434978 S    
C105  C106  1.399509 A    
C33   C37   1.411358 A    
C78   C86   1.472882 S    
C7    C12   1.419971 A    
C33   N10   1.435562 S    
C89   H37   1.083070 S    
C33   C34   1.408218 A    
C62   N15   1.438088 S    
C16   N14   1.435703 S    
C28   H4    1.084193 S    
O14   Cr4   2.040402 S    
O9    Cr2   2.046039 S    
O21   Cr4   1.922620 S    
O2    Cr1   1.923776 S    
C57   C62   1.418544 A    
C69   C73   1.415223 A    
C5    C74   1.474327 S    
O20   C116  1.269884 A    
C107  C110  1.406645 A    
C17   N25   1.434221 S    
C102  N22   1.437670 S    
C53   C54   1.406076 A    
N25   O40   1.300976 A    
O6    Cr3   1.922522 S    
C87   C91   1.401830 A    
N21   H67   1.045527 S    
N13   H58   1.045469 S    
O11   Cr3   2.039239 S    
C36   H3    1.083525 S    
N26   O41   1.301268 A    
C40   C41   1.391803 A    
O23   Cr5   1.922395 S    
C51   H15   1.083351 S    
N11   O32   1.301141 A    
C90   C91   1.403269 A    
C66   H23   1.083385 S    
C87   C88   1.393842 A    
C15   N21   1.436453 S    
C60   C68   1.476383 S    
C61   C62   1.403822 A    
N4    C13   1.357874 A    
C76   N18   1.436572 S    
C83   C84   1.402151 A    
N11   O31   1.301103 A    
O21   C114  1.278535 A    
N15   O34   1.301532 A    
O5    Cr3   2.046757 S    
C84   C85   1.393930 A    
C103  C104  1.402731 A    
C52   C56   1.401779 A    
C51   C52   1.388744 A    
O22   Cr5   2.044053 S    
C71   H27   1.083099 S    
C36   C37   1.394781 A    
N23   H71   1.045565 S    
O7    C6    1.270916 A    
C79   C80   1.396278 A    
C44   H9    1.082573 S    
C5    O11   1.270197 A    
C18   C19   1.407668 A    
N18   O37   1.301429 A    
N16   H61   1.045923 S    
C11   N20   1.434483 S    
N20   H66   1.045553 S    
C107  H46   1.083173 S    
C63   N16   1.437552 S    
C21   C26   1.420065 A    
C39   C44   1.406239 A    
C42   C43   1.402811 A    
C67   H24   1.083439 S    
N2    C14   1.357220 A    
C46   H10   1.082870 S    
N22   H69   1.045766 S    
C48   H13   1.083452 S    
N1    N2    1.328349 A    
C24   C32   1.472315 S    
C111  O16   1.270497 A    
O3    Cr2   2.038015 S    
C70   C74   1.405708 A    
C40   H8    1.083084 S    
C99   C100  1.389667 A    
C95   C96   1.399876 A    
N8    H52   1.045540 S    
O25   C116  1.273388 A    
C39   C113  1.475054 S    
C25   H6    1.083375 S    
C65   C66   1.396088 A    
N5    H48   1.045753 S    
C93   C94   1.403028 A    
C89   C90   1.392394 A    
O19   C113  1.276504 A    
C3    C38   1.486714 S    
C75   C76   1.423369 A    
C81   C86   1.402746 A    
C81   H30   1.083283 S    
C108  H40   1.083699 S    
C100  H41   1.083905 S    
N14   H60   1.045571 S    
C35   H7    1.082879 S    
O8    C4    1.274228 A    
C31   C32   1.419411 A    
C77   C78   1.397213 A    
C96   C97   1.411544 A    
