data_mof_unit_27309.cif
_audit_creation_date              2012-12-10T17:48:56-0500
_audit_creation_method            fapswitch 2.2
_symmetry_space_group_name_H-M    P1
_symmetry_Int_Tables_number       1
_space_group_crystal_system       triclinic
_cell_length_a                    10.800182
_cell_length_b                    14.746884
_cell_length_c                    14.684888
_cell_angle_alpha                 64.824747
_cell_angle_beta                  104.087436
_cell_angle_gamma                 103.496605
_cell_volume                      2030.43832986

loop_
_atom_site_label
_atom_site_type_symbol
_atom_type_description
_atom_site_fract_x
_atom_site_fract_y
_atom_site_fract_z
_atom_type_partial_charge
C1    C     C_R   0.469807 0.119718 0.311476 0.888369
C2    C     C_3   0.876720 0.005139 0.486610 -0.169817
C3    C     C_3   0.956889 0.002969 0.592346 -0.487039
C4    C     C_3   0.939546 0.103795 0.400506 0.623925
C5    C     C_R   0.437318 0.187959 0.202350 -0.147910
C6    C     C_R   0.519327 0.814929 0.797355 -0.076374
C7    C     C_R   0.325367 0.227246 0.027716 -0.233557
C8    C     C_R   0.360136 0.155109 0.125172 0.445835
C9    C     C_R   0.477103 0.292442 0.177204 -0.272775
C10   C     C_R   0.433700 0.365362 0.081348 0.125324
C11   C     C_R   0.359126 0.330598 0.005904 0.072461
C12   C     C_R   0.261085 0.996273 0.505335 0.845854
C13   C     C_R   0.462985 0.471701 0.057719 0.026624
C14   C     C_R   0.428431 0.540514 0.955996 0.068974
C15   C     C_R   0.348203 0.502152 0.884846 -0.088555
C16   C     C_R   0.315059 0.399136 0.909401 -0.145487
C17   C     C_R   0.521401 0.511309 0.132800 -0.288029
C18   C     C_R   0.555954 0.615376 0.108248 0.350606
C19   C     C_R   0.536928 0.683333 0.005151 0.019743
C20   C     C_R   0.474524 0.645540 0.928528 0.028986
C21   C     C_R   0.578848 0.788365 0.975872 -0.094004
C22   C     C_R   0.569861 0.852977 0.873261 -0.208337
C23   C     C_R   0.517848 0.880549 0.688262 0.821923
C24   C     C_R   0.466323 0.713323 0.825601 -0.131023
C25   C     C_R   0.731920 0.297828 0.652411 -0.303923
C26   C     C_R   0.691349 0.210101 0.632461 0.442612
C27   C     C_R   0.515071 0.283495 0.510619 -0.028099
C28   C     C_R   0.548565 0.372745 0.532569 -0.005579
C29   C     C_R   0.659572 0.377234 0.605526 0.036715
C30   C     C_R   0.476449 0.456474 0.486949 0.084908
C31   C     C_R   0.514356 0.539846 0.519737 -0.042628
C32   C     C_R   0.613314 0.529858 0.606195 0.409778
C33   C     C_R   0.692492 0.456253 0.639031 -0.150901
C34   C     C_R   0.738808 0.004735 0.491405 0.861315
C35   C     C_R   0.365126 0.457989 0.412590 -0.154941
C36   C     C_R   0.291662 0.536358 0.372942 -0.138187
C37   C     C_R   0.330847 0.619861 0.400093 0.154893
C38   C     C_R   0.446691 0.626307 0.468296 0.014455
C39   C     C_R   0.254515 0.697234 0.359980 -0.280738
C40   C     C_R   0.295725 0.782063 0.384569 0.166867
C41   C     C_R   0.490626 0.720740 0.479203 0.151631
C42   C     C_3   0.038994 0.892953 0.501873 0.226596
C43   C     C_3   0.893890 0.902043 0.482891 0.126059
C44   C     C_3   0.102522 0.009442 0.596318 -0.350687
C45   C     C_3   0.076700 0.083688 0.403453 -0.506032
C46   C     C_3   0.122730 0.994794 0.503517 -0.120476
Cu1   Cu    Cu3+1 0.465900 0.918260 0.475680 1.096250
Cu2   Cu    Cu3+1 0.534100 0.081740 0.524320 0.954999
H1    H     H_    0.154409 0.084178 0.595935 0.177341
H2    H     H_    0.944332 0.066706 0.607890 0.202344
H3    H     H_    0.254145 0.372970 0.852173 0.149858
H4    H     H_    0.421626 0.688729 0.765056 0.222804
H5    H     H_    0.603436 0.932571 0.853513 0.173415
H6    H     H_    0.266614 0.203121 0.968542 0.184793
H7    H     H_    0.542636 0.315432 0.234266 0.173253
H8    H     H_    0.061290 0.881287 0.438268 0.164442
H9    H     H_    0.305526 0.549997 0.810141 0.181151
H10   H     H_    0.536935 0.462494 0.212370 0.185436
H11   H     H_    0.621238 0.821903 0.031044 0.230792
H12   H     H_    0.771790 0.453133 0.701529 0.191872
H13   H     H_    0.584593 0.735363 0.520045 0.199965
H14   H     H_    0.231907 0.836947 0.360276 0.191189
H15   H     H_    0.204184 0.532385 0.318852 0.145562
H16   H     H_    0.818155 0.302663 0.707292 0.157857
H17   H     H_    0.432803 0.274509 0.454996 0.131632
H18   H     H_    0.330310 0.398091 0.385034 0.122277
H19   H     H_    0.162006 0.691126 0.311823 0.172581
H20   H     H_    0.851128 0.841659 0.548721 0.206587
H21   H     H_    0.143622 0.951515 0.668868 0.239434
H22   H     H_    0.922254 0.933402 0.655691 0.230289
H23   H     H_    0.147529 0.154251 0.393158 0.172352
H24   H     H_    0.079724 0.064634 0.338719 0.238528
N1    N     N_R   0.585360 0.204570 0.560800 -0.198566
N2    N     N_R   0.414550 0.795430 0.439160 -0.193342
O1    O     O_R   0.455060 0.022100 0.338110 -0.476843
O2    O     O_R   0.512640 0.160150 0.379180 -0.628073
O3    O     O_R   0.288900 0.930980 0.479450 -0.571434
O4    O     O_R   0.346480 0.069030 0.520520 -0.607639
O5    O     O_R   0.487360 0.839850 0.620820 -0.549098
O6    O     O_R   0.544940 0.977900 0.661890 -0.561905
O7    O     O_R   0.653520 0.930970 0.479480 -0.551009
O8    O     O_R   0.711100 0.069020 0.520550 -0.588261
S1    S     S_3+6 0.075519 0.779377 0.614001 -0.005323
O9    O     O_2   0.019009 0.688940 0.587051 -0.229167
O10   O     O_2   0.218243 0.779683 0.647802 -0.322606
O11   O     O_3   0.010311 0.768511 0.711807 -0.553596
H25   H     H_    0.024649 0.700812 0.765045 0.392378
N3    N     N_2   0.957979 0.193391 0.425657 -0.456395
H26   H     H_    0.040152 0.208554 0.473148 0.230478
C47   C     C_3   0.858330 0.255062 0.401431 -0.507268
H27   H     H_    0.845813 0.260102 0.471773 0.188650
H28   H     H_    0.764286 0.224545 0.366938 0.264188
H29   H     H_    0.888659 0.332812 0.347187 0.233863
S2    S     S_3+6 0.625978 0.657011 0.209043 -0.014375
O12   O     O_2   0.540539 0.722773 0.211610 -0.274166
O13   O     O_2   0.640303 0.568959 0.310261 -0.321633
O14   O     O_3   0.772354 0.725192 0.189172 -0.471497
H30   H     H_    0.822629 0.678582 0.186154 0.347548
S3    S     S_3+6 0.291975 0.027786 0.146538 0.015796
O15   O     O_2   0.201730 0.993766 0.221929 -0.314617
O16   O     O_2   0.216447 0.018942 0.049306 -0.299299
O17   O     O_3   0.408903 0.954210 0.191516 -0.463283
H31   H     H_    0.367910 0.891211 0.180901 0.378421
N4    N     N_2   0.765224 0.129338 0.682832 -0.390074
H32   H     H_    0.848540 0.147588 0.652972 0.229392
C48   C     C_3   0.794208 0.093996 0.792996 -0.677062
H33   H     H_    0.877328 0.144341 0.816693 0.222614
H34   H     H_    0.821022 0.016826 0.825163 0.244195
H35   H     H_    0.709570 0.091823 0.824712 0.235285
S4    S     S_3+6 0.808152 0.863044 0.378808 0.086768
O18   O     O_2   0.687543 0.909531 0.323811 -0.185115
O19   O     O_2   0.892552 0.884608 0.302189 -0.190269
O20   O     O_3   0.768020 0.736618 0.432605 -0.505023
H36   H     H_    0.697666 0.719311 0.382784 0.414364
S5    S     S_3+6 0.611557 0.576558 0.698866 -0.030733
O21   O     O_2   0.478080 0.597430 0.687352 -0.362670
O22   O     O_2   0.645623 0.498206 0.804127 -0.271670
O23   O     O_3   0.719437 0.682275 0.685107 -0.528205
H37   H     H_    0.702166 0.708785 0.731759 0.367007
S6    S     S_3+6 0.853505 0.136038 0.269218 0.026189
O24   O     O_2   0.710457 0.111122 0.266981 -0.301689
O25   O     O_2   0.886348 0.248047 0.210477 -0.282513
O26   O     O_3   0.895363 0.077898 0.207093 -0.454989
H38   H     H_    0.839622 0.098968 0.139357 0.395915

loop_
_geom_bond_atom_site_label_1
_geom_bond_atom_site_label_2
_ccdc_geom_bond_type
C44   H1    S    
C24   H4    S    
C45   H23   S    
Cu2   O2    S    
C19   C20   A    
C16   H3    S    
Cu1   O5    S    
N4    C48   S    
O14   H30   S    
C7    C8    A    
C45   C46   S    
C7    C11   A    
C30   C35   A    
C1    C5    S    
C36   C37   A    
C19   C21   A    
C8    S3    S    
C21   H11   S    
C30   C31   A    
C48   H33   S    
S5    O21   D    
C6    C22   A    
C29   C33   A    
C26   N1    A    
C40   H14   S    
C18   C19   A    
C42   C46   S    
Cu2   O4    S    
C20   C24   A    
S4    O18   D    
C13   C14   A    
C42   H8    S    
C41   N2    A    
O23   H37   S    
S1    O9    D    
S6    O25   D    
C43   H20   S    
S5    O22   D    
C12   O4    A    
C9    H7    S    
C43   S4    S    
C41   H13   S    
C23   O6    A    
C36   H15   S    
C9    C10   A    
S6    O26   S    
C17   H10   S    
C26   N4    S    
C2    C34   S    
C21   C22   A    
C45   H24   S    
C15   H9    S    
S2    O12   D    
N4    H32   S    
C3    H2    S    
C44   C46   S    
C22   H5    S    
C4    C45   S    
C25   C29   A    
C3    C44   S    
C1    O1    A    
Cu1   Cu2   S    
C14   C20   A    
O26   H38   S    
C3    H22   S    
C38   C41   A    
C12   C46   S    
C39   C40   A    
O11   H25   S    
S2    O14   S    
C25   C26   A    
C35   C36   A    
C2    C4    S    
C5    C9    A    
C37   C38   A    
C27   H17   S    
C11   C16   A    
C47   H28   S    
S3    O15   D    
C2    C43   S    
S5    O23   S    
C6    C24   A    
C12   O3    A    
S3    O17   S    
C17   C18   A    
C44   H21   S    
S2    O13   D    
S4    O20   S    
S1    O10   D    
N3    C47   S    
C33   H12   S    
C18   S2    S    
C42   C43   S    
Cu1   O3    S    
S6    O24   D    
C47   H29   S    
O20   H36   S    
C40   N2    A    
C28   C29   A    
S3    O16   D    
C1    O2    A    
C39   H19   S    
Cu2   N1    S    
C31   C32   A    
C42   S1    S    
Cu1   N2    S    
C10   C13   A    
C5    C8    A    
C4    N3    S    
C35   H18   S    
C31   C38   A    
C13   C17   A    
C32   C33   A    
Cu2   O6    S    
C28   C30   A    
C2    C3    S    
Cu1   O1    S    
C37   C39   A    
C47   H27   S    
C48   H34   S    
C6    C23   S    
Cu2   O8    S    
Cu1   O7    S    
C32   S5    S    
O17   H31   S    
S4    O19   D    
C10   C11   A    
S1    O11   S    
N3    H26   S    
C27   C28   A    
C14   C15   A    
C4    S6    S    
C34   O8    A    
C7    H6    S    
C23   O5    A    
C27   N1    A    
C25   H16   S    
C34   O7    A    
C15   C16   A    
C48   H35   S    
