data_mof_unit_35014.cif
_audit_creation_date              2013-03-05T16:18:10-0500
_audit_creation_method            fapswitch 2.2
_symmetry_space_group_name_H-M    P1
_symmetry_Int_Tables_number       1
_space_group_crystal_system       triclinic
_cell_length_a                    19.394236
_cell_length_b                    18.053885
_cell_length_c                    27.828796
_cell_angle_alpha                 89.842631
_cell_angle_beta                  90.490861
_cell_angle_gamma                 89.995008
_cell_volume                      9743.61659216

loop_
_atom_site_label
_atom_site_type_symbol
_atom_site_description
_atom_site_fract_x
_atom_site_fract_y
_atom_site_fract_z
_atom_type_partial_charge
O1    O     O_R   0.400150 0.561970 0.500010 -0.562165
O2    O     O_R   0.599850 0.438030 0.499990 -0.562169
O3    O     O_R   0.599850 0.561970 0.499990 -0.562249
O4    O     O_R   0.400150 0.438030 0.500010 -0.560768
C1    C     C_R   0.367312 0.500027 0.500078 0.895802
C2    C     C_R   0.632689 0.500053 0.499756 0.897368
O5    O     O_R   0.500010 0.561950 0.430260 -0.582066
O6    O     O_R   0.499990 0.438050 0.569740 -0.580574
O7    O     O_R   0.499990 0.561950 0.569740 -0.582737
O8    O     O_R   0.500010 0.438050 0.430260 -0.579814
C3    C     C_R   0.500495 0.500009 0.407310 0.807138
C4    C     C_R   0.499431 0.499784 0.592679 0.805422
Cu1   Cu    Cu3+1 0.500000 0.573360 0.500000 0.956604
Cu2   Cu    Cu3+1 0.500000 0.426640 0.500000 0.963299
C5    C     C_R   0.442085 0.474515 0.178526 0.535635
C6    C     C_R   0.553681 0.468525 0.822077 0.551047
O9    O     O_2   0.387095 0.458115 0.205808 -0.569274
O10   O     O_2   0.609777 0.452204 0.795804 -0.520648
N1    N     N_R   0.502498 0.493410 0.201034 -0.457249
N2    N     N_R   0.494808 0.490729 0.798837 -0.466484
C7    C     C_R   0.560615 0.509743 0.175800 0.568634
C8    C     C_R   0.436739 0.509508 0.823394 0.568142
C9    C     C_R   0.545254 0.444926 0.279340 -0.011223
C10   C     C_R   0.452949 0.443653 0.720294 -0.010093
C11   C     C_R   0.545588 0.448072 0.330099 -0.104120
C12   C     C_R   0.453367 0.447245 0.669548 -0.102403
C13   C     C_R   0.460165 0.548336 0.326813 -0.048351
C14   C     C_R   0.539883 0.546324 0.673410 -0.049537
C15   C     C_R   0.463842 0.547029 0.276666 -0.160823
C16   C     C_R   0.535859 0.544335 0.723568 -0.155638
C17   C     C_R   0.504741 0.495587 0.252821 0.285277
C18   C     C_R   0.493826 0.493358 0.747080 0.277825
C19   C     C_R   0.498798 0.484369 0.101333 -0.145903
C20   C     C_R   0.495416 0.480185 0.898566 -0.156341
C21   C     C_R   0.437690 0.471701 0.127721 -0.105919
C22   C     C_R   0.555862 0.463054 0.872778 -0.086028
C23   C     C_R   0.375345 0.455196 0.102328 0.209821
C24   C     C_R   0.615832 0.439374 0.898193 0.214216
C25   C     C_R   0.561255 0.502635 0.125416 -0.030973
C26   C     C_R   0.434431 0.501653 0.873774 -0.032558
C27   C     C_R   0.502286 0.499349 0.354160 -0.133080
C28   C     C_R   0.497294 0.498425 0.645804 -0.132666
H1    H     H_    0.431674 0.583955 0.255397 0.149759
H2    H     H_    0.568337 0.580451 0.745054 0.152681
C29   C     C_R   0.434121 0.485343 0.975134 0.054992
C30   C     C_R   0.559910 0.480795 0.024636 0.068107
C31   C     C_R   0.558689 0.466094 0.974504 -0.015670
C32   C     C_R   0.434337 0.473360 0.025630 -0.027558
C33   C     C_R   0.496055 0.476816 0.949348 0.003144
C34   C     C_R   0.497609 0.479401 0.050586 0.002062
C35   C     C_R   0.374741 0.508670 0.950181 -0.234932
C36   C     C_R   0.620826 0.500848 0.048834 -0.243454
C37   C     C_R   0.373873 0.516196 0.900275 0.254706
C38   C     C_R   0.622029 0.513228 0.098292 0.251585
O11   O     O_2   0.381971 0.536487 0.798799 -0.521236
O12   O     O_2   0.617428 0.532441 0.199851 -0.527683
C39   C     C_R   0.374214 0.454862 0.051639 0.207342
C40   C     C_R   0.617130 0.440391 0.949052 0.170048
H3    H     H_    0.328552 0.523922 0.969230 0.166029
H4    H     H_    0.667681 0.511440 0.029183 0.169121
C41   C     C_R   0.256237 0.554048 0.527488 0.150994
C42   C     C_R   0.747292 0.452363 0.528003 0.125911
C43   C     C_R   0.742690 0.551578 0.468066 0.126275
C44   C     C_R   0.253929 0.453215 0.468885 0.126210
C45   C     C_R   0.183739 0.556551 0.526729 0.171171
C46   C     C_R   0.819628 0.460566 0.530892 0.159324
C47   C     C_R   0.814995 0.547930 0.463538 0.160393
C48   C     C_R   0.182075 0.463136 0.463152 0.172658
C49   C     C_R   0.146584 0.511727 0.493999 -0.124986
C50   C     C_R   0.854091 0.505300 0.496759 -0.103221
C51   C     C_R   0.291317 0.501005 0.499646 -0.213760
C52   C     C_R   0.708653 0.500763 0.498362 -0.192992
N3    N     N_R   0.033462 0.515093 0.453071 -0.219091
N4    N     N_R   0.968039 0.504426 0.537328 -0.223543
N5    N     N_R   0.964966 0.513073 0.453821 -0.216179
N6    N     N_R   0.036534 0.505917 0.536644 -0.244604
C53   C     C_R   0.930683 0.507773 0.495959 0.485800
C54   C     C_R   0.070545 0.511545 0.494478 0.458128
C55   C     C_R   0.536939 0.278713 0.533919 0.031559
C56   C     C_R   0.470137 0.721708 0.462941 0.021519
C57   C     C_R   0.463048 0.278837 0.466167 0.032289
C58   C     C_R   0.529985 0.721250 0.537080 0.022497
H5    H     H_    0.566127 0.309737 0.560322 0.144349
H6    H     H_    0.445701 0.691270 0.434087 0.155415
H7    H     H_    0.433779 0.309947 0.439736 0.145513
H8    H     H_    0.554432 0.690467 0.565892 0.154980
C59   C     C_R   0.539797 0.200614 0.533993 -0.111202
C60   C     C_R   0.469860 0.799888 0.461820 -0.113654
C61   C     C_R   0.460249 0.200732 0.466241 -0.111532
C62   C     C_R   0.530459 0.799409 0.538276 -0.113162
C63   C     C_R   0.500066 0.160019 0.500138 -0.029064
C64   C     C_R   0.500201 0.840675 0.500070 -0.031398
N7    N     N_R   0.500000 0.316380 0.500000 -0.172358
N8    N     N_R   0.500000 0.683620 0.500000 -0.178190
N9    N     N_R   0.508036 0.038005 0.458649 -0.225856
N10   N     N_R   0.492172 0.963560 0.541568 -0.220757
N11   N     N_R   0.492357 0.037600 0.541641 -0.225465
N12   N     N_R   0.508302 0.963972 0.458691 -0.221360
C65   C     C_R   0.500245 0.924707 0.500116 0.418131
C66   C     C_R   0.500164 0.076597 0.500150 0.412142
C67   C     C_R   0.406550 0.596567 0.348351 0.129369
C68   C     C_R   0.400172 0.670872 0.333606 -0.177697
C69   C     C_R   0.344646 0.713766 0.348963 -0.134287
C70   C     C_R   0.295858 0.683840 0.379987 -0.136447
C71   C     C_R   0.301535 0.610229 0.394790 -0.151246
C72   C     C_R   0.356263 0.566459 0.378850 -0.115358
H9    H     H_    0.437380 0.695148 0.309409 0.127066
H10   H     H_    0.338832 0.769934 0.336225 0.153744
H11   H     H_    0.253026 0.717326 0.391915 0.127351
H12   H     H_    0.262446 0.586907 0.417691 0.138041
H13   H     H_    0.358378 0.508700 0.389162 0.114805
C73   C     C_R   0.594170 0.593973 0.652000 0.128718
C74   C     C_R   0.601209 0.668166 0.666541 -0.173978
C75   C     C_R   0.656853 0.710654 0.650761 -0.132391
C76   C     C_R   0.705184 0.680335 0.619633 -0.135301
C77   C     C_R   0.698907 0.606762 0.605103 -0.154803
C78   C     C_R   0.644009 0.563459 0.621402 -0.115156
H14   H     H_    0.564315 0.692727 0.690769 0.128463
H15   H     H_    0.663079 0.766834 0.663196 0.153515
H16   H     H_    0.748096 0.713506 0.607381 0.126803
H17   H     H_    0.737562 0.583104 0.582042 0.137613
H18   H     H_    0.641328 0.505763 0.611185 0.115397
N13   N     N_2   0.149065 0.608632 0.556486 -0.420749
H19   H     H_    0.106279 0.634294 0.541796 0.253755
C79   C     C_3   0.142782 0.588973 0.606806 -0.662884
H20   H     H_    0.161679 0.635656 0.629172 0.222702
H21   H     H_    0.173140 0.538559 0.616142 0.217122
H22   H     H_    0.087890 0.578567 0.615636 0.238760
N14   N     N_2   0.857990 0.423108 0.567544 -0.407711
H23   H     H_    0.845568 0.368142 0.572235 0.258799
C80   C     C_3   0.862540 0.462850 0.612667 -0.652406
H24   H     H_    0.811798 0.464377 0.630724 0.203210
H25   H     H_    0.880088 0.520720 0.606829 0.240806
H26   H     H_    0.900196 0.434707 0.636803 0.230655
N15   N     N_2   0.848753 0.588861 0.426717 -0.410598
H27   H     H_    0.833374 0.643231 0.423455 0.254641
C81   C     C_3   0.851374 0.551263 0.380811 -0.659103
H28   H     H_    0.799116 0.546571 0.364563 0.196762
H29   H     H_    0.873183 0.494700 0.385035 0.244228
H30   H     H_    0.884708 0.583032 0.355918 0.229925
N16   N     N_2   0.144937 0.423824 0.426849 -0.409450
H31   H     H_    0.157366 0.368611 0.423810 0.258676
C82   C     C_3   0.142220 0.461121 0.380680 -0.656204
H32   H     H_    0.193798 0.461906 0.363740 0.204044
H33   H     H_    0.124215 0.519165 0.384625 0.244772
H34   H     H_    0.105750 0.431539 0.356497 0.229503
C83   C     C_R   0.588755 0.163647 0.567211 0.108550
C84   C     C_R   0.580952 0.169870 0.617111 -0.137490
C85   C     C_R   0.629060 0.137283 0.648324 -0.121446
C86   C     C_R   0.685483 0.098880 0.629889 -0.112683
C87   C     C_R   0.693581 0.092491 0.580215 -0.132355
C88   C     C_R   0.645347 0.124581 0.548914 -0.125620
H35   H     H_    0.537564 0.199460 0.631759 0.110673
H36   H     H_    0.622714 0.141994 0.686795 0.120562
H37   H     H_    0.722806 0.073859 0.654084 0.110389
H38   H     H_    0.737308 0.062774 0.565963 0.115750
H39   H     H_    0.652546 0.119938 0.510481 0.120972
C89   C     C_R   0.435913 0.837588 0.420981 0.124143
C90   C     C_R   0.370616 0.869728 0.426596 -0.131446
C91   C     C_R   0.340476 0.909642 0.388777 -0.128056
C92   C     C_R   0.375693 0.918450 0.345493 -0.110211
C93   C     C_R   0.440588 0.886105 0.339649 -0.142394
C94   C     C_R   0.470544 0.845323 0.377183 -0.119025
H40   H     H_    0.343477 0.864289 0.460277 0.117050
H41   H     H_    0.289917 0.933921 0.393075 0.117688
H42   H     H_    0.352465 0.949789 0.316369 0.117423
H43   H     H_    0.467636 0.892599 0.306049 0.124459
H44   H     H_    0.521109 0.821048 0.372515 0.120827
C95   C     C_R   0.411123 0.163874 0.433226 0.108627
C96   C     C_R   0.418596 0.170322 0.383290 -0.137487
C97   C     C_R   0.370198 0.138043 0.352282 -0.121939
C98   C     C_R   0.313817 0.099710 0.370960 -0.113394
C99   C     C_R   0.306088 0.093015 0.420670 -0.132528
C100  C     C_R   0.354612 0.124801 0.451766 -0.125834
H45   H     H_    0.461936 0.199868 0.368455 0.110426
H46   H     H_    0.376278 0.142950 0.313782 0.120734
H47   H     H_    0.276260 0.074943 0.346923 0.110477
H48   H     H_    0.262414 0.063312 0.435108 0.116209
H49   H     H_    0.347668 0.119975 0.490230 0.121375
C101  C     C_R   0.564543 0.836531 0.579156 0.123248
C102  C     C_R   0.629632 0.869154 0.573451 -0.131128
C103  C     C_R   0.659977 0.908260 0.611403 -0.128193
C104  C     C_R   0.625184 0.915758 0.654926 -0.110501
C105  C     C_R   0.560506 0.882919 0.660862 -0.141636
C106  C     C_R   0.530344 0.842957 0.623184 -0.119842
H50   H     H_    0.656461 0.864687 0.539606 0.117084
H51   H     H_    0.710374 0.932920 0.607031 0.117569
H52   H     H_    0.648571 0.946471 0.684158 0.117617
H53   H     H_    0.533790 0.888390 0.694647 0.125980
H54   H     H_    0.479964 0.818254 0.627943 0.122096
N17   N     N_2   0.313157 0.436348 0.126346 -0.419880
H55   H     H_    0.316216 0.394672 0.151621 0.290909
C107  C     C_3   0.268934 0.498211 0.138071 -0.645575
H56   H     H_    0.294552 0.535412 0.164418 0.255378
H57   H     H_    0.220230 0.477259 0.153770 0.220442
H58   H     H_    0.256031 0.530560 0.105197 0.203921
N18   N     N_2   0.674074 0.412753 0.872551 -0.369989
H59   H     H_    0.721234 0.432963 0.883638 0.233697
C108  C     C_3   0.673551 0.333982 0.863144 -0.611886
H60   H     H_    0.717138 0.319765 0.839269 0.218235
H61   H     H_    0.624701 0.317625 0.844891 0.230887
H62   H     H_    0.679210 0.302324 0.897158 0.206238
C109  C     C_R   0.408845 0.395784 0.641718 0.144816
C110  C     C_R   0.425851 0.320377 0.639259 -0.104676
C111  C     C_R   0.382896 0.271129 0.614514 -0.129869
C112  C     C_R   0.322270 0.296809 0.592690 -0.123025
C113  C     C_R   0.305061 0.371944 0.594958 -0.128870
C114  C     C_R   0.348424 0.421515 0.619151 -0.154981
H63   H     H_    0.472051 0.300094 0.656912 0.107545
H64   H     H_    0.396328 0.213028 0.612564 0.129996
H65   H     H_    0.288717 0.258524 0.573882 0.119676
H66   H     H_    0.258104 0.391713 0.577987 0.133322
H67   H     H_    0.334528 0.479500 0.621004 0.114143
C115  C     C_R   0.590485 0.396386 0.357631 0.142135
C116  C     C_R   0.573156 0.321110 0.360669 -0.106382
C117  C     C_R   0.616200 0.271775 0.385461 -0.130705
C118  C     C_R   0.677248 0.297235 0.406723 -0.124948
C119  C     C_R   0.694865 0.372214 0.403766 -0.128149
C120  C     C_R   0.651412 0.421876 0.379541 -0.154732
H68   H     H_    0.526563 0.301033 0.343515 0.107497
H69   H     H_    0.602477 0.213783 0.387910 0.130078
H70   H     H_    0.710843 0.258893 0.425589 0.119281
H71   H     H_    0.742207 0.391787 0.420221 0.134575
H72   H     H_    0.665578 0.479757 0.377205 0.117211
C121  C     C_R   0.411491 0.386631 0.745606 0.126409
C122  C     C_R   0.339148 0.387389 0.742466 -0.073034
C123  C     C_R   0.300520 0.333007 0.765850 -0.169362
C124  C     C_R   0.333721 0.278121 0.792955 -0.117794
C125  C     C_R   0.405641 0.277257 0.796475 -0.141496
C126  C     C_R   0.444493 0.331124 0.772780 -0.175769
H73   H     H_    0.312783 0.430192 0.722098 0.136619
H74   H     H_    0.244813 0.333789 0.763291 0.130095
H75   H     H_    0.303716 0.236303 0.811260 0.124249
H76   H     H_    0.431308 0.234685 0.817437 0.126381
H77   H     H_    0.500218 0.329425 0.775398 0.140671
C127  C     C_R   0.585670 0.387655 0.253692 0.122966
C128  C     C_R   0.658091 0.388553 0.255343 -0.055083
C129  C     C_R   0.695813 0.335221 0.230470 -0.136367
C130  C     C_R   0.661584 0.280801 0.203782 -0.116285
C131  C     C_R   0.589554 0.279541 0.202000 -0.143357
C132  C     C_R   0.551632 0.332688 0.226891 -0.173915
H78   H     H_    0.685198 0.430954 0.275444 0.132764
H79   H     H_    0.751592 0.336245 0.231743 0.124800
H80   H     H_    0.690869 0.239639 0.184461 0.121405
H81   H     H_    0.563101 0.237380 0.181318 0.127740
H82   H     H_    0.495836 0.331073 0.225319 0.144387
N19   N     N_2   0.310856 0.536636 0.877284 -0.374495
H83   H     H_    0.284348 0.577650 0.895099 0.237012
C133  C     C_3   0.266980 0.474298 0.865707 -0.624971
H84   H     H_    0.221785 0.493739 0.844416 0.219728
H85   H     H_    0.248425 0.447361 0.899163 0.202512
H86   H     H_    0.295532 0.433106 0.844026 0.251839
N20   N     N_2   0.685412 0.534877 0.120213 -0.374274
H87   H     H_    0.727469 0.506113 0.107519 0.239432
C134  C     C_3   0.696996 0.614033 0.119905 -0.628840
H88   H     H_    0.744797 0.626826 0.140485 0.223157
H89   H     H_    0.653279 0.643409 0.137036 0.244987
H90   H     H_    0.703009 0.634340 0.082426 0.192729
N21   N     N_2   0.314851 0.426782 0.026992 -0.439131
H91   H     H_    0.268007 0.437826 0.042605 0.273567
C135  C     C_3   0.320990 0.350765 0.011300 -0.685741
H92   H     H_    0.274447 0.335179 0.990131 0.219060
H93   H     H_    0.325543 0.313255 0.042900 0.225698
H94   H     H_    0.366769 0.343834 0.988011 0.238731
N22   N     N_2   0.673840 0.407791 0.974586 -0.446168
H95   H     H_    0.722503 0.411986 0.960395 0.243508
C136  C     C_3   0.660430 0.339784 0.000747 -0.676137
H96   H     H_    0.689302 0.293283 0.984371 0.207308
H97   H     H_    0.604675 0.325384 0.000736 0.231880
H98   H     H_    0.678136 0.346282 0.038523 0.232900
N23   N     N_2   0.294463 0.604647 0.556599 -0.404044
H99   H     H_    0.280882 0.604533 0.592296 0.258169
C137  C     C_3   0.300175 0.678707 0.536887 -0.604177
H100  H     H_    0.249613 0.707483 0.537991 0.219328
H101  H     H_    0.318295 0.676940 0.499134 0.233809
H102  H     H_    0.338114 0.710888 0.558429 0.213934
N24   N     N_2   0.712942 0.399440 0.557459 -0.426478
H103  H     H_    0.727796 0.400039 0.593040 0.254112
C138  C     C_3   0.711162 0.325246 0.537879 -0.685217
H104  H     H_    0.763663 0.305622 0.528737 0.208105
H105  H     H_    0.678412 0.323796 0.505135 0.259227
H106  H     H_    0.689136 0.286600 0.564742 0.221700
N25   N     N_2   0.703533 0.604494 0.441140 -0.414489
H107  H     H_    0.715662 0.608185 0.405284 0.248731
C139  C     C_3   0.697707 0.676508 0.463671 -0.637861
H108  H     H_    0.747775 0.706182 0.462901 0.190507
H109  H     H_    0.681246 0.671156 0.501651 0.245054
H110  H     H_    0.658615 0.710133 0.444035 0.223794
N26   N     N_2   0.289251 0.398955 0.441246 -0.424404
H111  H     H_    0.276239 0.398692 0.405315 0.253420
C140  C     C_3   0.289117 0.325359 0.462030 -0.686518
H112  H     H_    0.236080 0.307326 0.471124 0.208993
H113  H     H_    0.321417 0.324128 0.494975 0.259782
H114  H     H_    0.310689 0.285341 0.435979 0.221384

loop_
_geom_bond_atom_site_label_1
_geom_bond_atom_site_label_2
_geom_bond_distance
_ccdc_geom_bond_type
C98   H47   1.082262 S    
C127  C132  1.404487 A    
C82   H34   1.110078 S    
C16   C18   1.394865 A    
C71   H12   1.079360 S    
C134  H89   1.111598 S    
C114  H67   1.082453 S    
C67   C68   1.406906 A    
C58   N8    1.363153 A    
C59   C63   1.417737 A    
C13   C15   1.398217 A    
C32   C39   1.417131 A    
C95   C96   1.402956 A    
C47   N15   1.425520 S    
C130  C131  1.397594 A    
C104  C105  1.398343 A    
C80   H26   1.110097 S    
N1    C17   1.442092 S    
C10   C18   1.408233 A    
C92   C93   1.398369 A    
N9    N12   1.336577 A    
C43   N25   1.427275 S    
N13   H19   1.031215 S    
C31   C33   1.409902 A    
C126  H77   1.082988 S    
C111  C112  1.397295 A    
C14   C73   1.487141 S    
C5    N1    1.367533 A    
C70   H11   1.082335 S    
C81   H29   1.110820 S    
C133  H84   1.110155 S    
C19   C25   1.418648 A    
C59   C83   1.477492 S    
C128  H78   1.082898 S    
C138  H106  1.109410 S    
C19   C34   1.415305 A    
O1    C1    1.286993 A    
C44   C48   1.412614 A    
C136  H96   1.110154 S    
C11   C115  1.483401 S    
C21   C23   1.427142 A    
C113  C114  1.398294 A    
C10   C12   1.413603 A    
C55   N7    1.360687 A    
C139  H110  1.110375 S    
C115  C120  1.403254 A    
N16   C82   1.449518 S    
N2    C18   1.440960 S    
N20   H87   1.032294 S    
C136  H98   1.109658 S    
C140  H113  1.106111 S    
N13   C79   1.449827 S    
C25   C38   1.417791 A    
N25   C139  1.449799 S    
C96   C97   1.397934 A    
C29   C35   1.403717 A    
C82   H32   1.109553 S    
N12   C65   1.361801 A    
N10   C65   1.361905 A    
C30   C36   1.402867 A    
C134  H88   1.110161 S    
C67   C72   1.406673 A    
C137  H102  1.110303 S    
C77   C78   1.398935 A    
C82   H33   1.110577 S    
C44   C51   1.413001 A    
C14   C28   1.418857 A    
C125  H76   1.082265 S    
N18   C108  1.446745 S    
C123  C124  1.397481 A    
O7    Cu1   1.951118 S    
C103  C104  1.398408 A    
C73   C74   1.406651 A    
C4    C28   1.479493 S    
C36   H4    1.081361 S    
C137  H101  1.111235 S    
C120  H72   1.082445 S    
C117  H69   1.082405 S    
N16   H31   1.029387 S    
C112  H65   1.082304 S    
C83   C84   1.402981 A    
C99   H48   1.082217 S    
C48   C49   1.412258 A    
C107  H57   1.110131 S    
N4    C53   1.356185 A    
C110  H63   1.081529 S    
C108  H62   1.109045 S    
C104  H52   1.082192 S    
C138  H104  1.109902 S    
C3    C27   1.479861 S    
C130  H80   1.082264 S    
C42   N24   1.426142 S    
C60   C89   1.473505 S    
C63   C66   1.506091 S    
C61   C63   1.417756 A    
N22   H95   1.028906 S    
Cu2   N7    1.990621 S    
C135  H93   1.111365 S    
C75   H15   1.079032 S    
O3    Cu1   1.947386 S    
C56   H6    1.080397 S    
C96   H45   1.079956 S    
C46   N14   1.426297 S    
C57   C61   1.411147 A    
C74   H14   1.083086 S    
C41   C51   1.411829 A    
C140  H112  1.110033 S    
N15   H27   1.029426 S    
C123  H74   1.082213 S    
C134  H90   1.111676 S    
C108  H60   1.110152 S    
C85   H36   1.082285 S    
C24   C40   1.415511 A    
Cu1   Cu2   2.648864 S    
C15   H1    1.084163 S    
C50   C53   1.486470 S    
C113  H66   1.082337 S    
N3    N5    1.329261 A    
C16   H2    1.084074 S    
C49   C54   1.474906 S    
O2    C2    1.288281 A    
C119  H71   1.082272 S    
O6    C4    1.286016 A    
C5    O9    1.346919 S    
C5    C21   1.416737 A    
C70   C71   1.394332 A    
C125  C126  1.397668 A    
C36   C38   1.394995 A    
C57   H7    1.081298 S    
C121  C122  1.405065 A    
C62   C101  1.473687 S    
C72   H13   1.081456 S    
N19   C133  1.446360 S    
C23   C39   1.410615 A    
C81   H30   1.110106 S    
C43   C47   1.410570 A    
C43   C52   1.411939 A    
C133  H85   1.111810 S    
C77   H17   1.079820 S    
C42   C46   1.412342 A    
N17   H55   1.029939 S    
C60   C64   1.419581 A    
C106  H54   1.083092 S    
C140  H114  1.109337 S    
C117  C118  1.397427 A    
N9    C66   1.360167 A    
C127  C128  1.405002 A    
O8    Cu2   1.951121 S    
C11   C27   1.422518 A    
N20   C134  1.446654 S    
C112  C113  1.398619 A    
C139  H109  1.110673 S    
C61   C95   1.477550 S    
C124  C125  1.397524 A    
N21   C135  1.446545 S    
C118  C119  1.398520 A    
C2    C52   1.474163 S    
N3    C54   1.354460 A    
C129  H79   1.082238 S    
C39   N21   1.428798 S    
C48   N16   1.426420 S    
C132  H82   1.083016 S    
C44   N26   1.426016 S    
C35   C37   1.395042 A    
C9    C17   1.408803 A    
C89   C90   1.403060 A    
C102  C103  1.397800 A    
C95   C100  1.404584 A    
O5    C3    1.289403 A    
C78   H18   1.081637 S    
C37   N19   1.422842 S    
C139  H108  1.109387 S    
C79   H22   1.110533 S    
C57   N7    1.360709 A    
C13   C27   1.419234 A    
C62   C64   1.419418 A    
C90   C91   1.397787 A    
C7    C25   1.408481 A    
C29   C33   1.413071 A    
C138  H105  1.106655 S    
C6    N2    1.366946 A    
C107  H58   1.110761 S    
C8    C26   1.409866 A    
N10   N11   1.336718 A    
C135  H94   1.110970 S    
C137  H100  1.110377 S    
C24   N18   1.425383 S    
C42   C52   1.410994 A    
C68   H9    1.083053 S    
C87   H38   1.082228 S    
C84   C85   1.397968 A    
C97   H46   1.082282 S    
N5    C53   1.356120 A    
C97   C98   1.397376 A    
C124  H75   1.082190 S    
C55   C59   1.411071 A    
N4    N6    1.328991 A    
C89   C94   1.403316 A    
C10   C121  1.486046 S    
C6    O10   1.348996 S    
C23   N17   1.424717 S    
N2    C8    1.365529 A    
C122  C123  1.397724 A    
C116  H68   1.081405 S    
C86   H37   1.082271 S    
N24   C138  1.447762 S    
C79   H20   1.109532 S    
C38   N20   1.422854 S    
C20   C26   1.417605 A    
O1    Cu1   1.947422 S    
C84   H35   1.080106 S    
C9    C127  1.485406 S    
C73   C78   1.406924 A    
C56   N8    1.362977 A    
N21   H91   1.030115 S    
N23   C137  1.448440 S    
C69   C70   1.394323 A    
N11   C66   1.360269 A    
C22   C24   1.421243 A    
C98   C99   1.397651 A    
C12   C28   1.422188 A    
N26   H111  1.029198 S    
C74   C75   1.397237 A    
C81   H28   1.109595 S    
C29   C32   1.421184 A    
C118  H70   1.082316 S    
N15   C81   1.449580 S    
N23   H99   1.029904 S    
C30   C31   1.420862 A    
N18   H59   1.029900 S    
C133  H86   1.109893 S    
O6    Cu2   1.952243 S    
C129  C130  1.397604 A    
C1    C51   1.473919 S    
N1    C7    1.364927 A    
C105  H53   1.082155 S    
C92   H42   1.082186 S    
N6    C54   1.354597 A    
O4    C1    1.287751 A    
C80   H25   1.110787 S    
C80   H24   1.109159 S    
C131  H81   1.082241 S    
C87   C88   1.397402 A    
C7    O12   1.348677 S    
C102  H50   1.083133 S    
C76   H16   1.082291 S    
C75   C76   1.394648 A    
C8    O11   1.348916 S    
C88   H39   1.083257 S    
C93   C94   1.398538 A    
C71   C72   1.399177 A    
C30   C34   1.413124 A    
C121  C126  1.404714 A    
C58   C62   1.411590 A    
Cu1   N8    1.990621 S    
C47   C50   1.416305 A    
C91   C92   1.398480 A    
C91   H41   1.081750 S    
C83   C88   1.404557 A    
N14   H23   1.029416 S    
C94   H44   1.083102 S    
C14   C16   1.399030 A    
C56   C60   1.411728 A    
N22   C136  1.450360 S    
C58   H8    1.080530 S    
C85   C86   1.397423 A    
N17   C107  1.447794 S    
C31   C40   1.420246 A    
C55   H5    1.081291 S    
C136  H97   1.112155 S    
C119  C120  1.398344 A    
C46   C50   1.417043 A    
C111  H64   1.082412 S    
C45   C49   1.413015 A    
C128  C129  1.397718 A    
C115  C116  1.402488 A    
C40   N22   1.430100 S    
C32   C34   1.409225 A    
C131  C132  1.397743 A    
C19   C21   1.417799 A    
C13   C67   1.487314 S    
C12   C109  1.483647 S    
C109  C114  1.403220 A    
C20   C22   1.414410 A    
C103  H51   1.081731 S    
C45   N13   1.426815 S    
C116  C117  1.397444 A    
O4    Cu2   1.947386 S    
C68   C69   1.397000 A    
O2    Cu2   1.947422 S    
O7    C4    1.289750 A    
C108  H61   1.111510 S    
O8    C3    1.286648 A    
C99   C100  1.397385 A    
C93   H43   1.082147 S    
C41   C45   1.406739 A    
O5    Cu1   1.952246 S    
C9    C11   1.413822 A    
C35   H3    1.080826 S    
C110  C111  1.397284 A    
C64   C65   1.517101 S    
C20   C33   1.414278 A    
C15   C17   1.394391 A    
C107  H56   1.109970 S    
O3    C2    1.286551 A    
C26   C37   1.417064 A    
N25   H107  1.029101 S    
C79   H21   1.112908 S    
C135  H92   1.110349 S    
C90   H40   1.083129 S    
N26   C140  1.447675 S    
C69   H10   1.078877 S    
C105  C106  1.398528 A    
C109  C110  1.402731 A    
C76   C77   1.394551 A    
C101  C106  1.403303 A    
N24   H103  1.028942 S    
C100  H49   1.083269 S    
C41   N23   1.426297 S    
C6    C22   1.414381 A    
C101  C102  1.403097 A    
C122  H73   1.082799 S    
N19   H83   1.031844 S    
C86   C87   1.397665 A    
N14   C80   1.450005 S    
