data_mof_unit_39537.cif
_audit_creation_date              2013-03-05T16:10:11-0500
_audit_creation_method            fapswitch 2.2
_symmetry_space_group_name_H-M    P1
_symmetry_Int_Tables_number       1
_space_group_crystal_system       triclinic
_cell_length_a                    14.697203
_cell_length_b                    7.261215
_cell_length_c                    13.428467
_cell_angle_alpha                 89.997501
_cell_angle_beta                  99.875664
_cell_angle_gamma                 90.002531
_cell_volume                      1411.84496294

loop_
_atom_site_label
_atom_site_type_symbol
_atom_site_description
_atom_site_fract_x
_atom_site_fract_y
_atom_site_fract_z
_atom_type_partial_charge
O1    O     O_R   0.648180 0.355050 0.151550 -0.590267
O2    O     O_R   0.351820 0.644950 0.848450 -0.590301
O3    O     O_R   0.851820 0.855050 0.348450 -0.590336
O4    O     O_R   0.148180 0.144950 0.651550 -0.590152
O5    O     O_R   0.835240 0.681980 0.154280 -0.579873
O6    O     O_R   0.164760 0.318020 0.845720 -0.579840
O7    O     O_R   0.664760 0.181980 0.345720 -0.579784
O8    O     O_R   0.335240 0.818020 0.654280 -0.579820
H1    H     H_    0.670374 0.887486 0.829438 0.164060
H2    H     H_    0.329603 0.112410 0.170559 0.164016
H3    H     H_    0.829629 0.387556 0.670557 0.164078
H4    H     H_    0.170364 0.612510 0.329439 0.163995
C1    C     C_R   0.863194 0.516124 0.132682 0.910438
C2    C     C_R   0.136807 0.483875 0.867319 0.910407
C3    C     C_R   0.636801 0.016114 0.367312 0.910425
C4    C     C_R   0.363198 0.983886 0.632689 0.910398
O9    O     O_R   0.647870 0.684600 0.139630 -0.585122
O10   O     O_R   0.352130 0.315400 0.860370 -0.585106
O11   O     O_R   0.852130 0.184600 0.360370 -0.584965
O12   O     O_R   0.147870 0.815400 0.639630 -0.585138
O13   O     O_R   0.663110 0.857440 0.333700 -0.572890
O14   O     O_R   0.336890 0.142560 0.666300 -0.572871
O15   O     O_R   0.836890 0.357440 0.166300 -0.572864
O16   O     O_R   0.163110 0.642560 0.833700 -0.572862
C5    C     C_R   0.615075 0.515993 0.113165 0.969856
C6    C     C_R   0.384926 0.484006 0.886834 0.969812
C7    C     C_R   0.884929 0.015994 0.386830 0.969713
C8    C     C_R   0.115077 0.984007 0.613162 0.969832
H5    H     H_    0.508985 0.927180 0.761219 0.124177
H6    H     H_    0.490996 0.072556 0.238758 0.124164
H7    H     H_    0.991019 0.427226 0.738783 0.124204
H8    H     H_    0.008974 0.572878 0.261208 0.124188
O17   O     O_3   0.755220 0.522230 0.313690 -0.281646
O18   O     O_3   0.244780 0.477770 0.686310 -0.281610
O19   O     O_3   0.744780 0.022230 0.186310 -0.281699
O20   O     O_3   0.255220 0.977770 0.813690 -0.281694
V1    V     V_3+5 0.749030 0.796100 0.238190 1.218620
V2    V     V_3+5 0.250970 0.203900 0.761810 1.218776
V3    V     V_3+5 0.750970 0.296100 0.261810 1.218777
V4    V     V_3+5 0.249030 0.703900 0.738190 1.218721
C9    C     C_1   0.966021 0.005374 0.466775 -0.137023
C10   C     C_1   0.033994 0.994628 0.533206 -0.136930
C11   C     C_1   0.533988 0.505372 0.033213 -0.136796
C12   C     C_1   0.466015 0.494627 0.966783 -0.136811
C13   C     C_R   0.557447 0.934382 0.709088 -0.121687
C14   C     C_R   0.442541 0.065472 0.290901 -0.121643
C15   C     C_R   0.942555 0.434434 0.790911 -0.121669
C16   C     C_R   0.057441 0.565622 0.209085 -0.121501
C17   C     C_R   0.650640 0.911666 0.749069 -0.151729
C18   C     C_R   0.349347 0.088261 0.250930 -0.151728
C19   C     C_R   0.849361 0.411728 0.750925 -0.151711
C20   C     C_R   0.150636 0.588308 0.249073 -0.151476
C21   C     C_R   0.717563 0.920309 0.686679 0.395241
C22   C     C_R   0.282445 0.079885 0.313347 0.395228
C23   C     C_R   0.782436 0.420359 0.813313 0.395235
C24   C     C_R   0.217567 0.579573 0.186696 0.395196
C25   C     C_R   0.689333 0.950896 0.582686 -0.241804
C26   C     C_R   0.310674 0.049326 0.417341 -0.241782
C27   C     C_R   0.810664 0.450941 0.917306 -0.241814
C28   C     C_R   0.189341 0.548962 0.082706 -0.242033
C29   C     C_R   0.594990 0.974590 0.540264 0.098758
C30   C     C_R   0.405012 0.025472 0.459745 0.098779
C31   C     C_R   0.905008 0.474624 0.959731 0.098765
C32   C     C_R   0.094994 0.525339 0.040274 0.098671
C33   C     C_R   0.527799 0.966651 0.604785 0.128501
C34   C     C_R   0.472197 0.033315 0.395214 0.128489
C35   C     C_R   0.972202 0.466676 0.895215 0.128498
C36   C     C_R   0.027798 0.533329 0.104786 0.128394
C37   C     C_R   0.567127 0.007756 0.435338 -0.233103
C38   C     C_R   0.432872 0.992247 0.564664 -0.233059
C39   C     C_R   0.932867 0.507793 0.064656 -0.233082
C40   C     C_R   0.067133 0.492200 0.935346 -0.233059
H9    H     H_    0.741829 0.957922 0.535378 0.127923
H10   H     H_    0.258180 0.042409 0.464654 0.127859
H11   H     H_    0.758166 0.457971 0.964610 0.127885
H12   H     H_    0.241840 0.541879 0.035406 0.127934
N1    N     N_R   0.186084 0.100959 0.271151 0.224124
O21   O     O_R   0.159181 0.109253 0.173706 -0.418806
O22   O     O_R   0.124216 0.111028 0.329636 -0.447949
N2    N     N_R   0.813936 0.899542 0.728915 0.224277
O23   O     O_R   0.840738 0.889711 0.826318 -0.418862
O24   O     O_R   0.875938 0.891823 0.670541 -0.448105
N3    N     N_R   0.313942 0.600279 0.228945 0.224308
O25   O     O_R   0.340720 0.610385 0.326342 -0.418837
O26   O     O_R   0.375970 0.607642 0.170590 -0.448165
N4    N     N_R   0.686063 0.399581 0.771075 0.224279
O27   O     O_R   0.659264 0.389744 0.673672 -0.418849
O28   O     O_R   0.624062 0.391823 0.829447 -0.448144

loop_
_geom_bond_atom_site_label_1
_geom_bond_atom_site_label_2
_geom_bond_distance
_ccdc_geom_bond_type
C26   C30   1.416273 A    
C23   C27   1.404569 A    
C9    C10   1.222373 T    
O10   C6    1.341168 A    
C5    C11   1.462871 S    
C6    C12   1.462870 S    
N1    O21   1.301817 A    
C30   C38   1.418792 A    
C18   C22   1.398478 A    
O18   V4    1.780592 S    
C32   C36   1.422201 A    
O19   V1    1.780540 S    
C14   C34   1.413220 A    
O5    V1    2.012861 S    
O12   V4    1.985620 S    
N4    O28   1.301132 A    
C34   C37   1.418991 A    
C25   H9    1.081469 S    
C33   C38   1.418975 A    
O14   V2    1.998398 S    
C1    O15   1.319347 A    
C35   C40   1.418982 A    
C2    O16   1.319355 A    
H4    C20   1.082724 S    
O17   V3    1.780591 S    
O6    V2    2.012862 S    
O11   C7    1.341177 A    
O5    C1    1.320692 A    
C22   N1    1.440475 S    
O7    C3    1.320707 A    
O8    C4    1.320703 A    
H7    C15   1.082184 S    
O1    C5    1.334961 A    
H8    C16   1.082184 S    
C15   C35   1.413210 A    
O4    C8    1.334967 A    
O3    C7    1.334966 A    
N1    O22   1.301496 A    
C3    C37   1.485802 S    
C31   C35   1.422204 A    
C30   C34   1.422204 A    
C21   N2    1.440522 S    
H1    C17   1.082726 S    
N2    O24   1.301151 A    
C21   C25   1.404570 A    
N4    O27   1.301661 A    
C15   C19   1.392574 A    
O12   C8    1.341176 A    
C28   H12   1.081467 S    
C24   C28   1.404576 A    
H5    C13   1.082184 S    
C11   C12   1.222374 T    
C29   C33   1.422203 A    
O6    C2    1.320687 A    
C7    C9    1.462872 S    
N3    O25   1.301658 A    
C13   C17   1.392572 A    
C4    C38   1.485784 S    
O2    C6    1.334963 A    
O9    V1    1.985613 S    
C16   C36   1.413202 A    
O11   V3    1.985619 S    
N3    O26   1.301169 A    
O4    V2    1.972432 S    
C13   C33   1.413209 A    
H2    C18   1.082731 S    
C27   H11   1.081469 S    
C26   H10   1.081460 S    
C24   N3    1.440531 S    
C22   C26   1.404545 A    
C29   C37   1.418809 A    
C4    O14   1.319335 A    
C2    C40   1.485803 S    
H6    C14   1.082188 S    
C31   C39   1.418804 A    
N2    O23   1.301656 A    
C25   C29   1.416255 A    
C1    C39   1.485796 S    
C14   C18   1.392604 A    
C27   C31   1.416256 A    
C28   C32   1.416258 A    
O9    C5    1.341169 A    
C23   N4    1.440529 S    
O20   V2    1.780541 S    
O10   V2    1.985612 S    
C3    O13   1.319343 A    
C36   C39   1.418979 A    
C17   C21   1.398553 A    
C8    C10   1.462873 S    
O16   V4    1.998351 S    
C19   C23   1.398552 A    
C32   C40   1.418811 A    
H3    C19   1.082725 S    
O1    V3    1.972433 S    
O2    V4    1.972430 S    
C16   C20   1.392572 A    
O13   V1    1.998399 S    
O3    V1    1.972430 S    
O7    V3    2.012776 S    
O8    V4    2.012773 S    
O15   V3    1.998348 S    
C20   C24   1.398553 A    
