data_mof_unit_12189.cif
_audit_creation_date              2012-10-26T17:11:29-0400
_audit_creation_method            fapswitch 2.2
_symmetry_space_group_name_H-M    P1
_symmetry_Int_Tables_number       1
_space_group_crystal_system       triclinic
_cell_length_a                    28.001115
_cell_length_b                    18.623866
_cell_length_c                    16.93603
_cell_angle_alpha                 90.001219
_cell_angle_beta                  62.368424
_cell_angle_gamma                 90.000674
_cell_volume                      7824.6526661

loop_
_atom_site_label
_atom_site_type_symbol
_atom_type_description
_atom_site_fract_x
_atom_site_fract_y
_atom_site_fract_z
_atom_type_partial_charge
C1    C     C_R   0.295899 0.730032 0.329082 0.828264
C2    C     C_R   0.708321 0.278972 0.667383 0.847446
C3    C     C_R   0.704103 0.730030 0.670918 0.828258
C4    C     C_R   0.291675 0.278978 0.332620 0.847390
C5    C     C_R   0.795899 0.230031 0.329082 0.828256
C6    C     C_R   0.208321 0.778971 0.667383 0.847425
C7    C     C_R   0.204105 0.230024 0.670917 0.828485
C8    C     C_R   0.791675 0.778977 0.332620 0.847445
C9    C     C_R   0.412698 0.000172 0.458159 -0.060467
C10   C     C_R   0.587293 0.000174 0.541876 -0.060437
C11   C     C_R   0.912708 0.500176 0.458103 -0.060454
C12   C     C_R   0.087309 0.500176 0.541803 -0.060550
C13   C     C_R   0.578275 0.870752 0.560950 0.398430
C14   C     C_R   0.422382 0.129361 0.437926 0.390327
C15   C     C_R   0.421720 0.870752 0.439070 0.398458
C16   C     C_R   0.577611 0.129365 0.562107 0.390334
C17   C     C_R   0.078307 0.370752 0.560821 0.398362
C18   C     C_R   0.922385 0.629366 0.437888 0.390339
C19   C     C_R   0.921731 0.370757 0.438999 0.398412
C20   C     C_R   0.077616 0.629364 0.562065 0.390335
C21   C     C_R   0.215487 0.754648 0.954737 -0.062911
C22   C     C_R   0.768359 0.212643 0.056532 -0.049906
C23   C     C_R   0.784535 0.754597 0.045248 -0.062925
C24   C     C_R   0.231643 0.212637 0.943472 -0.049995
C25   C     C_R   0.715482 0.254638 0.954742 -0.062910
C26   C     C_R   0.268364 0.712652 0.056526 -0.049942
C27   C     C_R   0.284523 0.254625 0.045259 -0.062949
C28   C     C_R   0.731658 0.712605 0.943454 -0.049987
C29   C     C_R   0.263402 0.712683 0.916449 0.475246
C30   C     C_R   0.714894 0.238956 0.098748 0.476645
C31   C     C_R   0.736621 0.712630 0.083531 0.475229
C32   C     C_R   0.285111 0.238938 0.901254 0.476652
C33   C     C_R   0.763395 0.212670 0.916456 0.475235
C34   C     C_R   0.214899 0.738961 0.098743 0.476658
C35   C     C_R   0.236607 0.212664 0.083547 0.475261
C36   C     C_R   0.785126 0.738907 0.901239 0.476621
C37   C     C_R   0.292297 0.701929 0.963869 -0.288532
C38   C     C_R   0.692376 0.267658 0.047248 -0.328532
C39   C     C_R   0.707725 0.701880 0.036110 -0.288521
C40   C     C_R   0.307632 0.267639 0.952752 -0.328464
C41   C     C_R   0.792291 0.201916 0.963876 -0.288547
C42   C     C_R   0.192380 0.767665 0.047244 -0.328512
C43   C     C_R   0.207709 0.201918 0.036129 -0.288504
C44   C     C_R   0.807645 0.767610 0.952739 -0.328459
C45   C     C_R   0.134414 0.807324 0.943211 0.359525
C46   C     C_R   0.838572 0.140656 0.077072 0.343945
C47   C     C_R   0.865592 0.807310 0.056794 0.359527
C48   C     C_R   0.161429 0.140650 0.922937 0.343986
C49   C     C_R   0.634414 0.307324 0.943211 0.359531
C50   C     C_R   0.338575 0.640663 0.077066 0.343964
C51   C     C_R   0.365589 0.307315 0.056795 0.359521
C52   C     C_R   0.661434 0.640641 0.922919 0.343978
C53   C     C_R   0.115258 0.847934 0.893826 -0.141917
C54   C     C_R   0.874989 0.135667 0.112640 -0.159648
C55   C     C_R   0.884732 0.847949 0.106182 -0.141909
C56   C     C_R   0.125021 0.135647 0.887355 -0.159601
C57   C     C_R   0.615261 0.347937 0.893825 -0.141919
C58   C     C_R   0.374991 0.635670 0.112638 -0.159635
C59   C     C_R   0.384735 0.347945 0.106181 -0.141888
C60   C     C_R   0.625012 0.635666 0.887360 -0.159622
C61   C     C_R   0.139348 0.838019 0.802163 -0.393883
C62   C     C_R   0.861969 0.167481 0.194360 -0.383217
C63   C     C_R   0.860627 0.838064 0.197852 -0.394029
C64   C     C_R   0.138056 0.167436 0.805619 -0.383293
C65   C     C_R   0.639353 0.338027 0.802161 -0.393901
C66   C     C_R   0.361970 0.667483 0.194359 -0.383223
C67   C     C_R   0.360634 0.338053 0.197849 -0.393988
C68   C     C_R   0.638029 0.667487 0.805646 -0.383224
C69   C     C_R   0.187934 0.801747 0.760059 -0.206033
C70   C     C_R   0.817774 0.212775 0.233722 -0.191638
C71   C     C_R   0.812058 0.801756 0.239945 -0.205986
C72   C     C_R   0.182237 0.212753 0.766272 -0.191554
C73   C     C_R   0.687935 0.301748 0.760059 -0.206015
C74   C     C_R   0.317776 0.712778 0.233721 -0.191620
C75   C     C_R   0.312059 0.301758 0.239947 -0.206012
C76   C     C_R   0.682230 0.712771 0.766278 -0.191589
C77   C     C_R   0.217713 0.791815 0.807038 0.417346
C78   C     C_R   0.792065 0.235546 0.183254 0.423679
C79   C     C_R   0.782289 0.791787 0.192957 0.417357
C80   C     C_R   0.207939 0.235535 0.816749 0.423600
C81   C     C_R   0.717713 0.291809 0.807039 0.417329
C82   C     C_R   0.292068 0.735551 0.183251 0.423652
C83   C     C_R   0.282286 0.291804 0.192962 0.417381
C84   C     C_R   0.707949 0.735527 0.816739 0.423599
C85   C     C_R   0.195987 0.631901 0.529127 0.818388
C86   C     C_R   0.803844 0.368294 0.471502 0.776745
C87   C     C_R   0.804013 0.631901 0.470869 0.818433
C88   C     C_R   0.196156 0.368294 0.528493 0.776988
C89   C     C_R   0.695986 0.131901 0.529130 0.818388
C90   C     C_R   0.303843 0.868294 0.471509 0.776713
C91   C     C_R   0.304013 0.131900 0.470874 0.818398
C92   C     C_R   0.696156 0.868295 0.528493 0.776706
C93   C     C_R   0.189354 0.784644 0.901194 -0.115846
C94   C     C_R   0.799389 0.195794 0.106800 -0.099747
C95   C     C_R   0.810657 0.784611 0.098801 -0.115857
C96   C     C_R   0.200613 0.195789 0.893207 -0.099817
C97   C     C_R   0.689352 0.284638 0.901196 -0.115858
C98   C     C_R   0.299393 0.695802 0.106795 -0.099766
C99   C     C_R   0.310651 0.284628 0.098807 -0.115855
C100  C     C_R   0.700624 0.695771 0.893189 -0.099800
C101  C     C_R   0.928500 0.900422 0.065307 0.838789
C102  C     C_R   0.076422 0.091789 0.930517 0.845491
C103  C     C_R   0.071496 0.900417 0.934696 0.838760
C104  C     C_R   0.923583 0.091798 0.069480 0.845473
C105  C     C_R   0.428501 0.400420 0.065306 0.838780
C106  C     C_R   0.576416 0.591800 0.930521 0.845477
C107  C     C_R   0.571497 0.400418 0.934695 0.838777
C108  C     C_R   0.423584 0.591799 0.069479 0.845464
C109  C     C_R   0.039024 0.629942 0.530622 -0.001838
C110  C     C_R   0.960573 0.369920 0.469812 0.010088
C111  C     C_R   0.960976 0.629944 0.469333 -0.001919
C112  C     C_R   0.039475 0.369919 0.529991 0.009871
C113  C     C_R   0.539016 0.129941 0.530671 -0.001830
C114  C     C_R   0.460550 0.869917 0.469908 0.010049
C115  C     C_R   0.460970 0.129940 0.469378 -0.001917
C116  C     C_R   0.539442 0.869917 0.530117 0.010072
C117  C     C_R   0.018635 0.694890 0.516459 -0.210127
C118  C     C_R   0.981413 0.304981 0.483162 -0.180970
C119  C     C_R   0.981360 0.694892 0.483510 -0.210200
C120  C     C_R   0.018645 0.304980 0.516612 -0.181155
C121  C     C_R   0.518631 0.194888 0.516498 -0.210140
C122  C     C_R   0.481385 0.804977 0.483276 -0.181036
C123  C     C_R   0.481357 0.194888 0.483548 -0.210188
C124  C     C_R   0.518610 0.804977 0.516741 -0.181032
C125  C     C_R   0.979418 0.564883 0.486791 0.001975
C126  C     C_R   0.020801 0.434975 0.512750 0.003520
C127  C     C_R   0.020593 0.564882 0.513132 0.001953
C128  C     C_R   0.979238 0.434975 0.487087 0.003522
C129  C     C_R   0.479405 0.064879 0.486854 0.001973
C130  C     C_R   0.520773 0.934972 0.512856 0.003508
C131  C     C_R   0.520579 0.064879 0.513199 0.001941
C132  C     C_R   0.479215 0.934972 0.487181 0.003498
C133  C     C_R   0.457818 0.999992 0.475494 -0.070368
C134  C     C_R   0.542169 0.999993 0.524550 -0.070360
C135  C     C_R   0.957834 0.499996 0.475422 -0.070373
C136  C     C_R   0.042190 0.499996 0.524463 -0.070405
C137  C     C_R   0.390221 0.934124 0.449833 -0.056705
C138  C     C_R   0.609397 0.066363 0.551046 -0.031006
C139  C     C_R   0.609773 0.934125 0.550188 -0.056706
C140  C     C_R   0.390596 0.066360 0.448984 -0.030957
C141  C     C_R   0.890229 0.434128 0.449784 -0.056706
C142  C     C_R   0.109404 0.566363 0.551001 -0.030988
C143  C     C_R   0.109790 0.434128 0.550112 -0.056510
C144  C     C_R   0.890601 0.566363 0.448946 -0.030969
C145  C     C_R   0.337736 0.934378 0.453835 -0.109478
C146  C     C_R   0.661968 0.066037 0.547000 -0.096705
C147  C     C_R   0.662262 0.934379 0.546174 -0.109471
C148  C     C_R   0.338029 0.066035 0.453013 -0.096681
C149  C     C_R   0.837737 0.434380 0.453813 -0.109465
C150  C     C_R   0.161969 0.566037 0.546984 -0.096680
C151  C     C_R   0.162265 0.434380 0.546151 -0.109384
C152  C     C_R   0.838029 0.566037 0.452995 -0.096698
C153  C     C_R   0.313461 0.000196 0.454384 -0.295409
C154  C     C_R   0.686537 0.000198 0.545622 -0.295380
C155  C     C_R   0.813459 0.500197 0.454375 -0.295395
C156  C     C_R   0.186534 0.500198 0.545621 -0.295489
Cu1   Cu    Cu3+1 0.209920 0.785290 0.495070 1.004247
Cu2   Cu    Cu3+1 0.790080 0.214710 0.504930 0.986589
Cu3   Cu    Cu3+1 0.790080 0.785290 0.504930 1.004276
Cu4   Cu    Cu3+1 0.209920 0.214710 0.495070 0.986632
Cu5   Cu    Cu3+1 0.709920 0.285290 0.495070 1.004244
Cu6   Cu    Cu3+1 0.290080 0.714710 0.504930 0.986598
Cu7   Cu    Cu3+1 0.290080 0.285290 0.504930 1.004289
Cu8   Cu    Cu3+1 0.709920 0.714710 0.495070 0.986605
Cu9   Cu    Cu3+1 0.495240 0.500000 0.924150 0.973350
Cu10  Cu    Cu3+1 0.504760 0.500000 0.075850 0.973373
Cu11  Cu    Cu3+1 0.995240 1.000000 0.924150 0.973341
Cu12  Cu    Cu3+1 0.004760 1.000000 0.075850 0.973361
H1    H     H_    0.532660 0.753939 0.528702 0.185689
H2    H     H_    0.467039 0.245965 0.472430 0.185370
H3    H     H_    0.467337 0.753939 0.471306 0.185690
H4    H     H_    0.532957 0.245966 0.527597 0.185383
H5    H     H_    0.032700 0.253942 0.528565 0.185662
H6    H     H_    0.967037 0.745969 0.472402 0.185369
H7    H     H_    0.967366 0.253943 0.471191 0.185680
H8    H     H_    0.032957 0.745967 0.527569 0.185383
H9    H     H_    0.273227 0.000181 0.460373 0.188953
H10   H     H_    0.726774 0.000183 0.539622 0.188950
H11   H     H_    0.773220 0.500182 0.460383 0.188959
H12   H     H_    0.226764 0.500184 0.539652 0.188951
O1    O     O_R   0.255040 0.869590 0.478480 -0.600208
O2    O     O_R   0.744960 0.130410 0.521520 -0.603154
O3    O     O_R   0.744960 0.869590 0.521520 -0.600216
O4    O     O_R   0.255040 0.130410 0.478480 -0.603171
O5    O     O_R   0.755040 0.369590 0.478480 -0.600213
O6    O     O_R   0.244960 0.630410 0.521520 -0.603146
O7    O     O_R   0.244960 0.369590 0.521520 -0.600255
O8    O     O_R   0.755040 0.630410 0.478480 -0.603163
O9    O     O_R   0.182050 0.796550 0.624440 -0.583768
O10   O     O_R   0.817950 0.203450 0.375560 -0.581872
O11   O     O_R   0.817950 0.796550 0.375560 -0.583700
O12   O     O_R   0.182050 0.203450 0.624440 -0.581948
O13   O     O_R   0.682050 0.296550 0.624440 -0.583770
O14   O     O_R   0.317950 0.703450 0.375560 -0.581892
O15   O     O_R   0.317950 0.296550 0.375560 -0.583716
O16   O     O_R   0.682050 0.703450 0.624440 -0.581892
O17   O     O_R   0.250530 0.763330 0.367210 -0.539611
O18   O     O_R   0.749470 0.236670 0.632790 -0.563092
O19   O     O_R   0.749470 0.763330 0.632790 -0.539600
O20   O     O_R   0.250530 0.236670 0.367210 -0.563121
O21   O     O_R   0.750530 0.263330 0.367210 -0.539621
O22   O     O_R   0.249470 0.736670 0.632790 -0.563098
O23   O     O_R   0.249470 0.263330 0.632790 -0.539624
O24   O     O_R   0.750530 0.736670 0.367210 -0.563097
O25   O     O_R   0.177260 0.690030 0.513710 -0.524693
O26   O     O_R   0.822740 0.309970 0.486290 -0.534700
O27   O     O_R   0.822740 0.690030 0.486290 -0.524697
O28   O     O_R   0.177260 0.309970 0.513710 -0.534585
O29   O     O_R   0.677260 0.190030 0.513710 -0.524695
O30   O     O_R   0.322740 0.809970 0.486290 -0.534682
O31   O     O_R   0.322740 0.190030 0.486290 -0.524700
O32   O     O_R   0.677260 0.809970 0.513710 -0.534696
O33   O     O_R   0.051640 0.926880 0.885090 -0.600823
O34   O     O_R   0.948360 0.073120 0.114910 -0.602389
O35   O     O_R   0.948360 0.926880 0.114910 -0.600817
O36   O     O_R   0.051640 0.073120 0.885090 -0.602391
O37   O     O_R   0.551640 0.426880 0.885090 -0.600821
O38   O     O_R   0.448360 0.573120 0.114910 -0.602393
O39   O     O_R   0.448360 0.426880 0.114910 -0.600815
O40   O     O_R   0.551640 0.573120 0.885090 -0.602391
O41   O     O_R   0.940620 0.926560 0.986760 -0.566794
O42   O     O_R   0.059380 0.073440 0.013240 -0.538670
O43   O     O_R   0.059380 0.926560 0.013240 -0.566800
O44   O     O_R   0.940620 0.073440 0.986760 -0.538675
O45   O     O_R   0.440620 0.426560 0.986760 -0.566804
O46   O     O_R   0.559380 0.573440 0.013240 -0.538668
O47   O     O_R   0.559380 0.426560 0.013240 -0.566781
O48   O     O_R   0.440620 0.573440 0.986760 -0.538669
O49   O     O_3   0.580105 0.811529 0.609114 -0.562738
C157  C     C_3   0.565722 0.831291 0.698071 0.083215
H13   H     H_    0.540465 0.880891 0.720809 0.116430
H14   H     H_    0.602935 0.839846 0.704837 0.134963
C158  C     C_3   0.533472 0.770551 0.759786 -0.781505
H15   H     H_    0.526679 0.781624 0.828655 0.193149
H16   H     H_    0.493859 0.765570 0.760083 0.241603
H17   H     H_    0.555545 0.719107 0.736548 0.258507
O50   O     O_3   0.417100 0.189902 0.395182 -0.555957
C159  C     C_3   0.461288 0.196340 0.309301 0.027186
H18   H     H_    0.451421 0.167914 0.261070 0.154449
H19   H     H_    0.499728 0.174041 0.303673 0.134684
C160  C     C_3   0.470427 0.275656 0.285005 -0.751046
H20   H     H_    0.434331 0.298594 0.283622 0.253406
H21   H     H_    0.478023 0.305242 0.334972 0.232008
H22   H     H_    0.505821 0.283068 0.218743 0.237785
O51   O     O_3   0.419895 0.811533 0.390893 -0.562734
C161  C     C_3   0.434287 0.831301 0.301937 0.083203
H23   H     H_    0.459556 0.880892 0.279206 0.116434
H24   H     H_    0.397078 0.839877 0.295166 0.134949
C162  C     C_3   0.466525 0.770555 0.240220 -0.781493
H25   H     H_    0.473328 0.781640 0.171349 0.193144
H26   H     H_    0.506135 0.765548 0.239933 0.241596
H27   H     H_    0.444439 0.719120 0.263447 0.258508
O52   O     O_3   0.582906 0.189919 0.604821 -0.555986
C163  C     C_3   0.538746 0.196360 0.690730 0.027345
H28   H     H_    0.548681 0.168041 0.738949 0.154459
H29   H     H_    0.500310 0.173953 0.696453 0.134578
C164  C     C_3   0.529542 0.275690 0.714946 -0.751012
H30   H     H_    0.565694 0.298790 0.716005 0.253485
H31   H     H_    0.521736 0.305146 0.665109 0.231844
H32   H     H_    0.494249 0.283083 0.781339 0.237813
O53   O     O_3   0.080111 0.311559 0.609041 -0.562666
C165  C     C_3   0.065419 0.331341 0.698109 0.082757
H33   H     H_    0.039858 0.380698 0.720801 0.116555
H34   H     H_    0.102500 0.340350 0.705169 0.134823
C166  C     C_3   0.033406 0.270351 0.759596 -0.780726
H35   H     H_    0.026288 0.281558 0.828622 0.193067
H36   H     H_    0.993934 0.264812 0.759451 0.241669
H37   H     H_    0.055844 0.219132 0.736451 0.258335
O54   O     O_3   0.917099 0.689908 0.395150 -0.555956
C167  C     C_3   0.961285 0.696350 0.309269 0.027172
H38   H     H_    0.951421 0.667915 0.261040 0.154438
H39   H     H_    0.999727 0.674063 0.303642 0.134695
C168  C     C_3   0.970415 0.775666 0.284969 -0.751021
H40   H     H_    0.934324 0.798586 0.283557 0.253395
H41   H     H_    0.977991 0.805264 0.334950 0.232022
H42   H     H_    0.005818 0.783080 0.218719 0.237790
O55   O     O_3   0.919893 0.311538 0.390833 -0.562743
C169  C     C_3   0.934273 0.331303 0.301881 0.083183
H43   H     H_    0.959522 0.380910 0.279150 0.116436
H44   H     H_    0.897059 0.339848 0.295117 0.134957
C170  C     C_3   0.966532 0.270573 0.240155 -0.781541
H45   H     H_    0.973326 0.281650 0.171287 0.193149
H46   H     H_    0.006143 0.265599 0.239862 0.241607
H47   H     H_    0.944466 0.219125 0.263380 0.258513
O56   O     O_3   0.082903 0.689914 0.604793 -0.555983
C171  C     C_3   0.038738 0.696347 0.690699 0.027340
H48   H     H_    0.048670 0.668026 0.738919 0.154461
H49   H     H_    0.000306 0.673937 0.696411 0.134578
C172  C     C_3   0.029528 0.775675 0.714924 -0.751057
H50   H     H_    0.065671 0.798772 0.716015 0.253475
H51   H     H_    0.021739 0.805137 0.665075 0.231859
H52   H     H_    0.994225 0.783066 0.781302 0.237810
H53   H     H_    0.155758 0.798276 0.081998 0.231447
H54   H     H_    0.833084 0.182291 0.927059 0.227910
H55   H     H_    0.844267 0.798220 0.917987 0.231449
H56   H     H_    0.166912 0.182304 0.072948 0.227922
H57   H     H_    0.655756 0.298274 0.082000 0.231450
H58   H     H_    0.333092 0.682307 0.927052 0.227923
H59   H     H_    0.344256 0.298246 0.917999 0.231453
H60   H     H_    0.666929 0.682263 0.072928 0.227926
O57   O     O_3   0.284214 0.682287 0.832635 -0.519655
C173  C     C_3   0.251341 0.624151 0.834718 0.093013
H61   H     H_    0.210222 0.642588 0.849776 0.114542
H62   H     H_    0.248228 0.583712 0.885328 0.116673
C174  C     C_3   0.276267 0.588437 0.743572 -0.744192
H63   H     H_    0.314654 0.561739 0.730752 0.235878
H64   H     H_    0.248035 0.547944 0.740687 0.183269
H65   H     H_    0.284640 0.629036 0.690847 0.283813
O58   O     O_3   0.683715 0.237714 0.190140 -0.520535
C175  C     C_3   0.662785 0.167723 0.215295 0.059270
H66   H     H_    0.695632 0.128483 0.201913 0.121469
H67   H     H_    0.639791 0.150726 0.179474 0.126396
C176  C     C_3   0.624548 0.166647 0.314462 -0.741426
H68   H     H_    0.607600 0.111866 0.334759 0.190458
H69   H     H_    0.646311 0.181921 0.352596 0.264626
H70   H     H_    0.591104 0.205087 0.329659 0.252120
O59   O     O_3   0.715808 0.682231 0.167342 -0.519658
C177  C     C_3   0.748688 0.624106 0.165260 0.093012
H71   H     H_    0.789807 0.642553 0.150196 0.114541
H72   H     H_    0.751802 0.583660 0.114655 0.116683
C178  C     C_3   0.723770 0.588401 0.256410 -0.744193
H73   H     H_    0.685380 0.561703 0.269244 0.235884
H74   H     H_    0.752003 0.547909 0.259290 0.183276
H75   H     H_    0.715403 0.629005 0.309128 0.283814
O60   O     O_3   0.316295 0.237680 0.809863 -0.520553
C179  C     C_3   0.337180 0.167667 0.784715 0.059356
H76   H     H_    0.304311 0.128480 0.798019 0.121498
H77   H     H_    0.360118 0.150596 0.820602 0.126331
C180  C     C_3   0.375473 0.166592 0.685571 -0.741416
H78   H     H_    0.392377 0.111789 0.665279 0.190460
H79   H     H_    0.353770 0.181949 0.647368 0.264634
H80   H     H_    0.408945 0.204969 0.670456 0.252099
O61   O     O_3   0.784205 0.182270 0.832645 -0.519668
C181  C     C_3   0.751327 0.124140 0.834731 0.093030
H81   H     H_    0.710208 0.142584 0.849791 0.114546
H82   H     H_    0.748211 0.083700 0.885342 0.116656
C182  C     C_3   0.776247 0.088425 0.743586 -0.744231
H83   H     H_    0.814635 0.061726 0.730761 0.235882
H84   H     H_    0.748013 0.047932 0.740707 0.183269
H85   H     H_    0.784618 0.129023 0.690862 0.283816
O62   O     O_3   0.183716 0.737709 0.190134 -0.520542
C183  C     C_3   0.162806 0.667709 0.215280 0.059300
H86   H     H_    0.195662 0.628490 0.201921 0.121483
H87   H     H_    0.139832 0.650685 0.179434 0.126370
C184  C     C_3   0.124550 0.666628 0.314438 -0.741429
H88   H     H_    0.107619 0.611837 0.334727 0.190460
H89   H     H_    0.146291 0.681930 0.352597 0.264633
H90   H     H_    0.091094 0.705044 0.329611 0.252111
O63   O     O_3   0.215793 0.182266 0.167359 -0.519655
C185  C     C_3   0.248669 0.124136 0.165278 0.093002
H91   H     H_    0.289787 0.142579 0.150220 0.114543
H92   H     H_    0.251785 0.083693 0.114668 0.116676
C186  C     C_3   0.223745 0.088427 0.256425 -0.744189
H93   H     H_    0.185359 0.061724 0.269246 0.235872
H94   H     H_    0.251978 0.047939 0.259312 0.183275
H95   H     H_    0.215369 0.129029 0.309148 0.283815
O64   O     O_3   0.816310 0.737653 0.809848 -0.520556
C187  C     C_3   0.837204 0.667646 0.784697 0.059346
H96   H     H_    0.804339 0.628447 0.798025 0.121497
H97   H     H_    0.860159 0.650593 0.820562 0.126341
C188  C     C_3   0.875479 0.666568 0.685546 -0.741440
H98   H     H_    0.892396 0.611771 0.665251 0.190453
H99   H     H_    0.853756 0.681900 0.647366 0.264629
H100  H     H_    0.908943 0.704963 0.670403 0.252119
O65   O     O_3   0.096860 0.777211 0.022444 -0.581517
C189  C     C_3   0.085713 0.707064 0.002742 0.092166
H101  H     H_    0.121502 0.671589 0.982465 0.129020
H102  H     H_    0.073494 0.707768 0.948681 0.139633
C190  C     C_3   0.039810 0.674160 0.084362 -0.864994
H103  H     H_    0.002959 0.707309 0.105282 0.251233
H104  H     H_    0.031380 0.619209 0.068567 0.197265
H105  H     H_    0.051254 0.670635 0.138791 0.243394
O66   O     O_3   0.841090 0.090982 0.014420 -0.566929
C191  C     C_3   0.809034 0.031167 0.059638 0.088415
H106  H     H_    0.766181 0.047290 0.100764 0.113793
H107  H     H_    0.824099 0.005239 0.103155 0.123960
C192  C     C_3   0.811304 0.976036 0.991747 -0.782099
H108  H     H_    0.853379 0.957281 0.950875 0.269699
H109  H     H_    0.785581 0.929211 0.026569 0.189536
H110  H     H_    0.796468 0.000280 0.947321 0.240748
O67   O     O_3   0.903157 0.777204 0.977563 -0.581532
C193  C     C_3   0.914330 0.707075 0.997274 0.092182
H111  H     H_    0.878553 0.671576 0.017561 0.129021
H112  H     H_    0.926552 0.707812 0.051330 0.139630
C194  C     C_3   0.960244 0.674181 0.915656 -0.865008
H113  H     H_    0.997083 0.707354 0.894729 0.251194
H114  H     H_    0.968693 0.619243 0.931458 0.197263
H115  H     H_    0.948799 0.670624 0.861229 0.243408
O68   O     O_3   0.158906 0.090984 0.985598 -0.566915
C195  C     C_3   0.190969 0.031170 0.940390 0.088387
H116  H     H_    0.233822 0.047296 0.899285 0.113789
H117  H     H_    0.175918 0.005238 0.896857 0.123936
C196  C     C_3   0.188687 0.976042 0.008290 -0.782071
H118  H     H_    0.146611 0.957280 0.049138 0.269699
H119  H     H_    0.214419 0.929222 0.973476 0.189548
H120  H     H_    0.203505 0.000292 0.052737 0.240768
O69   O     O_3   0.596858 0.277216 0.022447 -0.581516
C197  C     C_3   0.585701 0.207072 0.002747 0.092146
H121  H     H_    0.621484 0.171590 0.982480 0.129028
H122  H     H_    0.573487 0.207781 0.948683 0.139632
C198  C     C_3   0.539790 0.174179 0.084365 -0.864996
H123  H     H_    0.502946 0.207342 0.105282 0.251261
H124  H     H_    0.531350 0.119235 0.068570 0.197270
H125  H     H_    0.551231 0.170643 0.138796 0.243377
O70   O     O_3   0.341094 0.590991 0.014412 -0.566920
C199  C     C_3   0.309038 0.531175 0.059627 0.088408
H126  H     H_    0.266186 0.547296 0.100751 0.113789
H127  H     H_    0.324102 0.505246 0.103144 0.123950
C200  C     C_3   0.311310 0.476045 0.991733 -0.782072
H128  H     H_    0.353386 0.457291 0.950863 0.269698
H129  H     H_    0.285587 0.429220 0.026553 0.189549
H130  H     H_    0.296476 0.500290 0.947306 0.240747
O71   O     O_3   0.403149 0.277202 0.977565 -0.581523
C201  C     C_3   0.414297 0.207058 0.997271 0.092145
H131  H     H_    0.378516 0.171577 0.017517 0.129045
H132  H     H_    0.426497 0.207764 0.051352 0.139633
C202  C     C_3   0.460219 0.174164 0.915667 -0.865017
H133  H     H_    0.497061 0.207324 0.894773 0.251188
H134  H     H_    0.468653 0.119218 0.931466 0.197280
H135  H     H_    0.448793 0.170630 0.861217 0.243418
O72   O     O_3   0.658914 0.590962 0.985565 -0.566918
C203  C     C_3   0.690970 0.531149 0.940339 0.088396
H136  H     H_    0.733821 0.547272 0.899209 0.113779
H137  H     H_    0.675901 0.505220 0.896827 0.123953
C204  C     C_3   0.688705 0.476019 0.008225 -0.782071
H138  H     H_    0.646632 0.457258 0.049098 0.269702
H139  H     H_    0.714432 0.429198 0.973398 0.189533
H140  H     H_    0.703541 0.500266 0.052651 0.240765
H141  H     H_    0.121082 0.859733 0.763315 0.214778
H142  H     H_    0.885045 0.154728 0.228996 0.214911
H143  H     H_    0.878869 0.859826 0.236713 0.214778
H144  H     H_    0.115002 0.154639 0.770961 0.214784
H145  H     H_    0.621091 0.359749 0.763310 0.214772
H146  H     H_    0.385045 0.654728 0.228996 0.214903
H147  H     H_    0.378884 0.359801 0.236706 0.214781
H148  H     H_    0.614947 0.654747 0.771017 0.214900
O73   O     O_3   0.273366 0.791111 0.761199 -0.510750
C205  C     C_3   0.292065 0.862442 0.739930 0.074290
H149  H     H_    0.277525 0.896082 0.801208 0.116279
H150  H     H_    0.278739 0.886792 0.693316 0.122569
C206  C     C_3   0.353326 0.862258 0.694156 -0.733358
H151  H     H_    0.368744 0.827370 0.634256 0.260031
H152  H     H_    0.368782 0.917665 0.673509 0.186306
H153  H     H_    0.368109 0.841493 0.740355 0.244376
O74   O     O_3   0.759779 0.295871 0.209368 -0.509144
C207  C     C_3   0.790515 0.355453 0.160748 0.079210
H154  H     H_    0.818169 0.342650 0.089434 0.118125
H155  H     H_    0.814718 0.376238 0.192555 0.124815
C208  C     C_3   0.752442 0.413902 0.161868 -0.770802
H156  H     H_    0.724140 0.428658 0.231664 0.257764
H157  H     H_    0.776087 0.461730 0.125813 0.175909
H158  H     H_    0.728907 0.394609 0.128360 0.254851
O75   O     O_3   0.726636 0.791057 0.238789 -0.510747
C209  C     C_3   0.707917 0.862384 0.260019 0.074274
H159  H     H_    0.722427 0.895986 0.198715 0.116323
H160  H     H_    0.721260 0.886794 0.306584 0.122543
C210  C     C_3   0.646656 0.862164 0.305851 -0.733328
H161  H     H_    0.631269 0.827317 0.365785 0.260012
H162  H     H_    0.631186 0.917570 0.326455 0.186297
H163  H     H_    0.631854 0.841329 0.259705 0.244403
O76   O     O_3   0.240235 0.295852 0.790623 -0.509159
C211  C     C_3   0.209516 0.355440 0.839256 0.079243
H164  H     H_    0.181901 0.342649 0.910589 0.118171
H165  H     H_    0.185273 0.376206 0.807512 0.124831
C212  C     C_3   0.247607 0.413902 0.838040 -0.770812
H166  H     H_    0.275867 0.428648 0.768220 0.257737
H167  H     H_    0.223973 0.461734 0.874112 0.175921
H168  H     H_    0.271185 0.394627 0.871478 0.254886
O77   O     O_3   0.773366 0.291091 0.761199 -0.510747
C213  C     C_3   0.792075 0.362420 0.739934 0.074312
H169  H     H_    0.777569 0.396040 0.801224 0.116308
H170  H     H_    0.778721 0.386802 0.693371 0.122530
C214  C     C_3   0.853337 0.362214 0.694080 -0.733391
H171  H     H_    0.868721 0.327352 0.634158 0.260014
H172  H     H_    0.868798 0.417621 0.673452 0.186297
H173  H     H_    0.868151 0.341407 0.740221 0.244389
O78   O     O_3   0.259777 0.795872 0.209372 -0.509148
C215  C     C_3   0.290507 0.855458 0.160754 0.079223
H174  H     H_    0.318147 0.842664 0.089431 0.118150
H175  H     H_    0.314726 0.876232 0.192540 0.124807
C216  C     C_3   0.252428 0.913914 0.161917 -0.770805
H176  H     H_    0.224141 0.928663 0.231724 0.257751
H177  H     H_    0.276069 0.961745 0.125860 0.175920
H178  H     H_    0.228876 0.894632 0.128433 0.254861
O79   O     O_3   0.226634 0.291095 0.238792 -0.510758
C217  C     C_3   0.207929 0.362426 0.260045 0.074284
H179  H     H_    0.222492 0.396066 0.198764 0.116273
H180  H     H_    0.221229 0.386776 0.306694 0.122584
C218  C     C_3   0.146669 0.362237 0.305754 -0.733385
H181  H     H_    0.131229 0.327341 0.365647 0.260036
H182  H     H_    0.131207 0.417641 0.326401 0.186313
H183  H     H_    0.131915 0.341477 0.259513 0.244362
O80   O     O_3   0.740258 0.795832 0.790605 -0.509141
C219  C     C_3   0.709555 0.855426 0.839253 0.079234
H184  H     H_    0.681962 0.842639 0.910597 0.118184
H185  H     H_    0.685291 0.876196 0.807548 0.124765
C220  C     C_3   0.747665 0.913882 0.837983 -0.770743
H186  H     H_    0.775899 0.928631 0.768151 0.257707
H187  H     H_    0.724042 0.961712 0.874084 0.175918
H188  H     H_    0.771273 0.894599 0.871368 0.254913

loop_
_geom_bond_atom_site_label_1
_geom_bond_atom_site_label_2
_ccdc_geom_bond_type
O64   C187  S    
C22   C94   S    
C210  H161  S    
C34   C42   A    
C16   C113  A    
C110  C118  A    
C182  H83   S    
Cu9   Cu10  S    
O61   C181  S    
C214  H173  S    
C27   C99   S    
O71   C201  S    
C13   C139  A    
Cu12  O35   S    
C24   C96   S    
C211  H165  S    
C168  H42   S    
C30   C38   A    
C187  C188  S    
C204  H138  S    
C216  H177  S    
C192  H110  S    
C163  H29   S    
Cu8   O24   S    
C207  C208  S    
C103  O43   A    
C175  H66   S    
C109  C127  A    
C208  H157  S    
C111  C125  A    
C158  H16   S    
C39   H60   S    
C171  C172  S    
C190  H105  S    
C125  C135  A    
C143  C151  A    
C198  H124  S    
C126  C136  A    
C19   C141  A    
C67   H147  S    
O51   C161  S    
C92   C147  S    
C201  H132  S    
C82   C98   A    
C130  C134  A    
C65   H145  S    
C88   O28   A    
C73   C81   A    
C186  H94   S    
C173  H62   S    
C51   C59   A    
C188  H100  S    
C175  H67   S    
C115  C123  A    
C84   C100  A    
Cu4   Cu7   S    
C8    O24   A    
Cu1   O25   S    
C127  C136  A    
C128  C135  A    
Cu12  O42   S    
C112  C120  A    
C183  H86   S    
C206  H153  S    
C195  H117  S    
Cu6   O30   S    
C27   C35   A    
O77   C213  S    
C21   C29   A    
Cu9   O48   S    
C170  H47   S    
C61   H141  S    
C23   C31   A    
O74   C207  S    
C24   C32   A    
O49   C157  S    
C220  H188  S    
C16   O52   S    
C31   O59   S    
C146  C154  A    
Cu7   O23   S    
C179  C180  S    
C184  H90   S    
C157  H14   S    
C129  C133  A    
C63   C71   A    
O67   C193  S    
C210  H163  S    
C167  H39   S    
C7    O12   A    
C36   C44   A    
C148  C153  A    
C182  H85   S    
C102  O42   A    
Cu6   O6    S    
C137  C145  A    
C8    C71   S    
C207  H155  S    
C48   C96   A    
C177  C178  S    
C213  H169  S    
C16   C138  A    
Cu8   O8    S    
C183  C184  S    
C49   O69   S    
C14   O50   S    
Cu3   O27   S    
C78   C94   A    
C196  H118  S    
C2    O13   A    
C117  C119  A    
C149  C155  A    
O65   C189  S    
C171  H49   S    
C156  H12   S    
C181  C182  S    
C142  C150  A    
C21   C93   S    
C101  O35   A    
Cu2   O18   S    
C23   C95   S    
C47   O67   S    
C35   O63   S    
C217  H179  S    
C118  C120  A    
Cu11  O44   S    
C121  C123  A    
C49   C97   A    
C21   C42   A    
C116  C130  A    
C86   O5    A    
C178  H73   S    
O60   C179  S    
C125  C127  A    
C24   C43   A    
C172  H50   S    
C83   O79   S    
C164  H31   S    
C200  H128  S    
O70   C199  S    
Cu10  O39   S    
C68   H148  S    
C110  C128  A    
C194  H114  S    
C9    C133  A    
C6    C69   S    
O63   C185  S    
C69   C77   A    
C45   C93   A    
C212  H168  S    
C71   C79   A    
C198  H123  S    
C85   O25   A    
O76   C211  S    
C62   C70   A    
C162  H25   S    
Cu6   O22   S    
C1    C74   S    
Cu8   O32   S    
Cu2   O10   S    
C119  H6    S    
C5    O21   A    
O53   C165  S    
C9    C140  A    
C5    C70   S    
C176  H69   S    
C66   C74   A    
C49   C57   A    
C217  C218  S    
C111  C119  A    
C164  H30   S    
Cu12  O34   S    
C191  H106  S    
C177  H72   S    
C52   C60   A    
C59   C67   A    
C189  H101  S    
C53   C61   A    
Cu10  O47   S    
C105  O39   A    
C107  O47   A    
C7    O23   A    
C56   C64   A    
C209  H159  S    
C105  O45   A    
C35   C43   A    
C158  H15   S    
C58   C108  S    
Cu9   O40   S    
Cu9   O37   S    
C45   C53   A    
O55   C169  S    
C180  H79   S    
C185  H91   S    
C202  H134  S    
C212  H166  S    
C181  H82   S    
C196  H120  S    
C153  H9    S    
C50   C98   A    
C91   O31   A    
C7    C72   S    
C181  H81   S    
C89   O29   A    
C163  C164  S    
C52   C100  A    
C220  H187  S    
C191  C192  S    
O79   C217  S    
C79   O75   S    
C25   C38   A    
Cu4   O28   S    
C66   H146  S    
C46   C94   A    
C90   O1    A    
C27   C40   A    
C178  H75   S    
C209  C210  S    
Cu9   O45   S    
C216  H176  S    
Cu5   O13   S    
C82   O78   S    
C200  H130  S    
C187  H97   S    
C218  H182  S    
C189  C190  S    
C28   C36   A    
C179  H76   S    
C2    C73   S    
C102  O36   A    
C14   C140  A    
C87   C152  S    
C203  H136  S    
C88   C151  S    
C197  H122  S    
C92   O32   A    
C67   C75   A    
Cu11  O33   S    
Cu12  O43   S    
C122  C124  A    
C62   H142  S    
C198  H125  S    
C60   C106  S    
C25   C97   S    
C161  H23   S    
C162  H27   S    
C126  C128  A    
C22   C30   A    
C166  H37   S    
C167  H38   S    
C1    O17   A    
C213  C214  S    
C77   O73   S    
Cu8   O16   S    
C165  H33   S    
C214  H172  S    
C10   C138  A    
C12   C143  A    
C205  H149  S    
C164  H32   S    
C80   O76   S    
C56   C102  S    
C144  C152  A    
O69   C197  S    
C211  C212  S    
C138  C146  A    
Cu1   Cu6   S    
C6    O9    A    
C212  H167  S    
C45   O65   S    
C20   O56   S    
C215  H174  S    
C158  H17   S    
C192  H109  S    
C123  H2    S    
C48   O68   S    
C4    O20   A    
C121  H4    S    
C113  C121  A    
C203  C204  S    
C208  H156  S    
C12   C136  A    
Cu3   Cu8   S    
C179  H77   S    
C15   C137  A    
C91   O4    A    
C104  O44   A    
O73   C205  S    
C25   C33   A    
C190  H104  S    
C161  C162  S    
C106  O40   A    
C193  H111  S    
C204  H139  S    
C131  C134  A    
C76   C84   A    
C165  C166  S    
C186  H93   S    
C109  C117  A    
C188  H99   S    
C159  C160  S    
C59   C105  S    
C54   C104  S    
C90   C145  S    
C115  C129  A    
C183  H87   S    
C206  H152  S    
C22   C41   A    
C14   C115  A    
C172  H52   S    
C85   C150  S    
C4    C75   S    
Cu5   O5    S    
Cu2   Cu5   S    
C173  H61   S    
C9    C137  A    
C88   O7    A    
C124  H1    S    
C169  C170  S    
C63   H143  S    
C32   O60   S    
C184  H89   S    
C112  C126  A    
C108  O38   A    
Cu3   O19   S    
C83   C99   A    
O54   C167  S    
C210  H162  S    
C167  C168  S    
C86   O26   A    
Cu1   O1    S    
C74   C82   A    
C182  H84   S    
C155  H11   S    
C159  H19   S    
C50   C58   A    
Cu3   O11   S    
Cu4   O12   S    
Cu11  Cu12  S    
C166  H36   S    
C211  H164  S    
C54   C62   A    
C28   C39   A    
O62   C183  S    
Cu5   O29   S    
C23   C44   A    
C205  C206  S    
Cu2   O26   S    
C130  C132  A    
C79   C95   A    
O56   C171  S    
C11   C135  A    
C205  H150  S    
C196  H119  S    
C84   O80   S    
C173  C174  S    
C152  C155  A    
Cu7   O15   S    
C208  H158  S    
C46   C54   A    
C151  C156  A    
C18   C111  A    
C217  H180  S    
C34   O62   S    
C19   O55   S    
C154  H10   S    
C201  H131  S    
C170  H46   S    
C10   C139  A    
C186  H95   S    
C194  H113  S    
C101  O41   A    
C37   H58   S    
C159  H18   S    
C116  C124  A    
C40   H59   S    
O57   C173  S    
C57   C65   A    
C26   C37   A    
C195  H116  S    
C108  O48   A    
C3    O16   A    
C193  C194  S    
C17   C143  A    
C33   C41   A    
C89   O2    A    
C160  H22   S    
C163  H28   S    
C18   C144  A    
C1    O14   A    
C75   C83   A    
C176  H68   S    
O52   C163  S    
C78   O74   S    
C53   C103  S    
C77   C93   A    
C12   C142  A    
Cu1   O17   S    
O72   C203  S    
C17   O53   S    
C157  H13   S    
C191  H107  S    
C13   C116  A    
C13   O49   S    
C60   C68   A    
C72   C80   A    
C174  H63   S    
C29   C37   A    
C199  H126  S    
C209  H160  S    
C46   O66   S    
C29   O57   S    
C36   O64   S    
C175  C176  S    
C4    O15   A    
C207  H154  S    
C52   O72   S    
C70   C78   A    
C180  H78   S    
C90   O30   A    
C140  C148  A    
C195  C196  S    
C202  H133  S    
C141  C149  A    
Cu4   O20   S    
C219  H185  S    
O58   C175  S    
C201  C202  S    
C219  C220  S    
C139  C147  A    
O78   C215  S    
O59   C177  S    
Cu5   O21   S    
C2    O18   A    
C5    O10   A    
C6    O22   A    
C171  H48   S    
C213  H170  S    
C185  C186  S    
C8    O11   A    
C160  H20   S    
C65   C73   A    
C157  C158  S    
Cu7   O7    S    
C220  H186  S    
C147  C154  A    
Cu11  O41   S    
C172  H51   S    
C58   C66   A    
C15   O51   S    
C31   C39   A    
C132  C133  A    
C178  H74   S    
C44   H55   S    
C3    O19   A    
C106  O46   A    
C168  H41   S    
C200  H129  S    
C11   C144  A    
Cu10  O38   S    
C194  H115  S    
C145  C153  A    
C41   H54   S    
C28   C100  S    
C32   C40   A    
C107  O37   A    
C203  H137  S    
C197  C198  S    
C33   O61   S    
O75   C209  S    
Cu11  O36   S    
C91   C148  S    
C30   O58   S    
C26   C34   A    
C189  H102  S    
C51   C99   A    
C89   C146  S    
C161  H24   S    
C162  H26   S    
C20   C142  A    
C214  H171  S    
C86   C149  S    
C11   C141  A    
Cu7   O31   S    
C176  H70   S    
C165  H34   S    
C215  C216  S    
C174  H64   S    
C170  H45   S    
C216  H178  S    
C199  C200  S    
C50   O70   S    
C55   C63   A    
C160  H21   S    
C185  H92   S    
C177  H71   S    
C42   H53   S    
Cu10  O46   S    
C174  H65   S    
Cu6   O14   S    
C168  H40   S    
C15   C114  A    
C68   C76   A    
C215  H175  S    
C3    C76   S    
Cu2   O2    S    
C87   O27   A    
C192  H108  S    
C26   C98   S    
C117  H8    S    
C57   C107  S    
C118  H7    S    
C122  H3    S    
C180  H80   S    
C169  H44   S    
C80   C96   A    
C17   C112  A    
C202  H135  S    
C47   C55   A    
C190  H103  S    
C166  H35   S    
C19   C110  A    
C61   C69   A    
C85   O6    A    
C48   C56   A    
C103  O33   A    
C219  H184  S    
C193  H112  S    
C113  C131  A    
C169  H43   S    
C114  C132  A    
C81   O77   S    
C10   C134  A    
C92   O3    A    
C87   O8    A    
C64   H144  S    
C188  H98   S    
C55   C101  S    
C218  H181  S    
O80   C219  S    
C104  O34   A    
O66   C191  S    
C206  H151  S    
O68   C195  S    
C81   C97   A    
C204  H140  S    
C51   O71   S    
C199  H127  S    
C64   C72   A    
C187  H96   S    
C218  H183  S    
Cu1   O9    S    
C20   C109  A    
C114  C122  A    
C120  H5    S    
C43   H56   S    
C38   H57   S    
C47   C95   A    
C197  H121  S    
C150  C156  A    
Cu3   O3    S    
C184  H88   S    
O50   C159  S    
Cu4   O4    S    
C18   O54   S    
C129  C131  A    
