data_mof_unit_10407.cif
_audit_creation_date              2012-12-10T19:47:22-0500
_audit_creation_method            fapswitch 2.2
_symmetry_space_group_name_H-M    P1
_symmetry_Int_Tables_number       1
_space_group_crystal_system       triclinic
_cell_length_a                    10.895921
_cell_length_b                    10.903579
_cell_length_c                    12.697681
_cell_angle_alpha                 91.591389
_cell_angle_beta                  91.767083
_cell_angle_gamma                 90.214708
_cell_volume                      1507.22712349

loop_
_atom_site_label
_atom_site_type_symbol
_atom_type_description
_atom_site_fract_x
_atom_site_fract_y
_atom_site_fract_z
_atom_type_partial_charge
C1    C     C_R   0.261867 0.502054 0.501613 0.790819
C2    C     C_R   0.738129 0.497905 0.498385 0.791126
C3    C     C_R   0.497334 0.871731 0.496022 -0.087432
C4    C     C_R   0.502532 0.128276 0.503971 -0.087329
C5    C     C_R   0.491827 0.936880 0.401482 0.019026
C6    C     C_R   0.507999 0.063133 0.598502 0.018922
C7    C     C_R   0.159215 0.487656 0.883313 -0.126120
C8    C     C_R   0.840274 0.511679 0.116711 -0.127331
C9    C     C_R   0.112625 0.460497 0.781659 -0.136129
C10   C     C_R   0.887037 0.539005 0.218288 -0.136437
C11   C     C_R   0.122446 0.546729 0.702201 0.126974
C12   C     C_R   0.877493 0.452848 0.297838 0.127339
C13   C     C_R   0.179267 0.660502 0.725693 -0.092480
C14   C     C_R   0.820780 0.338980 0.274515 -0.092841
C15   C     C_R   0.226350 0.687064 0.827477 -0.134861
C16   C     C_R   0.773528 0.312249 0.172807 -0.134977
C17   C     C_R   0.215449 0.600963 0.906240 -0.134208
C18   C     C_R   0.784138 0.398280 0.093952 -0.133625
C19   C     C_R   0.936366 0.516926 0.592389 -0.238498
C20   C     C_R   0.063618 0.482944 0.407594 -0.238610
C21   C     C_R   0.871722 0.496348 0.496355 -0.086171
C22   C     C_R   0.128266 0.503542 0.503634 -0.086143
C23   C     C_R   0.501405 0.261853 0.501785 0.794435
C24   C     C_R   0.498544 0.738150 0.498215 0.794257
C25   C     C_R   0.936459 0.478354 0.402586 -0.008607
C26   C     C_R   0.063520 0.521452 0.597409 -0.008600
C27   C     C_2   0.461716 0.470391 0.031607 -0.290809
C28   C     C_2   0.538267 0.529743 0.968401 -0.290613
C29   C     C_1   0.526525 0.523442 0.852694 0.217336
C30   C     C_1   0.473471 0.476614 0.147308 0.217504
C31   C     C_R   0.653640 0.198460 0.848367 -0.220698
C32   C     C_R   0.345658 0.799711 0.152531 -0.220232
C33   C     C_R   0.637875 0.157326 0.743870 -0.119056
C34   C     C_R   0.361887 0.840953 0.256952 -0.116406
C35   C     C_R   0.521426 0.121141 0.704669 0.061600
C36   C     C_R   0.478140 0.878895 0.295308 0.061386
C37   C     C_R   0.420722 0.126611 0.770899 -0.207072
C38   C     C_R   0.578154 0.875173 0.228259 -0.208232
C39   C     C_R   0.435576 0.165418 0.876702 0.543027
C40   C     C_R   0.562816 0.836242 0.122522 0.543702
C41   C     C_R   0.553650 0.202858 0.914722 -0.234421
C42   C     C_R   0.444962 0.796949 0.085395 -0.236406
C43   C     C_R   0.504768 0.936081 0.593163 -0.246864
C44   C     C_R   0.495122 0.063933 0.406830 -0.246893
Cu1   Cu    Cu3+1 0.492140 0.492110 0.395880 0.979926
Cu2   Cu    Cu3+1 0.507860 0.507890 0.604120 0.980021
H1    H     H_    0.569043 0.235277 0.995185 0.141799
H2    H     H_    0.429200 0.764346 0.005030 0.141663
H3    H     H_    0.186010 0.728549 0.665557 0.107847
H4    H     H_    0.814242 0.270995 0.334723 0.107851
H5    H     H_    0.270151 0.774733 0.845524 0.123495
H6    H     H_    0.729810 0.224508 0.154881 0.124082
H7    H     H_    0.887807 0.531920 0.664903 0.166911
H8    H     H_    0.112177 0.467945 0.335084 0.166824
H9    H     H_    0.612351 0.584998 0.003738 0.195694
H10   H     H_    0.387598 0.415198 0.996272 0.196826
H11   H     H_    0.744100 0.225348 0.878187 0.147707
H12   H     H_    0.255337 0.771423 0.123401 0.147230
H13   H     H_    0.716649 0.151412 0.694005 0.127902
H14   H     H_    0.283591 0.845531 0.307434 0.127283
H15   H     H_    0.330851 0.097252 0.740917 0.141742
H16   H     H_    0.667837 0.905941 0.257578 0.141900
H17   H     H_    0.509715 0.887461 0.666569 0.163184
H18   H     H_    0.490156 0.112565 0.333432 0.163297
H19   H     H_    0.250529 0.621606 0.985149 0.132320
H20   H     H_    0.748899 0.377509 0.015106 0.132588
H21   H     H_    0.150955 0.421233 0.944523 0.149495
H22   H     H_    0.848294 0.578056 0.055435 0.148580
H23   H     H_    0.067669 0.373009 0.765027 0.128460
H24   H     H_    0.931866 0.626584 0.234803 0.128231
N1    N     N_1   0.480320 0.480250 0.239400 -0.154608
N2    N     N_1   0.519680 0.519750 0.760600 -0.154675
O1    O     O_R   0.313000 0.493330 0.412070 -0.587489
O2    O     O_R   0.687000 0.506670 0.587930 -0.587367
O3    O     O_R   0.326280 0.506660 0.587930 -0.567895
O4    O     O_R   0.673720 0.493340 0.412070 -0.567847
O5    O     O_R   0.493370 0.312980 0.412070 -0.591531
O6    O     O_R   0.506630 0.687020 0.587930 -0.591533
O7    O     O_R   0.506650 0.326310 0.587930 -0.564738
O8    O     O_R   0.493350 0.673690 0.412070 -0.564823
O9    O     O_3   0.331204 0.170874 0.937086 -0.597124
C45   C     C_3   0.355526 0.135452 0.041802 -0.364857
H25   H     H_    0.394920 0.213125 0.090201 0.163996
H26   H     H_    0.416314 0.053974 0.046029 0.164170
H27   H     H_    0.267391 0.109885 0.076932 0.203081
O10   O     O_3   0.666667 0.832655 0.061380 -0.596492
C46   C     C_3   0.640475 0.865657 0.956304 -0.363302
H28   H     H_    0.577147 0.945117 0.951353 0.163477
H29   H     H_    0.603124 0.786098 0.909080 0.164034
H30   H     H_    0.727501 0.893309 0.920383 0.203313

loop_
_geom_bond_atom_site_label_1
_geom_bond_atom_site_label_2
_ccdc_geom_bond_type
C46   H28   S    
Cu1   N1    S    
C32   H12   S    
C30   N1    T    
C43   H17   S    
C39   C41   A    
Cu1   Cu2   S    
C44   H18   S    
C3    C43   A    
Cu1   O4    S    
C28   C29   S    
C35   C37   A    
C9    H23   S    
Cu2   O7    S    
C20   C25   A    
C5    C36   S    
C6    C35   S    
Cu1   O1    S    
C40   O10   S    
C19   C26   A    
C24   O8    A    
C7    C17   A    
C31   C33   A    
C15   H5    S    
Cu2   N2    S    
C2    O2    A    
C29   N2    T    
C19   H7    S    
C40   C42   A    
C1    C22   S    
C33   H13   S    
C27   C30   S    
C34   H14   S    
C3    C24   S    
Cu2   O3    S    
C28   H9    S    
O9    C45   S    
C1    O3    A    
C39   O9    S    
C20   H8    S    
Cu2   O6    S    
C4    C23   S    
O10   C46   S    
C4    C44   A    
C11   C26   S    
C8    C18   A    
C32   C34   A    
C2    C21   S    
C41   H1    S    
C16   C18   A    
C42   H2    S    
C23   O5    A    
C9    C11   A    
C10   C12   A    
C13   H3    S    
C10   H24   S    
C4    C6    A    
C5    C44   A    
C20   C22   A    
C8    H22   S    
C45   H26   S    
C6    C43   A    
C13   C15   A    
C14   C16   A    
Cu2   O2    S    
C2    O4    A    
C24   O6    A    
C15   C17   A    
C21   C25   A    
C31   C41   A    
C19   C21   A    
C27   H10   S    
C16   H6    S    
C12   C14   A    
C3    C5    A    
C37   H15   S    
C18   H20   S    
C45   H27   S    
C17   H19   S    
C12   C25   S    
C1    O1    A    
C31   H11   S    
C46   H29   S    
C37   C39   A    
C38   C40   A    
C11   C13   A    
C14   H4    S    
C36   C38   A    
C33   C35   A    
Cu1   O8    S    
C34   C36   A    
C7    H21   S    
C7    C9    A    
C8    C10   A    
C45   H25   S    
C22   C26   A    
C46   H30   S    
C27   C28   D    
C32   C42   A    
Cu1   O5    S    
C23   O7    A    
C38   H16   S    
