data_mof_unit_57280.cif
_audit_creation_date              2012-10-26T18:30:18-0400
_audit_creation_method            fapswitch 2.2
_symmetry_space_group_name_H-M    P1
_symmetry_Int_Tables_number       1
_space_group_crystal_system       triclinic
_cell_length_a                    10.63408
_cell_length_b                    13.008287
_cell_length_c                    11.668062
_cell_angle_alpha                 100.312608
_cell_angle_beta                  93.810716
_cell_angle_gamma                 90.254375
_cell_volume                      1584.25221862

loop_
_atom_site_label
_atom_site_type_symbol
_atom_type_description
_atom_site_fract_x
_atom_site_fract_y
_atom_site_fract_z
_atom_type_partial_charge
C1    C     C_R   0.503867 0.299083 0.477874 0.557515
C2    C     C_R   0.603563 0.591695 0.857213 0.062665
C3    C     C_R   0.548432 0.544585 0.157879 0.069291
C4    C     C_R   0.451567 0.455415 0.842121 0.069285
C5    C     C_R   0.541167 0.537148 0.034806 0.010295
C6    C     C_R   0.458833 0.462852 0.965194 0.010301
C7    C     C_R   0.259108 0.500076 0.500174 0.564428
C8    C     C_R   0.740892 0.499924 0.499826 0.564413
C9    C     C_3   0.044761 0.418875 0.546283 -0.128587
C10   C     C_3   0.955239 0.581124 0.453716 -0.128587
C11   C     C_3   0.953335 0.410014 0.436062 -0.111801
C12   C     C_R   0.496131 0.700917 0.522125 0.557530
C13   C     C_3   0.046665 0.589985 0.563937 -0.111797
C14   C     C_3   0.877708 0.499860 0.499962 0.039505
C15   C     C_3   0.122292 0.500139 0.500038 0.039508
C16   C     C_3   0.966887 0.508732 0.610347 -0.110996
C17   C     C_3   0.033113 0.491267 0.389653 -0.110992
C18   C     C_R   0.487092 0.814707 0.535966 -0.046713
C19   C     C_R   0.512900 0.185291 0.464031 -0.046718
C20   C     C_R   0.558242 0.013265 0.354322 0.049256
C21   C     C_R   0.441723 0.986730 0.645662 0.049284
C22   C     C_R   0.557596 0.122817 0.363200 0.026976
C23   C     C_R   0.473700 0.139385 0.554943 -0.127322
C24   C     C_R   0.442373 0.877179 0.636788 0.026977
C25   C     C_2   0.395725 0.829268 0.732759 0.627249
C26   C     C_2   0.604213 0.170728 0.267217 0.627289
C27   C     C_2   0.599473 0.946647 0.246373 0.597190
C28   C     C_2   0.400440 0.053344 0.753589 0.597207
C29   C     C_R   0.526298 0.860614 0.445058 -0.127303
C30   C     C_R   0.479402 0.031828 0.550905 -0.014005
C31   C     C_R   0.520580 0.968169 0.449087 -0.013991
C32   C     C_R   0.386072 0.398171 0.020331 -0.166569
C33   C     C_R   0.613927 0.601830 0.979670 -0.166574
C34   C     C_R   0.396436 0.408305 0.142787 0.062660
Cu1   Cu    Cu3+1 0.509400 0.507730 0.615930 0.989854
Cu2   Cu    Cu3+1 0.490600 0.492270 0.384070 0.989860
H1    H     H_    0.912560 0.336341 0.383735 0.177318
H2    H     H_    0.611821 0.601349 0.212163 0.120926
H3    H     H_    0.659802 0.642106 0.815762 0.141838
H4    H     H_    0.340198 0.357894 0.184238 0.141849
H5    H     H_    0.321662 0.340175 0.969297 0.107720
H6    H     H_    0.678336 0.659826 0.030703 0.107732
H7    H     H_    0.411355 0.819774 0.903738 0.350520
H8    H     H_    0.588492 0.180255 0.096250 0.350525
H9    H     H_    0.555001 0.831362 0.109209 0.340629
H10   H     H_    0.444859 0.168594 0.890800 0.340618
H11   H     H_    0.087438 0.663658 0.616264 0.177337
H12   H     H_    0.084545 0.352623 0.584223 0.126866
H13   H     H_    0.915454 0.647376 0.415777 0.126858
H14   H     H_    0.937260 0.515912 0.700869 0.137548
H15   H     H_    0.062739 0.484086 0.299130 0.137549
H16   H     H_    0.563812 0.810857 0.371168 0.163175
H17   H     H_    0.436207 0.189144 0.628842 0.163162
H18   H     H_    0.388179 0.398651 0.787837 0.120925
N1    N     N_R   0.523540 0.519360 0.790140 -0.229315
N2    N     N_R   0.476460 0.480640 0.209860 -0.229314
O1    O     O_R   0.506670 0.354460 0.582000 -0.513297
O2    O     O_R   0.450867 0.857957 0.846259 -0.651223
O3    O     O_2   0.691218 0.234556 0.287535 -0.512007
O4    O     O_R   0.548997 0.142075 0.153739 -0.651245
O5    O     O_2   0.705179 0.958285 0.214819 -0.480665
O6    O     O_R   0.516509 0.871504 0.180705 -0.683696
O7    O     O_2   0.294686 0.041744 0.785053 -0.480718
O8    O     O_R   0.483401 0.128445 0.819332 -0.683634
O9    O     O_R   0.493330 0.645540 0.418000 -0.513288
O10   O     O_R   0.490800 0.341410 0.386200 -0.480704
O11   O     O_R   0.509200 0.658590 0.613800 -0.480700
O12   O     O_R   0.324790 0.506500 0.597880 -0.489288
O13   O     O_R   0.675210 0.493500 0.402120 -0.489300
O14   O     O_R   0.308910 0.493440 0.402080 -0.514620
O15   O     O_R   0.691090 0.506560 0.597920 -0.514622
O16   O     O_2   0.308753 0.765413 0.712414 -0.512041

loop_
_geom_bond_atom_site_label_1
_geom_bond_atom_site_label_2
_ccdc_geom_bond_type
C6    C32   A    
C34   N2    A    
Cu1   Cu2   S    
C17   H15   S    
C7    O14   A    
C8    O13   A    
C18   C24   A    
C33   H6    S    
C9    C16   S    
C16   H14   S    
C2    N1    A    
C30   C31   A    
C11   C14   S    
Cu2   O10   S    
C10   C17   S    
H9    O6    S    
C11   H1    S    
C27   O5    D    
H7    O2    S    
C7    O12   A    
C2    H3    S    
C3    H2    S    
C5    C33   A    
C32   H5    S    
C26   O3    D    
C7    C15   S    
Cu1   O15   S    
Cu2   O14   S    
C23   H17   S    
C12   O11   A    
C1    C19   S    
Cu1   N1    S    
C23   C30   A    
C19   C22   A    
C24   C25   S    
C4    C6    A    
C10   C14   S    
C25   O16   D    
Cu2   O9    S    
H10   O8    S    
C32   C34   A    
C19   C23   A    
Cu2   N2    S    
C27   O6    S    
C1    O1    A    
C3    N2    A    
Cu1   O11   S    
C1    O10   A    
C18   C29   A    
C9    C11   S    
C28   O8    S    
C2    C33   A    
C21   C28   S    
C20   C22   A    
C13   C15   S    
C4    N1    A    
C34   H4    S    
C13   C16   S    
C25   O2    S    
Cu2   O13   S    
C13   H11   S    
C12   O9    A    
C15   C17   S    
C11   C17   S    
C8    O15   A    
C8    C14   S    
C4    H18   S    
C3    C5    A    
C10   C13   S    
C20   C27   S    
C21   C30   A    
Cu1   O1    S    
C9    C15   S    
C29   C31   A    
C5    C6    A    
Cu1   O12   S    
H8    O4    S    
C14   C16   S    
C28   O7    D    
C9    H12   S    
C22   C26   S    
C21   C24   A    
C12   C18   S    
C10   H13   S    
C26   O4    S    
C29   H16   S    
C20   C31   A    
