data_mof_unit_33739.cif
_audit_creation_date              2012-10-26T19:48:14-0400
_audit_creation_method            fapswitch 2.2
_symmetry_space_group_name_H-M    P1
_symmetry_Int_Tables_number       1
_space_group_crystal_system       triclinic
_cell_length_a                    10.74783
_cell_length_b                    9.501509
_cell_length_c                    10.616013
_cell_angle_alpha                 89.724721
_cell_angle_beta                  87.751277
_cell_angle_gamma                 89.998
_cell_volume                      1083.26627439

loop_
_atom_site_label
_atom_site_type_symbol
_atom_type_description
_atom_site_fract_x
_atom_site_fract_y
_atom_site_fract_z
_atom_type_partial_charge
C1    C     C_R   0.260107 0.499849 0.499967 0.548723
C2    C     C_3   0.929686 0.345550 0.496126 -0.220687
C3    C     C_3   0.578127 0.082716 0.602727 -0.098334
C4    C     C_3   0.577708 0.916309 0.603096 -0.098358
C5    C     C_3   0.373285 0.083160 0.525786 -0.126266
C6    C     C_3   0.373235 0.916553 0.525484 -0.125676
C7    C     C_3   0.547949 0.084856 0.378021 0.044404
C8    C     C_3   0.548244 0.916378 0.378184 0.041775
C9    C     C_R   0.499273 0.500356 0.259638 0.539075
C10   C     C_R   0.739830 0.499711 0.499189 0.544111
C11   C     C_R   0.499326 0.499709 0.740605 0.548845
C12   C     C_3   0.498776 0.501086 0.122763 0.048696
C13   C     C_3   0.490291 0.633741 0.040795 -0.115868
C14   C     C_3   0.401011 0.425651 0.046460 -0.122696
C15   C     C_3   0.392684 0.558184 0.962033 -0.126487
C16   C     C_3   0.499146 0.499310 0.877758 0.046554
C17   C     C_3   0.596706 0.574932 0.954314 -0.130583
C18   C     C_3   0.507451 0.366666 0.959893 -0.114229
C19   C     C_3   0.605140 0.442277 0.038496 -0.133930
C20   C     C_3   0.675464 0.147661 0.329778 -0.343369
C21   C     C_3   0.676016 0.853976 0.330961 -0.344232
C22   C     C_3   0.886285 0.528919 0.253306 -0.440664
C23   C     C_3   0.078398 0.575198 0.379594 -0.216326
C24   C     C_3   0.872629 0.508081 0.744572 -0.427012
C25   C     C_3   0.068529 0.577337 0.617301 -0.219664
C26   C     C_3   0.934041 0.580300 0.380438 -0.117347
C27   C     C_3   0.924094 0.574018 0.620076 -0.114032
C28   C     C_3   0.071720 0.346280 0.500987 -0.234510
C29   C     C_3   0.122356 0.499591 0.499480 0.035557
C30   C     C_3   0.878335 0.498805 0.498845 0.088885
Cu1   Cu    Cu3+1 0.499860 0.642410 0.500060 0.853849
Cu2   Cu    Cu3+1 0.499860 0.357590 0.500060 0.854656
H1    H     H_    0.305819 0.605466 0.927539 0.091185
H2    H     H_    0.481846 0.117481 0.305075 0.113593
H3    H     H_    0.482615 0.884041 0.304982 0.108280
H4    H     H_    0.310337 0.121084 0.452205 0.105394
H5    H     H_    0.310501 0.879662 0.451583 0.106321
H6    H     H_    0.483432 0.743202 0.076558 0.098936
H7    H     H_    0.320979 0.364787 0.087544 0.092832
H8    H     H_    0.675972 0.638174 0.915076 0.093748
H9    H     H_    0.514561 0.257136 0.924372 0.098114
H10   H     H_    0.691963 0.394302 0.072299 0.088440
H11   H     H_    0.117679 0.519706 0.294805 0.116104
H12   H     H_    0.902751 0.291275 0.409143 0.107404
H13   H     H_    0.105815 0.528500 0.703668 0.112770
H14   H     H_    0.115451 0.684617 0.374992 0.102808
H15   H     H_    0.100448 0.688853 0.615722 0.099594
H16   H     H_    0.905788 0.692557 0.389268 0.119276
H17   H     H_    0.890316 0.684897 0.618939 0.120565
H18   H     H_    0.111544 0.286917 0.418666 0.111793
H19   H     H_    0.099835 0.290703 0.587984 0.111981
H20   H     H_    0.697822 0.112867 0.232153 0.064295
H21   H     H_    0.678867 0.261291 0.316415 0.192786
H22   H     H_    0.752062 0.117440 0.391080 0.101084
H23   H     H_    0.889628 0.282097 0.576076 0.113439
H24   H     H_    0.677337 0.740986 0.315726 0.195512
H25   H     H_    0.700686 0.891225 0.234296 0.065573
H26   H     H_    0.752171 0.880139 0.394119 0.102303
H27   H     H_    0.783195 0.529200 0.253584 0.128155
H28   H     H_    0.920395 0.600649 0.176561 0.119129
H29   H     H_    0.919967 0.421298 0.230574 0.125044
H30   H     H_    0.912709 0.402157 0.760561 0.127951
H31   H     H_    0.896934 0.575978 0.824875 0.110939
H32   H     H_    0.769928 0.498802 0.744897 0.148122
H33   H     H_    0.543176 0.119612 0.696813 0.107414
H34   H     H_    0.541838 0.879306 0.697167 0.112797
H35   H     H_    0.675182 0.121986 0.592442 0.112148
H36   H     H_    0.674575 0.876355 0.593956 0.111302
H37   H     H_    0.332968 0.121617 0.617441 0.112298
H38   H     H_    0.332580 0.876789 0.616885 0.112424
N1    N     N_3   0.500250 0.143650 0.502780 -0.218293
N2    N     N_3   0.500250 0.856350 0.502780 -0.218087
O1    O     O_R   0.317570 0.620260 0.500070 -0.514247
O2    O     O_R   0.317570 0.379740 0.500070 -0.514041
O3    O     O_R   0.499850 0.620240 0.316900 -0.527214
O4    O     O_R   0.499850 0.379760 0.316900 -0.524058
O5    O     O_R   0.682190 0.620260 0.500030 -0.527355
O6    O     O_R   0.682190 0.379740 0.500030 -0.524235
O7    O     O_R   0.499910 0.620280 0.683200 -0.508416
O8    O     O_R   0.499910 0.379720 0.683200 -0.510768

loop_
_geom_bond_atom_site_label_1
_geom_bond_atom_site_label_2
_ccdc_geom_bond_type
C14   C18   S    
C24   C27   S    
C10   O6    A    
C7    C8    S    
C6    N2    S    
C1    O2    A    
C23   C29   S    
C28   C29   S    
C2    H23   S    
C22   H28   S    
C5    C6    S    
C28   H19   S    
Cu1   O1    S    
C15   C16   S    
C5    H4    S    
C23   H11   S    
C18   C19   S    
C23   C26   S    
C5    H37   S    
C14   H7    S    
C28   H18   S    
C2    H12   S    
C16   C17   S    
C9    O4    A    
C25   H15   S    
C19   H10   S    
C26   H16   S    
C24   H32   S    
C23   H14   S    
C27   C30   S    
C3    H33   S    
C10   O5    A    
Cu1   O5    S    
Cu2   N1    S    
C25   C29   S    
C8    N2    S    
C20   H22   S    
C18   H9    S    
C22   H27   S    
C4    H36   S    
C17   H8    S    
C3    N1    S    
C21   H25   S    
Cu2   O8    S    
C11   C16   S    
C10   C30   S    
Cu1   O3    S    
Cu1   Cu2   S    
C1    C29   S    
C8    C21   S    
C6    H5    S    
C13   H6    S    
C11   O7    A    
Cu1   N2    S    
C12   C14   S    
C26   C30   S    
C24   H31   S    
C7    N1    S    
C13   C15   S    
C7    H2    S    
C3    C4    S    
C25   H13   S    
C4    N2    S    
C6    H38   S    
Cu2   O2    S    
C24   H30   S    
C3    H35   S    
C20   H21   S    
Cu2   O4    S    
C21   H24   S    
Cu1   O7    S    
C25   C27   S    
C20   H20   S    
C13   C17   S    
C2    C30   S    
C1    O1    A    
C21   H26   S    
C5    N1    S    
C22   H29   S    
C4    H34   S    
C12   C19   S    
C17   C19   S    
C15   H1    S    
C9    C12   S    
C11   O8    A    
Cu2   O6    S    
C12   C13   S    
C16   C18   S    
C7    C20   S    
C22   C26   S    
C14   C15   S    
C2    C28   S    
C9    O3    A    
C8    H3    S    
C27   H17   S    
