data_mof_unit_32261.cif
_audit_creation_date              2012-12-10T17:47:14-0500
_audit_creation_method            fapswitch 2.2
_symmetry_space_group_name_H-M    P1
_symmetry_Int_Tables_number       1
_space_group_crystal_system       triclinic
_cell_length_a                    11.690941
_cell_length_b                    14.674479
_cell_length_c                    14.817758
_cell_angle_alpha                 64.936911
_cell_angle_beta                  103.611514
_cell_angle_gamma                 102.125698
_cell_volume                      2220.42106662

loop_
_atom_site_label
_atom_site_type_symbol
_atom_type_description
_atom_site_fract_x
_atom_site_fract_y
_atom_site_fract_z
_atom_type_partial_charge
C1    C     C_R   0.478463 0.119831 0.312580 0.790169
C2    C     C_R   0.517686 0.880586 0.687448 0.786101
C3    C     C_R   0.392600 0.326554 0.007467 0.055716
C4    C     C_R   0.583329 0.678278 0.995750 0.061117
C5    C     C_R   0.503974 0.468420 0.051930 -0.007644
C6    C     C_R   0.461654 0.537882 0.953679 -0.014241
C7    C     C_R   0.381577 0.499268 0.886388 -0.307998
C8    C     C_R   0.586120 0.506241 0.118740 -0.246057
C9    C     C_R   0.351840 0.395161 0.910586 0.471871
C10   C     C_R   0.621393 0.609690 0.093304 0.446916
C11   C     C_R   0.731937 0.304984 0.627269 -0.388086
C12   C     C_R   0.310358 0.724293 0.321997 -0.376499
C13   C     C_R   0.681990 0.210759 0.622426 0.622210
C14   C     C_R   0.333533 0.799775 0.360594 0.603919
C15   C     C_R   0.510591 0.284609 0.513761 0.616033
C16   C     C_R   0.488880 0.714990 0.485207 0.624293
C17   C     C_R   0.561444 0.383408 0.511121 -0.106432
C18   C     C_R   0.474568 0.640603 0.442849 -0.102507
C19   C     C_R   0.672761 0.390534 0.571829 -0.036908
C20   C     C_R   0.379139 0.644353 0.363544 -0.039546
C21   C     C_R   0.505538 0.474228 0.453545 -0.081300
C22   C     C_R   0.548400 0.561450 0.477756 -0.081676
C23   C     C_R   0.284266 0.000573 0.499913 0.819013
C24   C     C_R   0.715741 0.999378 0.500138 0.825905
C25   C     C_R   0.667046 0.570314 0.527954 0.517987
C26   C     C_R   0.417215 0.484949 0.366652 0.518459
C27   C     C_R   0.727223 0.483845 0.574598 -0.273223
C28   C     C_R   0.355666 0.570803 0.322832 -0.282563
C29   C     C_1   0.162795 0.001164 0.500165 -0.189174
C30   C     C_1   0.837220 0.998662 0.499959 -0.160716
C31   C     C_1   0.060090 0.000484 0.500140 -0.018877
C32   C     C_1   0.939914 0.999227 0.500015 -0.007023
C33   C     C_R   0.456704 0.188203 0.205714 -0.062520
C34   C     C_R   0.530653 0.814568 0.795202 -0.039355
C35   C     C_R   0.359485 0.221604 0.033977 -0.168916
C36   C     C_R   0.627507 0.781725 0.966774 -0.164062
C37   C     C_R   0.392207 0.152932 0.132164 -0.205665
C38   C     C_R   0.602245 0.849029 0.867066 -0.215517
C39   C     C_R   0.493422 0.291823 0.179028 -0.209286
C40   C     C_R   0.475736 0.714797 0.825548 -0.233154
C41   C     C_R   0.465228 0.362740 0.079768 0.039023
C42   C     C_R   0.503833 0.643335 0.924918 0.047420
Cu1   Cu    Cu3+1 0.469550 0.918260 0.475690 1.017894
Cu2   Cu    Cu3+1 0.530450 0.081740 0.524310 1.019442
H1    H     H_    0.414805 0.694963 0.768369 0.134938
H2    H     H_    0.539340 0.315582 0.238818 0.179019
H3    H     H_    0.642098 0.927151 0.845616 0.168053
H4    H     H_    0.362721 0.072865 0.151369 0.189334
H5    H     H_    0.306137 0.192218 0.979433 0.182355
H6    H     H_    0.686009 0.810371 0.020028 0.180787
H7    H     H_    0.338676 0.547606 0.814174 0.149784
H8    H     H_    0.629855 0.457418 0.190381 0.160093
H9    H     H_    0.817887 0.488610 0.612980 0.145274
H10   H     H_    0.289794 0.581998 0.255390 0.145977
N1    N     N_R   0.576230 0.204580 0.560790 -0.273169
N2    N     N_R   0.423770 0.795420 0.439210 -0.269300
O1    O     O_R   0.459870 0.022090 0.338120 -0.547368
O2    O     O_R   0.540130 0.977910 0.661880 -0.560142
O3    O     O_R   0.511290 0.160150 0.379180 -0.570338
O4    O     O_R   0.488710 0.839850 0.620820 -0.555027
O5    O     O_R   0.311490 0.930960 0.479480 -0.556636
O6    O     O_R   0.688510 0.069040 0.520520 -0.533602
O7    O     O_R   0.362910 0.069020 0.520540 -0.540557
O8    O     O_R   0.637090 0.930980 0.479460 -0.545424
O9    O     O_3   0.271660 0.359822 0.843666 -0.582478
C43   C     C_3   0.321474 0.383580 0.757155 -0.370488
H11   H     H_    0.415948 0.369351 0.776119 0.153696
H12   H     H_    0.312372 0.463160 0.703835 0.162579
H13   H     H_    0.271083 0.334235 0.717706 0.189821
O10   O     O_3   0.706796 0.643115 0.158910 -0.598969
C44   C     C_3   0.658619 0.626846 0.244046 -0.285982
H14   H     H_    0.649358 0.545137 0.294582 0.184456
H15   H     H_    0.572129 0.657390 0.222137 0.167772
H16   H     H_    0.720728 0.667607 0.287828 0.203160
O11   O     O_3   0.726729 0.667264 0.513110 -0.556884
C45   C     C_3   0.815404 0.669573 0.595700 -0.235551
H17   H     H_    0.899531 0.650344 0.589732 0.134832
H18   H     H_    0.787100 0.619386 0.669808 0.151824
H19   H     H_    0.833258 0.748091 0.592514 0.199959
O12   O     O_3   0.413110 0.423433 0.315122 -0.568138
C46   C     C_3   0.299285 0.406543 0.261449 -0.238793
H20   H     H_    0.286138 0.469377 0.185773 0.143452
H21   H     H_    0.227184 0.395094 0.304173 0.153468
H22   H     H_    0.293753 0.336164 0.249111 0.201861
O13   O     O_3   0.564709 0.706412 0.574458 -0.514904
C47   C     C_3   0.515981 0.625719 0.655072 -0.334090
H23   H     H_    0.521513 0.550864 0.655882 0.136886
H24   H     H_    0.422178 0.632383 0.652706 0.132924
H25   H     H_    0.568670 0.627709 0.727071 0.198851
O14   O     O_3   0.393496 0.266085 0.473595 -0.517433
C48   C     C_3   0.322140 0.255167 0.543135 -0.325487
H26   H     H_    0.327084 0.327380 0.552287 0.130605
H27   H     H_    0.346447 0.193249 0.617893 0.155401
H28   H     H_    0.228485 0.234555 0.513469 0.192002
O15   O     O_3   0.272325 0.883437 0.314338 -0.552848
C49   C     C_3   0.150677 0.852814 0.320939 -0.305820
H29   H     H_    0.108460 0.920787 0.303151 0.190943
H30   H     H_    0.136167 0.798395 0.398432 0.155232
H31   H     H_    0.105544 0.820154 0.264494 0.155112
O16   O     O_3   0.741165 0.125207 0.671163 -0.534134
C50   C     C_3   0.805690 0.117110 0.767095 -0.370510
H32   H     H_    0.825091 0.037766 0.810766 0.188033
H33   H     H_    0.754466 0.134878 0.810941 0.150371
H34   H     H_    0.892732 0.165379 0.759755 0.176262
H35   H     H_    0.818567 0.313128 0.671354 0.166433
H36   H     H_    0.240797 0.729670 0.257713 0.167979

loop_
_geom_bond_atom_site_label_1
_geom_bond_atom_site_label_2
_ccdc_geom_bond_type
C43   H12   S    
C21   C26   A    
C4    C36   A    
C50   H32   S    
C14   N2    A    
O15   C49   S    
C45   H19   S    
Cu1   Cu2   S    
C46   H20   S    
C1    C33   S    
C39   C41   A    
O13   C47   S    
C11   C19   A    
C33   C39   A    
C34   C40   A    
C23   C29   S    
C35   C37   A    
C45   H18   S    
C1    O3    A    
C5    C6    A    
C47   H24   S    
C43   H13   S    
Cu2   O3    S    
C49   H31   S    
C7    C9    A    
C44   H16   S    
Cu2   O2    S    
C22   C25   A    
C49   H30   S    
C11   H35   S    
O10   C44   S    
C19   C27   A    
C8    H8    S    
C2    C34   S    
C23   O7    A    
C43   H11   S    
C24   O8    A    
C34   C38   A    
C21   C22   A    
C2    O4    A    
C46   H21   S    
Cu1   O8    S    
C24   C30   S    
Cu2   O7    S    
C40   H1    S    
C45   H17   S    
C48   H26   S    
C44   H15   S    
C28   H10   S    
C47   H23   S    
C20   C28   A    
Cu2   O6    S    
C33   C37   A    
C12   H36   S    
C25   O11   S    
C15   N1    A    
O11   C45   S    
C16   N2    A    
C35   H5    S    
C3    C9    A    
C1    O1    A    
C48   H27   S    
C31   C32   S    
C3    C35   A    
C49   H29   S    
C12   C20   A    
C27   H9    S    
C16   C18   A    
C37   H4    S    
C38   H3    S    
Cu1   O4    S    
C39   H2    S    
C10   O10   S    
C48   H28   S    
C8    C10   A    
C12   C14   A    
C50   H34   S    
C16   O13   S    
C4    C10   A    
C14   O15   S    
C46   H22   S    
C36   H6    S    
Cu1   O5    S    
C15   C17   A    
C5    C41   A    
C3    C41   A    
C24   O6    A    
C18   C22   A    
O12   C46   S    
C47   H25   S    
C26   O12   S    
C5    C8    A    
C2    O2    A    
C6    C7    A    
C25   C27   A    
C26   C28   A    
C13   O16   S    
C36   C38   A    
C7    H7    S    
C44   H14   S    
C29   C31   T    
C15   O14   S    
C30   C32   T    
C11   C13   A    
Cu2   N1    S    
O14   C48   S    
C4    C42   A    
C40   C42   A    
O16   C50   S    
C17   C19   A    
C18   C20   A    
C9    O9    S    
Cu1   O1    S    
Cu1   N2    S    
C23   O5    A    
C50   H33   S    
O9    C43   S    
C6    C42   A    
C13   N1    A    
C17   C21   A    
