data_mof_unit_55216.cif
_audit_creation_date              2012-10-26T19:58:51-0400
_audit_creation_method            fapswitch 2.2
_symmetry_space_group_name_H-M    P1
_symmetry_Int_Tables_number       1
_space_group_crystal_system       triclinic
_cell_length_a                    14.343099
_cell_length_b                    11.083195
_cell_length_c                    9.869538
_cell_angle_alpha                 111.983402
_cell_angle_beta                  98.15394
_cell_angle_gamma                 90.491268
_cell_volume                      1436.89936074

loop_
_atom_site_label
_atom_site_type_symbol
_atom_type_description
_atom_site_fract_x
_atom_site_fract_y
_atom_site_fract_z
_atom_type_partial_charge
C1    C     C_R   0.493601 0.253278 0.439963 0.519240
C2    C     C_1   0.957286 0.500287 0.500124 -0.007831
C3    C     C_2   0.489362 0.111796 0.409052 0.226956
C4    C     C_2   0.541708 0.881744 0.592243 0.260391
C5    C     C_2   0.525641 0.071248 0.518610 0.263319
C6    C     C_2   0.490891 0.943466 0.515198 0.306856
C7    C     C_2   0.508943 0.510354 0.080585 0.166616
C8    C     C_2   0.492136 0.488158 0.918971 0.165450
C9    C     C_3   0.329471 0.944931 0.495685 -0.022919
C10   C     C_3   0.302831 0.884285 0.601764 -0.380043
C11   C     C_3   0.672921 0.174517 0.614738 0.029523
C12   C     C_R   0.512811 0.745231 0.559916 0.548401
C13   C     C_3   0.733692 0.267484 0.755077 -0.335685
C14   C     C_3   0.696100 0.864049 0.689994 -0.011238
C15   C     C_3   0.785424 0.944190 0.783781 -0.371867
C16   C     C_3   0.366907 0.050797 0.209179 0.019697
C17   C     C_3   0.314001 0.927101 0.094186 -0.346137
C18   C     C_R   0.331107 0.499833 0.500466 0.527451
C19   C     C_R   0.668890 0.499866 0.499504 0.511065
C20   C     C_1   0.228875 0.500054 0.501365 -0.051838
C21   C     C_1   0.771126 0.499941 0.498922 -0.055987
C22   C     C_1   0.143467 0.500246 0.501359 -0.048062
C23   C     C_1   0.856564 0.500117 0.499307 -0.050476
C24   C     C_1   0.042766 0.500336 0.500806 -0.006672
Cu1   Cu    Cu3+1 0.515060 0.521810 0.644910 0.954561
Cu2   Cu    Cu3+1 0.484940 0.478190 0.355090 0.978840
H1    H     H_    0.439476 0.413002 0.844762 0.156141
H2    H     H_    0.670301 0.218468 0.529915 0.114432
H3    H     H_    0.707093 0.080670 0.573495 0.138875
H4    H     H_    0.737687 0.227901 0.843614 0.173445
H5    H     H_    0.806051 0.280670 0.732798 0.083094
H6    H     H_    0.702717 0.363800 0.793571 0.191065
H7    H     H_    0.709790 0.815001 0.574067 0.107177
H8    H     H_    0.681867 0.789760 0.735948 0.155590
H9    H     H_    0.772207 0.001115 0.897930 0.173925
H10   H     H_    0.842457 0.878154 0.788891 0.102402
H11   H     H_    0.809511 0.011698 0.734708 0.134816
H12   H     H_    0.562593 0.584174 0.154419 0.150133
H13   H     H_    0.379688 0.116418 0.151190 0.163370
H14   H     H_    0.321216 0.097201 0.294697 0.092349
H15   H     H_    0.300225 0.856780 0.145976 0.187694
H16   H     H_    0.245555 0.951166 0.045413 0.080838
H17   H     H_    0.356423 0.881001 0.004484 0.177444
H18   H     H_    0.630098 0.685073 0.892877 0.364192
H19   H     H_    0.366698 0.319476 0.108542 0.356537
H20   H     H_    0.267612 0.928963 0.408032 0.147215
H21   H     H_    0.342453 0.052695 0.554306 0.116857
H22   H     H_    0.359933 0.906551 0.697856 0.150580
H23   H     H_    0.237269 0.924833 0.643271 0.105330
H24   H     H_    0.290432 0.776989 0.543645 0.166682
N1    N     N_2   0.462290 0.445430 0.137370 -0.085938
N2    N     N_2   0.537710 0.554570 0.862630 -0.095771
O1    O     O_R   0.508040 0.332330 0.577400 -0.481004
O2    O     O_3   0.395108 0.355787 0.045139 -0.650119
O3    O     O_3   0.405990 0.883662 0.426587 -0.550151
O4    O     O_3   0.582142 0.155003 0.646750 -0.528584
O5    O     O_3   0.620124 0.945987 0.697607 -0.553016
O6    O     O_3   0.453717 0.018233 0.269876 -0.539877
O7    O     O_R   0.491960 0.667670 0.422600 -0.476928
O8    O     O_R   0.482600 0.295500 0.332650 -0.501710
O9    O     O_R   0.517400 0.704500 0.667350 -0.504016
O10   O     O_R   0.388780 0.518420 0.622400 -0.491403
O11   O     O_R   0.611220 0.481580 0.377600 -0.490711
O12   O     O_R   0.363340 0.481590 0.377660 -0.479580
O13   O     O_R   0.636660 0.518410 0.622340 -0.504473
O14   O     O_3   0.603049 0.646731 0.955636 -0.646513

loop_
_geom_bond_atom_site_label_1
_geom_bond_atom_site_label_2
_ccdc_geom_bond_type
C4    O5    S    
C14   H8    S    
Cu2   O11   S    
C17   H17   S    
C19   O13   A    
C9    O3    S    
C14   O5    S    
C4    C12   S    
C9    C10   S    
C8    N2    D    
C13   H6    S    
H18   O14   S    
C6    O3    S    
N1    O2    S    
C1    O1    A    
C14   H7    S    
Cu1   Cu2   S    
Cu1   N2    S    
C7    N1    D    
C9    H20   S    
C16   O6    S    
Cu2   N1    S    
Cu1   O1    S    
C2    C24   T    
C12   O9    A    
C11   C13   S    
C18   O12   A    
C10   H23   S    
C11   H2    S    
C16   H14   S    
C15   H9    S    
C19   C21   S    
C7    H12   S    
C20   C22   T    
H19   O2    S    
C9    H21   S    
C18   C20   S    
Cu1   O10   S    
C21   C23   T    
C10   H22   S    
C5    C6    S    
C22   C24   S    
C17   H15   S    
C16   H13   S    
C10   H24   S    
C3    O6    S    
C13   H4    S    
C7    C8    S    
N2    O14   S    
C11   H3    S    
C4    C6    D    
Cu2   O7    S    
C1    O8    A    
C2    C23   S    
C8    H1    S    
Cu1   O13   S    
Cu2   O12   S    
C14   C15   S    
C18   O10   A    
Cu1   O9    S    
C5    O4    S    
C3    C5    D    
C15   H10   S    
C17   H16   S    
C12   O7    A    
Cu2   O8    S    
C13   H5    S    
C15   H11   S    
C11   O4    S    
C19   O11   A    
C16   C17   S    
C1    C3    S    
