data_mof_unit_54044.cif
_audit_creation_date              2012-12-11T15:27:33-0500
_audit_creation_method            fapswitch 2.2
_symmetry_space_group_name_H-M    P1
_symmetry_Int_Tables_number       1
_space_group_crystal_system       triclinic
_cell_length_a                    23.342192
_cell_length_b                    7.290343
_cell_length_c                    15.05077
_cell_angle_alpha                 90.210561
_cell_angle_beta                  108.524116
_cell_angle_gamma                 89.852728
_cell_volume                      2428.51219206

loop_
_atom_site_label
_atom_site_type_symbol
_atom_type_description
_atom_site_fract_x
_atom_site_fract_y
_atom_site_fract_z
_atom_type_partial_charge
O1    O     O_R   0.711000 0.648610 0.341170 -0.540271
O2    O     O_R   0.289000 0.351390 0.658830 -0.534980
O3    O     O_R   0.789000 0.148610 0.158830 -0.532824
O4    O     O_R   0.211000 0.851390 0.841170 -0.538319
O5    O     O_R   0.829650 0.322030 0.336650 -0.536086
O6    O     O_R   0.170350 0.677970 0.663350 -0.539317
O7    O     O_R   0.670350 0.822030 0.163350 -0.536382
O8    O     O_R   0.329650 0.177970 0.836650 -0.537833
C1    C     C_R   0.854307 0.485732 0.356760 0.718774
C2    C     C_R   0.145690 0.514247 0.643255 0.718224
C3    C     C_R   0.645678 0.985777 0.143277 0.719937
C4    C     C_R   0.354319 0.014256 0.856749 0.725602
O9    O     O_R   0.713950 0.319280 0.352070 -0.540782
O10   O     O_R   0.286050 0.680720 0.647930 -0.540653
O11   O     O_R   0.786050 0.819280 0.147930 -0.541244
O12   O     O_R   0.213950 0.180720 0.852070 -0.537985
O13   O     O_R   0.672470 0.142870 0.174360 -0.535282
O14   O     O_R   0.327530 0.857130 0.825640 -0.532274
O15   O     O_R   0.827530 0.642870 0.325640 -0.535070
O16   O     O_R   0.172470 0.357130 0.674360 -0.532241
C5    C     C_R   0.701086 0.487808 0.374888 0.705318
C6    C     C_R   0.298444 0.512145 0.624570 0.675839
C7    C     C_R   0.800119 0.987160 0.125931 0.674167
C8    C     C_R   0.199815 0.013397 0.874062 0.671518
O17   O     O_3   0.736530 0.478650 0.191680 -0.379242
O18   O     O_3   0.263470 0.521350 0.808320 -0.376972
O19   O     O_3   0.763470 0.978650 0.308320 -0.376263
O20   O     O_3   0.236530 0.021350 0.691680 -0.376298
V1    V     V_3+5 0.752500 0.206170 0.260820 1.406016
V2    V     V_3+5 0.247500 0.793830 0.739180 1.410348
V3    V     V_3+5 0.747500 0.706170 0.239180 1.401653
V4    V     V_3+5 0.252500 0.293830 0.760820 1.413418
C9    C     C_R   0.830350 0.000024 0.054091 -0.061390
C10   C     C_R   0.169846 0.012165 0.946564 -0.061753
C11   C     C_R   0.667487 0.497728 0.441256 -0.031419
C12   C     C_R   0.329108 0.501852 0.554315 -0.053468
C13   C     C_R   0.824150 0.108435 0.899658 -0.186981
C14   C     C_R   0.176514 0.099302 0.104813 -0.184590
C15   C     C_R   0.671336 0.543318 0.601424 -0.180300
C16   C     C_R   0.320228 0.465606 0.391285 -0.182994
C17   C     C_R   0.796965 0.072131 0.967354 -0.184143
C18   C     C_R   0.203489 0.073338 0.035809 -0.183264
C19   C     C_R   0.700145 0.501074 0.536406 -0.213517
C20   C     C_R   0.293720 0.498713 0.460257 -0.193902
C21   C     C_R   0.893000 0.965406 0.074493 0.073210
C22   C     C_R   0.107116 0.978114 0.925183 0.073177
C23   C     C_R   0.603955 0.519985 0.410157 0.076583
C24   C     C_R   0.392583 0.484047 0.580142 0.069609
C25   C     C_R   0.922704 0.036183 0.011801 0.060547
C26   C     C_R   0.077718 0.039429 0.990427 0.059819
C27   C     C_R   0.573421 0.522076 0.478823 0.030700
C28   C     C_R   0.419814 0.496580 0.507753 0.063006
C29   C     C_R   0.887164 0.092027 0.920115 0.049390
C30   C     C_R   0.113460 0.083927 0.083894 0.050695
C31   C     C_R   0.608090 0.562758 0.573407 0.057229
C32   C     C_R   0.383556 0.457265 0.414195 0.057156
C33   C     C_R   0.986510 0.053261 0.036776 0.003653
C34   C     C_R   0.013989 0.058344 0.966156 0.003730
C35   C     C_R   0.510100 0.491151 0.457852 -0.001234
C36   C     C_R   0.481959 0.536413 0.525389 0.010644
C37   C     C_R   0.978573 0.114182 0.876312 -0.171788
C38   C     C_R   0.022135 0.097648 0.128479 -0.172470
C39   C     C_R   0.515553 0.631705 0.606173 -0.171664
C40   C     C_R   0.474934 0.405607 0.374368 -0.194784
C41   C     C_R   0.915561 0.135983 0.852138 0.123255
C42   C     C_R   0.085216 0.118263 0.153298 0.123179
C43   C     C_R   0.578866 0.631289 0.635992 0.122654
C44   C     C_R   0.411498 0.402079 0.347557 0.122055
H1    H     H_    0.251484 0.099300 0.052564 0.115047
H2    H     H_    0.749003 0.098166 0.951406 0.114552
H3    H     H_    0.244926 0.508181 0.440769 0.112988
H4    H     H_    0.748893 0.486206 0.559719 0.113226
H5    H     H_    0.795180 0.156314 0.832489 0.116638
H6    H     H_    0.205684 0.138925 0.173548 0.112636
H7    H     H_    0.699271 0.561014 0.673519 0.116596
H8    H     H_    0.290491 0.447505 0.320297 0.113588
H9    H     H_    0.001486 0.159959 0.828619 0.133745
H10   H     H_    0.999395 0.136150 0.177768 0.133493
H11   H     H_    0.491687 0.707220 0.645093 0.134813
H12   H     H_    0.497153 0.342820 0.329819 0.169960
C45   C     C_1   0.416805 0.007170 0.918698 -0.199013
C46   C     C_1   0.583190 0.993027 0.081372 -0.196766
C47   C     C_1   0.083202 0.507013 0.581322 -0.198011
C48   C     C_1   0.916792 0.492806 0.418714 -0.197912
C49   C     C_1   0.469165 0.002634 0.969972 -0.000564
C50   C     C_1   0.530829 0.997732 0.030120 0.003124
C51   C     C_1   0.030835 0.502273 0.530080 0.000798
C52   C     C_1   0.969158 0.497348 0.469970 0.000964
C53   C     C_3   0.878106 0.204394 0.755007 -0.355275
C54   C     C_3   0.912706 0.248105 0.686620 -0.764511
H13   H     H_    0.945309 0.361417 0.714198 0.223785
H14   H     H_    0.936628 0.124250 0.673339 0.225579
H15   H     H_    0.880311 0.293189 0.618736 0.217727
H16   H     H_    0.843915 0.098333 0.721256 0.180706
H17   H     H_    0.853923 0.331456 0.763545 0.177622
C55   C     C_3   0.122891 0.175702 0.252508 -0.355005
C56   C     C_3   0.088383 0.211449 0.322050 -0.764488
H18   H     H_    0.056083 0.326929 0.297860 0.224184
H19   H     H_    0.064122 0.085921 0.331591 0.225350
H20   H     H_    0.120884 0.249847 0.391187 0.219766
H21   H     H_    0.156637 0.066312 0.282794 0.181530
H22   H     H_    0.147620 0.303738 0.248166 0.176700
C57   C     C_3   0.615736 0.709597 0.731357 -0.350376
C58   C     C_3   0.579972 0.800815 0.788943 -0.770362
H23   H     H_    0.553475 0.918659 0.750203 0.226753
H24   H     H_    0.549620 0.700252 0.806491 0.224212
H25   H     H_    0.611847 0.853573 0.855662 0.219433
H26   H     H_    0.642845 0.597001 0.774416 0.177655
H27   H     H_    0.647410 0.814187 0.720419 0.181628
C59   C     C_3   0.373157 0.331120 0.251295 -0.355828
C60   C     C_3   0.407387 0.260893 0.186517 -0.767631
H28   H     H_    0.434466 0.372956 0.170218 0.231516
H29   H     H_    0.436897 0.143206 0.218770 0.226544
H30   H     H_    0.374498 0.213017 0.119563 0.215467
H31   H     H_    0.344433 0.216772 0.261412 0.179714
H32   H     H_    0.342991 0.443620 0.213783 0.178405
C61   C     C_3   0.075150 0.851826 0.842630 -0.369680
C62   C     C_3   0.055551 0.672392 0.876608 -0.714962
H33   H     H_    0.094996 0.603527 0.927188 0.229348
H34   H     H_    0.020498 0.697704 0.910672 0.229877
H35   H     H_    0.036260 0.578936 0.816059 0.203881
H36   H     H_    0.035962 0.915768 0.790586 0.169652
H37   H     H_    0.104737 0.813674 0.801051 0.189553
C63   C     C_3   0.924398 0.829604 0.152527 -0.370987
C64   C     C_3   0.944237 0.656192 0.112706 -0.711699
H38   H     H_    0.904988 0.592318 0.059247 0.229152
H39   H     H_    0.979674 0.687805 0.080391 0.229430
H40   H     H_    0.963132 0.555709 0.169912 0.205858
H41   H     H_    0.963334 0.888428 0.207330 0.169797
H42   H     H_    0.894227 0.784257 0.191762 0.188382
C65   C     C_3   0.427773 0.411615 0.678324 -0.352073
C66   C     C_3   0.452890 0.219535 0.673035 -0.729276
H43   H     H_    0.487650 0.222553 0.637030 0.231629
H44   H     H_    0.415900 0.125110 0.634840 0.227389
H45   H     H_    0.474170 0.165797 0.744999 0.207463
H46   H     H_    0.464539 0.501763 0.718914 0.167653
H47   H     H_    0.399205 0.401147 0.724284 0.180501
C67   C     C_3   0.572777 0.584965 0.309547 -0.390068
C68   C     C_3   0.571645 0.440550 0.234495 -0.724830
H48   H     H_    0.612897 0.449967 0.213361 0.238491
H49   H     H_    0.568277 0.299121 0.259423 0.212380
H50   H     H_    0.532690 0.466718 0.170696 0.207531
H51   H     H_    0.526328 0.635350 0.299540 0.185530
H52   H     H_    0.596420 0.708844 0.296278 0.188251

loop_
_geom_bond_atom_site_label_1
_geom_bond_atom_site_label_2
_ccdc_geom_bond_type
O17   V3    S    
C47   C51   T    
C51   C52   S    
O1    C5    A    
C19   H4    S    
C55   H22   S    
O19   V1    S    
C9    C21   A    
O3    C7    A    
C60   H28   S    
C10   C18   A    
O15   V3    S    
C58   H24   S    
C56   H18   S    
C54   H13   S    
C25   C33   A    
C33   C38   A    
C39   H11   S    
C49   C50   S    
C41   C53   S    
C35   C40   A    
C26   C30   A    
C63   H41   S    
C36   C39   A    
C40   C44   A    
O9    V1    S    
C14   C18   A    
C67   H51   S    
C14   H6    S    
O4    C8    A    
C68   H50   S    
C2    C47   S    
O1    V3    S    
O13   V1    S    
C31   C43   A    
C20   H3    S    
O2    V4    S    
C53   H16   S    
O3    V1    S    
C62   H33   S    
C28   C36   A    
C59   C60   S    
C1    O15   A    
C15   C31   A    
C2    O16   A    
C66   H43   S    
C7    C9    S    
O2    C6    A    
C64   H40   S    
C24   C65   S    
C57   H26   S    
C10   C22   A    
C15   H7    S    
C11   C19   A    
C16   C20   A    
C45   C49   T    
C13   C29   A    
C34   C37   A    
O11   C7    A    
C11   C23   A    
C35   C36   A    
O12   C8    A    
C55   H21   S    
C40   H12   S    
O10   V2    S    
C58   H23   S    
C56   H19   S    
O5    V1    S    
C3    C46   S    
C39   C43   A    
O7    V3    S    
C38   C42   A    
O9    C5    A    
O8    V4    S    
C65   H46   S    
C37   H9    S    
O18   V4    S    
C15   C19   A    
C16   C32   A    
C46   C50   T    
C21   C63   S    
C18   H1    S    
C8    C10   S    
C16   H8    S    
C22   C61   S    
C62   H35   S    
C26   C34   A    
C53   H17   S    
O7    C3    A    
C61   H36   S    
O5    C1    A    
C65   H47   S    
C54   H14   S    
C14   C30   A    
C21   C25   A    
O8    C4    A    
C55   C56   S    
C63   H42   S    
C60   H29   S    
C44   C59   S    
O14   V2    S    
O6    V2    S    
C64   H38   S    
C12   C20   A    
C27   C35   A    
C65   C66   S    
C59   H32   S    
C56   H20   S    
C29   C41   A    
C54   H15   S    
C42   C55   S    
O16   V4    S    
C13   H5    S    
C3    O13   A    
C38   H10   S    
C48   C52   T    
O6    C2    A    
C23   C27   A    
C68   H48   S    
O11   V3    S    
C5    C11   S    
C43   C57   S    
O12   V4    S    
C6    C12   S    
C22   C26   A    
C57   H27   S    
C9    C17   A    
O10   C6    A    
O20   V2    S    
C61   H37   S    
C32   C44   A    
C61   C62   S    
C68   H49   S    
C33   C34   A    
C66   H45   S    
C25   C29   A    
C23   C67   S    
C4    C45   S    
C12   C24   A    
C60   H30   S    
C27   C31   A    
C13   C17   A    
C62   H34   S    
C67   C68   S    
C1    C48   S    
C37   C41   A    
C24   C28   A    
C66   H44   S    
C4    O14   A    
C57   C58   S    
C64   H39   S    
C17   H2    S    
C67   H52   S    
C53   C54   S    
C30   C42   A    
C59   H31   S    
C58   H25   S    
O4    V2    S    
C28   C32   A    
C63   C64   S    
