data_mof_unit_52888.cif
_audit_creation_date              2012-12-10T17:31:26-0500
_audit_creation_method            fapswitch 2.2
_symmetry_space_group_name_H-M    P1
_symmetry_Int_Tables_number       1
_space_group_crystal_system       triclinic
_cell_length_a                    19.251108
_cell_length_b                    18.105131
_cell_length_c                    12.371562
_cell_angle_alpha                 90.50138
_cell_angle_beta                  128.794603
_cell_angle_gamma                 89.224317
_cell_volume                      3360.4762672

loop_
_atom_site_label
_atom_site_type_symbol
_atom_type_description
_atom_site_fract_x
_atom_site_fract_y
_atom_site_fract_z
_atom_type_partial_charge
C1    C     C_R   0.619226 0.904459 0.662569 0.857377
C2    C     C_R   0.664909 0.715094 0.000676 0.002088
C3    C     C_3   0.471877 0.800307 0.915025 -0.885706
C4    C     C_3   0.003614 0.723955 0.996396 0.075991
C5    C     C_3   0.992243 0.695276 0.099985 -0.728971
C6    C     C_3   0.953772 0.273076 0.782087 0.115472
C7    C     C_3   0.971938 0.300373 0.914973 -0.885863
C8    C     C_R   0.184759 0.745208 0.064672 0.007212
C9    C     C_R   0.164909 0.215088 0.000667 0.002131
C10   C     C_R   0.607351 0.206163 0.961143 0.383987
C11   C     C_R   0.592454 0.734512 0.864229 0.427981
C12   C     C_R   0.107347 0.706164 0.961141 0.383988
C13   C     C_R   0.092455 0.234500 0.864215 0.428058
C14   C     C_R   0.586292 0.196333 0.831711 0.110901
C15   C     C_R   0.608329 0.769393 0.780876 0.018785
C16   C     C_R   0.086290 0.696332 0.831710 0.110900
C17   C     C_R   0.603742 0.107293 0.642533 0.855129
C18   C     C_R   0.108330 0.269388 0.780867 0.018758
C19   C     C_R   0.303656 0.827239 0.128815 -0.199646
C20   C     C_R   0.324957 0.201747 0.177281 -0.220540
C21   C     C_R   0.803658 0.327238 0.128818 -0.199637
C22   C     C_R   0.824957 0.701746 0.177281 -0.220516
C23   C     C_R   0.275196 0.805038 0.290093 -0.161673
C24   C     C_R   0.226174 0.137539 0.201696 -0.212186
C25   C     C_R   0.775202 0.305033 0.290098 -0.161681
C26   C     C_R   0.726174 0.637543 0.201701 -0.212168
C27   C     C_R   0.647369 0.179910 0.704224 -0.108945
C28   C     C_R   0.119225 0.404458 0.662568 0.857375
C29   C     C_R   0.699052 0.862223 0.773832 -0.103559
C30   C     C_R   0.147371 0.679909 0.704227 -0.108965
C31   C     C_R   0.199052 0.362224 0.773831 -0.103552
C32   C     C_R   0.681219 0.987840 0.282799 0.370802
C33   C     C_R   0.181217 0.487829 0.282796 0.370822
C34   C     C_R   0.345451 0.004799 0.626847 0.039349
C35   C     C_R   0.845451 0.504799 0.626847 0.039359
C36   C     C_R   0.310780 0.015325 0.695893 -0.355542
C37   C     C_R   0.810780 0.515326 0.695893 -0.355542
C38   C     C_R   0.384707 0.099370 0.343262 0.796640
C39   C     C_R   0.103743 0.607293 0.642535 0.855127
C40   C     C_R   0.386171 0.899736 0.344252 0.814419
C41   C     C_R   0.884706 0.599369 0.343261 0.796634
C42   C     C_R   0.886172 0.399736 0.344253 0.814409
C43   C     C_R   0.366821 0.017565 0.842537 0.451858
C44   C     C_R   0.866820 0.517567 0.842536 0.451858
C45   C     C_R   0.460730 0.006405 0.919965 -0.018558
C46   C     C_R   0.960730 0.506407 0.919964 -0.018547
C47   C     C_R   0.492486 0.000654 0.841539 0.213851
C48   C     C_R   0.992486 0.500655 0.841539 0.213892
C49   C     C_R   0.525334 0.002406 0.071055 -0.081764
C50   C     C_R   0.234882 0.779760 0.031026 0.032127
C51   C     C_R   0.025333 0.502407 0.071055 -0.081752
C52   C     C_R   0.618437 0.998033 0.137197 -0.017798
C53   C     C_R   0.118436 0.498028 0.137196 -0.017820
C54   C     C_R   0.646236 0.002429 0.056160 0.149657
C55   C     C_R   0.146235 0.502425 0.056160 0.149642
C56   C     C_R   0.584445 0.000010 0.913522 -0.186057
C57   C     C_R   0.084445 0.500010 0.913523 -0.186070
C58   C     C_R   0.502588 0.000685 0.160942 0.012056
C59   C     C_R   0.002588 0.500690 0.160942 0.012056
C60   C     C_R   0.653386 0.992823 0.362559 0.021588
C61   C     C_R   0.251983 0.236345 0.055658 0.010411
C62   C     C_R   0.153385 0.492814 0.362557 0.021597
C63   C     C_R   0.709572 0.254770 0.197745 -0.109688
C64   C     C_R   0.652787 0.669712 0.079330 -0.142006
C65   C     C_R   0.209566 0.754775 0.197740 -0.109696
C66   C     C_R   0.152787 0.169705 0.079321 -0.141962
C67   C     C_R   0.320615 0.843085 0.253825 -0.044802
C68   C     C_R   0.311841 0.149790 0.245146 -0.033037
C69   C     C_R   0.820618 0.343082 0.253827 -0.044800
C70   C     C_R   0.811841 0.649790 0.245146 -0.033023
C71   C     C_R   0.691288 0.217420 0.662234 0.183223
C72   C     C_R   0.734888 0.279756 0.031030 0.032127
C73   C     C_R   0.783865 0.893987 0.840004 0.128500
C74   C     C_R   0.191292 0.717419 0.662241 0.183257
C75   C     C_R   0.283863 0.393991 0.840007 0.128493
C76   C     C_R   0.242623 0.778848 0.735934 -0.175092
C77   C     C_R   0.355896 0.372989 0.973828 -0.146615
C78   C     C_R   0.742626 0.278844 0.735935 -0.175079
C79   C     C_R   0.855898 0.872984 0.973825 -0.146616
C80   C     C_R   0.259715 0.799145 0.858621 -0.192536
C81   C     C_R   0.344992 0.323578 0.046574 -0.190665
C82   C     C_R   0.759726 0.299137 0.858629 -0.192458
C83   C     C_R   0.751983 0.736347 0.055662 0.010426
C84   C     C_R   0.844994 0.823575 0.046573 -0.190662
C85   C     C_R   0.716159 0.264036 0.902443 0.070676
C86   C     C_R   0.763367 0.787768 0.982580 0.071452
C87   C     C_R   0.216152 0.764040 0.902439 0.070688
C88   C     C_R   0.263366 0.287768 0.982578 0.071448
C89   C     C_R   0.649432 0.212178 0.812089 -0.059716
C90   C     C_R   0.690106 0.805584 0.843240 -0.051759
C91   C     C_R   0.149430 0.712179 0.812088 -0.059709
C92   C     C_R   0.190106 0.305582 0.843237 -0.051751
C93   C     C_3   0.775993 0.891239 0.347141 0.079741
C94   C     C_R   0.684764 0.245205 0.064675 0.007212
C95   C     C_3   0.871383 0.869253 0.411873 -0.680877
C96   C     C_3   0.275966 0.391212 0.347102 0.079751
C97   C     C_3   0.371346 0.369210 0.411804 -0.680870
C98   C     C_3   0.246566 0.016366 0.846377 0.035978
C99   C     C_3   0.230856 0.017130 0.952359 -0.766706
C100  C     C_3   0.746568 0.516359 0.846380 0.035982
C101  C     C_3   0.730857 0.517128 0.952362 -0.766708
C102  C     C_3   0.503618 0.223959 0.996397 0.075981
C103  C     C_3   0.492235 0.195276 0.099971 -0.728940
C104  C     C_3   0.453793 0.773117 0.782149 0.115453
Cu1   Cu    Cu3+1 0.526340 0.000000 0.421010 0.975394
Cu2   Cu    Cu3+1 0.026340 0.500000 0.421010 0.975391
Cu3   Cu    Cu3+1 0.473640 0.000000 0.578990 0.954520
Cu4   Cu    Cu3+1 0.973640 0.500000 0.578990 0.954525
H1    H     H_    0.290049 0.814348 0.389271 0.166375
H2    H     H_    0.739768 0.525058 0.632634 0.149002
H3    H     H_    0.612449 0.000443 0.862375 0.219164
H4    H     H_    0.112449 0.500443 0.862376 0.219167
H5    H     H_    0.675949 0.225937 0.228914 0.196724
H6    H     H_    0.586782 0.654523 0.041660 0.198310
H7    H     H_    0.175944 0.725943 0.228911 0.196720
H8    H     H_    0.086783 0.154512 0.041646 0.198278
H9    H     H_    0.344710 0.853483 0.109677 0.146678
H10   H     H_    0.392178 0.209277 0.214023 0.149992
H11   H     H_    0.844709 0.353487 0.109676 0.146676
H12   H     H_    0.215373 0.097667 0.254506 0.153296
H13   H     H_    0.892178 0.709274 0.214021 0.149982
H14   H     H_    0.304890 0.844331 0.913411 0.127559
H15   H     H_    0.400156 0.317142 0.155536 0.138620
H16   H     H_    0.804910 0.344318 0.913425 0.127540
H17   H     H_    0.900159 0.817138 0.155535 0.138621
H18   H     H_    0.272178 0.810179 0.700267 0.142073
H19   H     H_    0.419587 0.399821 0.026687 0.163543
H20   H     H_    0.772181 0.310176 0.700267 0.142040
H21   H     H_    0.919590 0.899813 0.026681 0.163540
H22   H     H_    0.701296 0.987022 0.473041 0.189725
H23   H     H_    0.790056 0.314343 0.389276 0.166367
H24   H     H_    0.201294 0.487006 0.473038 0.189720
H25   H     H_    0.731658 0.869380 0.238975 0.139929
H26   H     H_    0.758408 0.865004 0.408194 0.150259
H27   H     H_    0.917367 0.887571 0.521740 0.257999
H28   H     H_    0.876508 0.808332 0.407752 0.208723
H29   H     H_    0.891444 0.894738 0.353998 0.255181
H30   H     H_    0.231616 0.369363 0.238928 0.139921
H31   H     H_    0.258384 0.364977 0.408160 0.150264
H32   H     H_    0.417345 0.387520 0.521677 0.258002
H33   H     H_    0.376455 0.308289 0.407664 0.208728
H34   H     H_    0.715373 0.597671 0.254512 0.153297
H35   H     H_    0.391402 0.394693 0.353919 0.255173
H36   H     H_    0.236186 0.959003 0.806052 0.138354
H37   H     H_    0.196568 0.054200 0.760642 0.188957
H38   H     H_    0.163217 0.996215 0.904515 0.220846
H39   H     H_    0.281011 0.981829 0.042342 0.228974
H40   H     H_    0.236192 0.074362 0.988795 0.266984
H41   H     H_    0.736198 0.458993 0.806070 0.138353
H42   H     H_    0.696565 0.554186 0.760637 0.188953
H43   H     H_    0.663223 0.496203 0.904527 0.220842
H44   H     H_    0.781020 0.481837 0.042357 0.228978
H45   H     H_    0.435140 0.997647 0.122581 0.207692
H46   H     H_    0.736178 0.574363 0.988776 0.266983
H47   H     H_    0.436768 0.230002 0.893598 0.199115
H48   H     H_    0.533229 0.280167 0.029374 0.120811
H49   H     H_    0.499368 0.241087 0.165945 0.196399
H50   H     H_    0.425930 0.169486 0.045003 0.262863
H51   H     H_    0.544426 0.153591 0.170012 0.282825
H52   H     H_    0.383497 0.755587 0.708075 0.201075
H53   H     H_    0.460780 0.819708 0.731359 0.154968
H54   H     H_    0.460613 0.755090 0.962381 0.275176
H55   H     H_    0.541418 0.820058 0.990631 0.233143
H56   H     H_    0.935141 0.497657 0.122583 0.207696
H57   H     H_    0.426444 0.847176 0.890570 0.203677
H58   H     H_    0.936761 0.729992 0.893599 0.199119
H59   H     H_    0.033219 0.780167 0.029358 0.120808
H60   H     H_    0.999380 0.741089 0.165959 0.196396
H61   H     H_    0.925939 0.669485 0.045029 0.262859
H62   H     H_    0.044437 0.653593 0.170025 0.282824
H63   H     H_    0.883489 0.255497 0.708159 0.201117
H64   H     H_    0.960663 0.319622 0.731110 0.155053
H65   H     H_    0.960869 0.255181 0.962607 0.275140
H66   H     H_    0.041433 0.320250 0.990362 0.233096
H67   H     H_    0.300981 0.004886 0.514685 0.149645
H68   H     H_    0.926419 0.347177 0.890459 0.203718
H69   H     H_    0.800981 0.504886 0.514685 0.149643
H70   H     H_    0.239768 0.025057 0.632635 0.149000
I1    I     I_    0.778992 0.023364 0.131710 -0.308281
I2    I     I_    0.016577 0.247564 0.563554 -0.313162
I3    I     I_    0.278993 0.523359 0.131717 -0.308272
I4    I     I_    0.683554 0.191958 0.486793 -0.432468
I5    I     I_    0.808933 0.986621 0.766140 -0.343366
I6    I     I_    0.183577 0.691949 0.486818 -0.432397
I7    I     I_    0.308927 0.486634 0.766150 -0.343341
I8    I     I_    0.447565 0.200353 0.660899 -0.391699
I9    I     I_    0.516559 0.747576 0.563564 -0.313117
I10   I     I_    0.947563 0.700352 0.660898 -0.391705
N1    N     N_R   0.566260 1.000000 0.302220 -0.222474
N2    N     N_R   0.066260 0.500000 0.302220 -0.222478
N3    N     N_R   0.434410 0.000000 0.697680 -0.193719
N4    N     N_R   0.934410 0.500000 0.697680 -0.193705
O1    O     O_R   0.608610 0.924520 0.551740 -0.553250
O2    O     O_R   0.435880 0.924530 0.314850 -0.591743
O3    O     O_R   0.935880 0.575470 0.314850 -0.577063
O4    O     O_R   0.935880 0.424530 0.314850 -0.591742
O5    O     O_R   0.391380 0.075460 0.448260 -0.564967
O6    O     O_R   0.391380 0.924540 0.448260 -0.593670
O7    O     O_R   0.891380 0.575460 0.448260 -0.564967
O8    O     O_R   0.891380 0.424540 0.448260 -0.593678
O9    O     O_3   0.769243 0.969094 0.348891 -0.537134
O10   O     O_3   0.269236 0.469068 0.348882 -0.537139
O11   O     O_3   0.333617 0.041808 0.909602 -0.608322
O12   O     O_R   0.608610 0.075480 0.551740 -0.534502
O13   O     O_3   0.833615 0.541810 0.909599 -0.608322
O14   O     O_3   0.554999 0.171907 0.986721 -0.571395
O15   O     O_3   0.507768 0.711002 0.807840 -0.556884
O16   O     O_3   0.054997 0.671905 0.986720 -0.571398
O17   O     O_3   0.007774 0.210974 0.807824 -0.556934
O18   O     O_R   0.108610 0.424520 0.551740 -0.553255
O19   O     O_R   0.108610 0.575480 0.551740 -0.534498
O20   O     O_R   0.564110 0.924510 0.685150 -0.602723
O21   O     O_R   0.564110 0.075490 0.685150 -0.580702
O22   O     O_R   0.064110 0.424510 0.685150 -0.602709
O23   O     O_R   0.064110 0.575490 0.685150 -0.580703
O24   O     O_R   0.435880 0.075470 0.314850 -0.577053

loop_
_geom_bond_atom_site_label_1
_geom_bond_atom_site_label_2
_ccdc_geom_bond_type
C3    C104  S    
C35   H69   S    
C99   H40   S    
C35   N4    A    
C87   C91   A    
C76   H18   S    
C98   H36   S    
C41   O7    A    
C78   H20   S    
C96   H31   S    
C20   H10   S    
C72   C85   A    
C48   C57   A    
C62   N2    A    
C6    O17   S    
C6    H64   S    
Cu1   O1    S    
C59   N2    A    
Cu1   Cu3   S    
C63   C94   A    
C12   C16   A    
C74   C76   A    
C13   C18   A    
C81   H15   S    
C9    C61   A    
C81   C88   A    
C12   O16   S    
C29   C73   A    
C34   N3    A    
C61   C88   A    
C84   C86   A    
C80   C87   A    
C93   H25   S    
C96   H30   S    
C79   C84   A    
C73   I5    S    
C5    H60   S    
C57   H4    S    
C74   I6    S    
C10   C94   A    
C28   O18   A    
C79   H21   S    
C7    H66   S    
C33   O10   S    
C20   C61   A    
C54   I1    S    
C25   C63   A    
C104  O15   S    
C23   C67   A    
C32   O9    S    
C30   C74   A    
C26   C64   A    
C9    C66   A    
C32   C52   A    
C9    C13   A    
C59   H56   S    
C3    H54   S    
C11   C15   A    
C97   H35   S    
C88   C92   A    
C2    C64   A    
C33   C62   A    
C41   C70   S    
C40   C67   S    
C5    H62   S    
C19   C67   A    
C34   H67   S    
C45   C49   A    
C93   O9    S    
C97   H32   S    
C77   H19   S    
C24   C66   A    
C72   C94   A    
Cu2   Cu4   S    
C45   C47   A    
C18   I2    S    
C8    C65   A    
C93   C95   S    
Cu1   O24   S    
C7    H68   S    
C1    O20   A    
C33   C53   A    
C65   H7    S    
C71   I4    S    
C2    C83   A    
C75   I7    S    
C11   O15   S    
C95   H28   S    
C104  H52   S    
C17   O21   A    
C2    C11   A    
C82   H16   S    
C29   C90   A    
C52   C54   A    
C4    O16   S    
C54   C56   A    
C6    H63   S    
C53   C55   A    
C28   O22   A    
Cu1   O2    S    
C23   H1    S    
C46   C48   A    
C95   H29   S    
C24   H12   S    
C21   C72   A    
C39   O19   A    
C17   C27   S    
C13   O17   S    
C98   O11   S    
C64   H6    S    
C93   H26   S    
C86   C90   A    
C60   H22   S    
C104  H53   S    
Cu3   O5    S    
C85   C89   A    
C60   N1    A    
Cu1   O12   S    
C80   H14   S    
Cu3   O20   S    
C44   C46   A    
C100  H42   S    
C15   I9    S    
C46   C51   A    
C101  H43   S    
C42   C69   S    
C49   C58   A    
C21   C69   A    
C51   C53   A    
Cu4   O8    S    
C17   O12   A    
C1    O1    A    
C14   C89   A    
C58   H45   S    
C62   H24   S    
C43   C45   A    
C78   C82   A    
C31   C75   A    
Cu3   O21   S    
C77   C81   A    
C8    C12   A    
C49   C52   A    
C40   O2    A    
C96   C97   S    
C30   C91   A    
C58   N1    A    
C95   H27   S    
C55   I3    S    
C38   O5    A    
C36   H70   S    
C42   O4    A    
C75   C77   A    
C97   H33   S    
C37   H2    S    
C6    C7    S    
C66   H8    S    
C50   C87   A    
C102  O14   S    
C99   H38   S    
C38   C68   S    
C31   C92   A    
C55   C57   A    
C16   I10   S    
C26   C70   A    
C51   C59   A    
C47   N3    A    
C32   C60   A    
C25   H23   S    
C8    C50   A    
C27   C71   A    
C3    H57   S    
C22   H13   S    
C84   H17   S    
C99   H39   S    
C5    H61   S    
C56   H3    S    
C35   C37   A    
C20   C68   A    
C28   C31   S    
C103  H49   S    
C76   C80   A    
C38   O24   A    
C4    C5    S    
C73   C79   A    
Cu3   O6    S    
Cu2   O4    S    
C100  O13   S    
C103  H50   S    
C96   O10   S    
Cu2   O3    S    
C98   H37   S    
C3    H55   S    
C100  H41   S    
C82   C85   A    
C101  H44   S    
C4    H59   S    
C39   O23   A    
C18   C92   A    
C22   C83   A    
C23   C65   A    
C37   C44   A    
C42   O8    A    
C10   O14   S    
C21   H11   S    
C15   C90   A    
C43   O11   S    
C19   C50   A    
C103  H51   S    
C1    C29   S    
C40   O6    A    
C101  H46   S    
Cu4   O7    S    
C14   I8    S    
Cu2   O19   S    
C7    H65   S    
C44   O13   S    
Cu1   N1    S    
C4    H58   S    
C30   C39   S    
C27   C89   A    
C34   C36   A    
C102  H48   S    
C102  C103  S    
C48   N4    A    
Cu4   O23   S    
C24   C68   A    
C63   H5    S    
C83   C86   A    
C25   C69   A    
C19   H9    S    
C16   C91   A    
C41   O3    A    
C98   C99   S    
Cu3   N3    S    
Cu2   N2    S    
Cu4   N4    S    
C36   C43   A    
C100  C101  S    
C26   H34   S    
C102  H47   S    
C22   C70   A    
C71   C78   A    
Cu4   O22   S    
C10   C14   A    
C47   C56   A    
Cu2   O18   S    
