data_mof_unit_40013.cif
_audit_creation_date              2012-12-11T15:49:06-0500
_audit_creation_method            fapswitch 2.2
_symmetry_space_group_name_H-M    P1
_symmetry_Int_Tables_number       1
_space_group_crystal_system       triclinic
_cell_length_a                    21.676551
_cell_length_b                    7.17739
_cell_length_c                    15.034774
_cell_angle_alpha                 90.108094
_cell_angle_beta                  106.451777
_cell_angle_gamma                 90.036805
_cell_volume                      2243.35292242

loop_
_atom_site_label
_atom_site_type_symbol
_atom_type_description
_atom_site_fract_x
_atom_site_fract_y
_atom_site_fract_z
_atom_type_partial_charge
O1    O     O_R   0.335860 0.638190 0.002110 -0.559801
O2    O     O_R   0.664140 0.361810 0.997890 -0.537728
O3    O     O_R   0.164140 0.138190 0.997890 -0.559814
O4    O     O_R   0.835860 0.861810 0.002110 -0.538039
O5    O     O_R   0.217530 0.305920 0.861960 -0.528442
O6    O     O_R   0.782470 0.694080 0.138040 -0.542852
O7    O     O_R   0.282470 0.805920 0.138040 -0.528294
O8    O     O_R   0.717530 0.194080 0.861960 -0.542730
C1    C     C_R   0.205586 0.476608 0.826415 0.698515
C2    C     C_R   0.794415 0.523368 0.173636 0.697931
C3    C     C_R   0.294272 0.976989 0.173586 0.698232
C4    C     C_R   0.705639 0.022953 0.826303 0.690850
O9    O     O_R   0.338690 0.308320 0.993240 -0.488416
O10   O     O_R   0.661310 0.691680 0.006760 -0.501656
O11   O     O_R   0.161310 0.808320 0.006760 -0.488574
O12   O     O_R   0.838690 0.191680 0.993240 -0.499803
O13   O     O_R   0.286170 0.140430 0.130100 -0.551027
O14   O     O_R   0.713830 0.859570 0.869900 -0.548309
O15   O     O_R   0.213830 0.640430 0.869900 -0.551011
O16   O     O_R   0.786170 0.359570 0.130100 -0.548189
C5    C     C_R   0.364642 0.476591 0.996139 0.755164
C6    C     C_R   0.635522 0.523481 0.004524 0.763118
C7    C     C_R   0.135389 0.976513 0.003949 0.754361
C8    C     C_R   0.864560 0.023606 0.995802 0.763061
O17   O     O_3   0.232630 0.472410 0.044750 -0.367837
O18   O     O_3   0.767370 0.527590 0.955250 -0.367415
O19   O     O_3   0.267370 0.972410 0.955250 -0.367601
O20   O     O_3   0.732630 0.027590 0.044750 -0.366225
V1    V     V_3+5 0.253220 0.196620 0.991700 1.556661
V2    V     V_3+5 0.746780 0.803380 0.008300 1.552061
V3    V     V_3+5 0.246780 0.696620 0.008300 1.556435
V4    V     V_3+5 0.753220 0.303380 0.991700 1.552292
C9    C     C_R   0.037123 0.852340 0.049128 0.516243
C10   C     C_R   0.962960 0.149792 0.951256 0.513409
C11   C     C_R   0.462914 0.352160 0.951119 0.513768
C12   C     C_R   0.537459 0.648988 0.050163 0.506883
C13   C     C_R   0.971550 0.868999 0.043481 -0.211997
C14   C     C_R   0.028290 0.131283 0.955624 -0.264186
C15   C     C_R   0.528507 0.368645 0.956937 -0.213166
C16   C     C_R   0.471985 0.631171 0.045227 -0.261612
H1    H     H_    0.949960 0.768210 0.079015 0.194926
H2    H     H_    0.049844 0.231794 0.919900 0.198430
H3    H     H_    0.550039 0.267598 0.921372 0.193359
H4    H     H_    0.450509 0.731830 0.081046 0.195466
C17   C     C_R   0.933522 0.015523 0.995565 -0.248595
C18   C     C_R   0.066370 0.985066 0.003876 -0.262397
C19   C     C_R   0.566664 0.515103 0.005176 -0.247300
C20   C     C_R   0.433720 0.485197 0.996423 -0.261258
C21   C     C_R   0.676208 0.013749 0.726072 -0.078135
C22   C     C_R   0.323515 0.985673 0.273638 -0.071078
C23   C     C_R   0.823720 0.515894 0.273782 -0.070228
C24   C     C_R   0.176261 0.483999 0.726364 -0.074023
C25   C     C_R   0.689176 0.987089 0.572807 -0.167330
C26   C     C_R   0.310364 0.010440 0.426725 -0.132060
C27   C     C_R   0.810618 0.506170 0.427290 -0.147279
C28   C     C_R   0.189303 0.492404 0.572855 -0.131224
C29   C     C_R   0.715635 0.013599 0.667398 -0.176745
C30   C     C_R   0.283902 0.986052 0.332057 -0.189519
C31   C     C_R   0.784323 0.525652 0.332378 -0.229483
C32   C     C_R   0.215580 0.472125 0.667731 -0.191542
C33   C     C_R   0.608894 0.998055 0.689604 0.113890
C34   C     C_R   0.390880 0.998715 0.310239 0.103604
C35   C     C_R   0.890903 0.496398 0.310401 0.112088
C36   C     C_R   0.109142 0.505147 0.689868 0.108878
C37   C     C_R   0.580450 0.998910 0.591556 0.077980
C38   C     C_R   0.419143 0.996151 0.408233 0.057256
C39   C     C_R   0.919397 0.503676 0.408363 0.053613
C40   C     C_R   0.080592 0.497785 0.591970 0.056958
C41   C     C_R   0.622063 0.973709 0.534160 0.017896
C42   C     C_R   0.377461 0.021544 0.465295 0.091501
C43   C     C_R   0.877539 0.489702 0.465895 0.095018
C44   C     C_R   0.122429 0.510892 0.534394 0.086788
C45   C     C_R   0.512523 0.015520 0.548352 0.008213
C46   C     C_R   0.486934 0.978057 0.451710 -0.027150
C47   C     C_R   0.987432 0.516317 0.451562 0.008262
C48   C     C_R   0.012550 0.485698 0.548867 0.010219
C49   C     C_R   0.529533 0.915635 0.402631 -0.061599
C50   C     C_R   0.469675 0.076412 0.597512 -0.141470
C51   C     C_R   0.969093 0.435695 0.598945 -0.147093
C52   C     C_R   0.030910 0.566823 0.401598 -0.146753
C53   C     C_R   0.595827 0.925402 0.440198 0.171083
C54   C     C_R   0.403189 0.067496 0.559052 0.142133
C55   C     C_R   0.902791 0.449694 0.560358 0.148913
C56   C     C_R   0.097222 0.552068 0.440082 0.140417
H5    H     H_    0.232119 0.977423 0.303768 0.163143
H6    H     H_    0.767396 0.023600 0.695496 0.159487
H7    H     H_    0.267167 0.457004 0.695880 0.168268
H8    H     H_    0.732685 0.538544 0.304225 0.172126
H9    H     H_    0.721955 0.975582 0.530576 0.131556
H10   H     H_    0.277851 0.022197 0.469467 0.171998
H11   H     H_    0.778080 0.502820 0.470249 0.165685
H12   H     H_    0.221789 0.494570 0.529806 0.173365
H13   H     H_    0.512513 0.853908 0.334754 0.210887
H14   H     H_    0.486441 0.137126 0.665580 0.203396
H15   H     H_    0.985166 0.379986 0.668030 0.205873
H16   H     H_    0.014794 0.623633 0.332781 0.208151
S1    S     S_3+6 0.080356 0.667744 0.116977 -0.022039
O21   O     O_2   0.142493 0.739939 0.180219 -0.377491
O22   O     O_2   0.041342 0.580699 0.174060 -0.376290
O23   O     O_3   0.096107 0.504321 0.046475 -0.482109
H17   H     H_    0.115461 0.400302 0.088248 0.359128
S2    S     S_3+6 0.920619 0.341205 0.888063 -0.013001
O24   O     O_2   0.908638 0.482260 0.955237 -0.325725
O25   O     O_2   0.959097 0.431806 0.831196 -0.359073
O26   O     O_3   0.849987 0.267753 0.817297 -0.540239
H18   H     H_    0.823500 0.381687 0.800598 0.352490
S3    S     S_3+6 0.419646 0.167080 0.883115 -0.023831
O27   O     O_2   0.357411 0.238566 0.820183 -0.378218
O28   O     O_2   0.458539 0.080330 0.825680 -0.374610
O29   O     O_3   0.404119 0.003639 0.953560 -0.483617
H19   H     H_    0.384849 0.899191 0.911747 0.359328
S4    S     S_3+6 0.580355 0.838520 0.115194 0.021891
O30   O     O_2   0.591920 0.982638 0.049328 -0.327757
O31   O     O_2   0.542638 0.925925 0.174114 -0.328511
O32   O     O_3   0.651228 0.763778 0.184265 -0.522342
H20   H     H_    0.676572 0.878454 0.205691 0.355569
N1    N     N_3   0.635361 0.875607 0.381825 -0.592082
H21   H     H_    0.665154 0.764745 0.412160 0.224956
H22   H     H_    0.663784 0.990213 0.376177 0.238162
N2    N     N_3   0.361587 0.114969 0.614686 -0.650264
H23   H     H_    0.369715 0.019826 0.669270 0.304250
H24   H     H_    0.373876 0.248160 0.642375 0.270555
N3    N     N_3   0.860809 0.413560 0.616854 -0.670094
H25   H     H_    0.871112 0.510610 0.670978 0.287085
H26   H     H_    0.870877 0.280374 0.645303 0.271316
N4    N     N_3   0.139294 0.589046 0.383808 -0.647327
H27   H     H_    0.129178 0.492506 0.329466 0.298568
H28   H     H_    0.129299 0.722559 0.355751 0.276900
N5    N     N_3   0.429013 0.036603 0.248293 -0.631256
H29   H     H_    0.413917 0.162675 0.214405 0.249996
H30   H     H_    0.421284 0.930494 0.198615 0.238582
N6    N     N_3   0.571069 0.959126 0.751838 -0.639998
H31   H     H_    0.578523 0.065518 0.801353 0.240421
H32   H     H_    0.586656 0.833523 0.785887 0.245034
N7    N     N_3   0.071886 0.554831 0.751526 -0.638548
H33   H     H_    0.088876 0.681663 0.783490 0.247565
H34   H     H_    0.078189 0.452555 0.802745 0.243638
N8    N     N_3   0.928331 0.448329 0.248750 -0.641335
H35   H     H_    0.921750 0.550937 0.197651 0.243561
H36   H     H_    0.911685 0.321378 0.216619 0.243935

loop_
_geom_bond_atom_site_label_1
_geom_bond_atom_site_label_2
_ccdc_geom_bond_type
O17   V3    S    
O1    C5    A    
N4    H27   S    
C27   C31   A    
O19   V1    S    
O13   V1    S    
C45   C46   A    
O3    C7    A    
C48   C51   A    
C54   N2    S    
C52   C56   A    
C25   C41   A    
S4    O31   D    
S1    O21   D    
C21   C29   A    
N7    H33   S    
O7    C3    A    
O5    C1    A    
C10   S2    S    
S2    O26   S    
C8    C17   S    
C36   C40   A    
O9    V1    S    
C14   H2    S    
N1    H22   S    
O16   V4    S    
O4    C8    A    
N3    H26   S    
C2    C23   S    
O32   H20   S    
C38   C46   A    
C53   N1    S    
O1    V3    S    
C37   C45   A    
C29   H6    S    
C12   C19   A    
O2    V4    S    
O3    V1    S    
C16   C20   A    
C31   H8    S    
C12   C16   A    
C27   H11   S    
C24   C32   A    
C33   N6    S    
O29   H19   S    
C1    O15   A    
C2    O16   A    
N6    H31   S    
C28   C44   A    
C46   C49   A    
C12   S4    S    
C45   C50   A    
O14   V2    S    
C52   H16   S    
C47   C52   A    
O5    V1    S    
C40   C44   A    
C5    C20   S    
O11   C7    A    
C6    C19   S    
C36   N7    S    
O15   V3    S    
O12   C8    A    
C7    C18   S    
C9    C18   A    
S3    O28   D    
C34   N5    S    
C1    C24   S    
O10   V2    S    
C11   C20   A    
S4    O30   D    
S1    O22   D    
C32   H7    S    
N2    H24   S    
C4    C21   S    
C43   C55   A    
C56   N4    S    
C35   C39   A    
C21   C33   A    
C34   C38   A    
O9    C5    A    
O8    V4    S    
N3    H25   S    
O7    V3    S    
C24   C36   A    
C25   C29   A    
O18   V4    S    
C15   H3    S    
O11   V3    S    
C9    C13   A    
C28   C32   A    
C22   C30   A    
C51   H15   S    
C11   C15   A    
C47   C48   A    
O2    C6    A    
C50   C54   A    
C26   C42   A    
C49   C53   A    
O8    C4    A    
C23   C35   A    
C10   C17   A    
C40   C48   A    
S2    O25   D    
C44   C56   A    
N8    H36   S    
C41   C53   A    
O6    V2    S    
C25   H9    S    
C22   C34   A    
S3    O29   S    
C23   C31   A    
S3    O27   D    
C13   C17   A    
C30   H5    S    
S1    O23   S    
N2    H23   S    
C15   C19   A    
N5    H29   S    
C26   C30   A    
N7    H34   S    
C3    O13   A    
N4    H28   S    
C10   C14   A    
O6    C2    A    
C26   H10   S    
O12   V4    S    
O26   H18   S    
O10   C6    A    
O20   V2    S    
C3    C22   S    
N1    H21   S    
C51   C55   A    
C38   C42   A    
C50   H14   S    
C37   C41   A    
C49   H13   S    
O23   H17   S    
C35   N8    S    
C39   C43   A    
C13   H1    S    
S2    O24   D    
C42   C54   A    
O4    V2    S    
C14   C18   A    
C11   S3    S    
N8    H35   S    
C33   C37   A    
C16   H4    S    
C39   C47   A    
N6    H32   S    
C4    O14   A    
C9    S1    S    
C55   N3    S    
C28   H12   S    
S4    O32   S    
C27   C43   A    
N5    H30   S    
