data_mof_unit_40617.cif
_audit_creation_date              2012-12-11T14:49:42-0500
_audit_creation_method            fapswitch 2.2
_symmetry_space_group_name_H-M    P1
_symmetry_Int_Tables_number       1
_space_group_crystal_system       triclinic
_cell_length_a                    16.800469
_cell_length_b                    7.210162
_cell_length_c                    16.97018
_cell_angle_alpha                 89.999973
_cell_angle_beta                  99.914598
_cell_angle_gamma                 90.0
_cell_volume                      2024.96714657

loop_
_atom_site_label
_atom_site_type_symbol
_atom_type_description
_atom_site_fract_x
_atom_site_fract_y
_atom_site_fract_z
_atom_type_partial_charge
O1    O     O_R   0.579510 0.506290 0.439030 -0.525211
O2    O     O_R   0.420490 0.006290 0.560970 -0.525211
O3    O     O_R   0.412540 0.170090 0.405290 -0.524828
O4    O     O_R   0.587460 0.670090 0.594710 -0.524829
C1    C     C_R   0.384657 0.345795 0.383350 0.731646
C2    C     C_R   0.615343 0.845795 0.616649 0.731646
O5    O     O_R   0.578390 0.176230 0.429330 -0.518163
O6    O     O_R   0.421610 0.676230 0.570670 -0.518163
O7    O     O_R   0.587530 0.011250 0.585190 -0.532433
O8    O     O_R   0.412470 0.511250 0.414810 -0.532432
C3    C     C_R   0.603762 0.345135 0.413377 0.708558
C4    C     C_R   0.396238 0.845135 0.586623 0.708558
O9    O     O_3   0.502800 0.340940 0.551110 -0.371416
O10   O     O_3   0.497200 0.840940 0.448890 -0.371416
V1    V     V_3+5 0.499480 0.064020 0.490520 1.588008
V2    V     V_3+5 0.500520 0.564020 0.509480 1.588008
C5    C     C_R   0.172702 0.904865 0.867654 -0.145858
C6    C     C_R   0.827298 0.404865 0.132346 -0.145858
C7    C     C_R   0.333627 0.856927 0.638320 -0.010233
C8    C     C_R   0.666373 0.356927 0.361680 -0.010232
C9    C     C_R   0.197298 0.941903 0.654398 -0.149328
C10   C     C_R   0.802702 0.441904 0.345601 -0.149328
C11   C     C_R   0.254968 0.910836 0.605535 -0.076640
C12   C     C_R   0.745032 0.410837 0.394465 -0.076640
C13   C     C_R   0.352852 0.823641 0.720923 -0.218410
C14   C     C_R   0.647148 0.323641 0.279077 -0.218410
C15   C     C_R   0.294576 0.850626 0.771673 0.052848
C16   C     C_R   0.705424 0.350626 0.228327 0.052848
C17   C     C_R   0.216455 0.914287 0.737410 0.137931
C18   C     C_R   0.783545 0.414288 0.262589 0.137931
C19   C     C_R   0.157394 0.944141 0.785582 -0.144705
C20   C     C_R   0.842606 0.444142 0.214418 -0.144705
C21   C     C_R   0.249915 0.835198 0.902494 -0.044140
C22   C     C_R   0.750085 0.335198 0.097506 -0.044139
C23   C     C_R   0.311335 0.810081 0.854791 -0.060751
C24   C     C_R   0.688665 0.310080 0.145209 -0.060751
H1    H     H_    0.098066 0.992083 0.758381 0.161379
H2    H     H_    0.901934 0.492084 0.241619 0.161380
H3    H     H_    0.137161 0.985476 0.626997 0.127277
H4    H     H_    0.862839 0.485477 0.373003 0.127276
H5    H     H_    0.237940 0.926481 0.541674 0.159702
H6    H     H_    0.762060 0.426482 0.458325 0.159702
H7    H     H_    0.413589 0.777953 0.744484 0.095084
H8    H     H_    0.586412 0.277952 0.255516 0.095085
C25   C     C_3   0.763967 0.726502 0.819537 -0.269100
C26   C     C_3   0.236033 0.226501 0.180463 -0.269100
H9    H     H_    0.803138 0.607599 0.817209 0.138592
H10   H     H_    0.196862 0.107599 0.182791 0.138592
C27   C     C_3   0.689697 0.710448 0.749997 -0.157772
C28   C     C_3   0.310303 0.210448 0.250003 -0.157772
H11   H     H_    0.633985 0.738175 0.775537 0.166768
H12   H     H_    0.366014 0.238175 0.224463 0.166768
C29   C     C_3   0.850828 0.878043 0.725592 -0.189645
C30   C     C_3   0.149172 0.378043 0.274408 -0.189646
C31   C     C_3   0.752520 0.063908 0.805525 -0.137463
C32   C     C_3   0.247480 0.563908 0.194475 -0.137463
C33   C     C_3   0.816276 0.904649 0.808886 -0.070925
C34   C     C_3   0.183723 0.404649 0.191114 -0.070925
H13   H     H_    0.724376 0.052649 0.859888 0.148300
H14   H     H_    0.275624 0.552649 0.140112 0.148300
C35   C     C_3   0.690601 0.863210 0.684317 -0.112899
C36   C     C_3   0.309399 0.363210 0.315682 -0.112900
C37   C     C_3   0.775219 0.884674 0.650592 -0.131386
C38   C     C_3   0.224781 0.384673 0.349408 -0.131386
C39   C     C_3   0.682075 0.041850 0.733737 -0.361766
C40   C     C_3   0.317925 0.541850 0.266263 -0.361766
H15   H     H_    0.623269 0.043648 0.755757 0.175623
H16   H     H_    0.376731 0.543648 0.244243 0.175623
H17   H     H_    0.678583 0.159563 0.694299 0.203911
H18   H     H_    0.321417 0.659563 0.305700 0.203911
O11   O     O_R   0.087500 0.266000 0.085220 -0.546690
O12   O     O_R   0.912500 0.766000 0.914780 -0.546690
O13   O     O_R   0.921600 0.589950 0.070670 -0.528304
O14   O     O_R   0.078400 0.089950 0.929330 -0.528304
C41   C     C_R   0.894415 0.421001 0.084992 0.705854
C42   C     C_R   0.105585 0.921001 0.915007 0.705854
O15   O     O_R   0.087460 0.596020 0.094710 -0.516912
O16   O     O_R   0.912540 0.096020 0.905290 -0.516912
O17   O     O_R   0.079520 0.760970 0.939020 -0.533099
O18   O     O_R   0.920480 0.260970 0.060980 -0.533099
C43   C     C_R   0.115069 0.425556 0.117732 0.713278
C44   C     C_R   0.884931 0.925556 0.882268 0.713279
O19   O     O_3   0.997180 0.425140 0.948910 -0.360212
O20   O     O_3   0.002820 0.925140 0.051090 -0.360212
V3    V     V_3+5 0.000520 0.702080 0.009480 1.560555
V4    V     V_3+5 0.999480 0.202080 0.990520 1.560556
C45   C     C_2   0.675524 0.519878 0.717089 0.752525
O21   O     O_2   0.618549 0.429927 0.732966 -0.557997
O22   O     O_R   0.717802 0.460088 0.658170 -0.668482
H19   H     H_    0.682949 0.384125 0.615294 0.304006
C46   C     C_2   0.324476 0.019878 0.282911 0.752526
O23   O     O_2   0.381451 0.929927 0.267034 -0.557997
O24   O     O_R   0.282198 0.960088 0.341830 -0.668482
H20   H     H_    0.317051 0.884125 0.384706 0.304006
C47   C     C_2   0.895273 0.691097 0.729490 0.415926
H21   H     H_    0.867707 0.571775 0.697499 0.148256
O25   O     O_2   0.961722 0.669792 0.771045 -0.507771
C48   C     C_2   0.104727 0.191097 0.270510 0.415926
H22   H     H_    0.132293 0.071774 0.302501 0.148257
O26   O     O_2   0.038278 0.169791 0.228955 -0.507771
C49   C     C_2   0.786099 0.748388 0.583275 0.817968
O27   O     O_2   0.727520 0.686544 0.538430 -0.551612
O28   O     O_R   0.862971 0.719996 0.563996 -0.644337
H23   H     H_    0.862404 0.637935 0.515495 0.292821
C50   C     C_2   0.213901 0.248387 0.416725 0.817968
O29   O     O_2   0.272480 0.186543 0.461570 -0.551611
O30   O     O_R   0.137029 0.219995 0.436003 -0.644337
H24   H     H_    0.137596 0.137935 0.484505 0.292821
C51   C     C_2   0.786441 0.253935 0.812901 0.438389
H25   H     H_    0.769701 0.344305 0.857927 0.015475
O31   O     O_2   0.832422 0.308207 0.770125 -0.535726
C52   C     C_2   0.213558 0.753936 0.187099 0.438389
H26   H     H_    0.230298 0.844305 0.142072 0.015475
O32   O     O_2   0.167578 0.808207 0.229875 -0.535726
C53   C     C_2   0.918989 0.012819 0.712446 0.818675
O33   O     O_2   0.956154 0.105035 0.766899 -0.524929
O34   O     O_R   0.944426 0.016705 0.638097 -0.645673
H27   H     H_    0.990238 0.107387 0.636466 0.295458
C54   C     C_2   0.081011 0.512819 0.287554 0.818674
O35   O     O_2   0.043846 0.605035 0.233101 -0.524929
O36   O     O_R   0.055574 0.516705 0.361903 -0.645673
H28   H     H_    0.009762 0.607387 0.363534 0.295458
C55   C     C_2   0.773339 0.070648 0.605603 0.357886
H29   H     H_    0.805156 0.190788 0.632665 0.136712
O37   O     O_2   0.733864 0.090344 0.538537 -0.532234
C56   C     C_2   0.226661 0.570648 0.394397 0.357886
H30   H     H_    0.194844 0.690787 0.367335 0.136712
O38   O     O_2   0.266136 0.590343 0.461463 -0.532234
C57   C     C_2   0.265766 0.790138 0.989066 0.446856
H31   H     H_    0.219429 0.723409 0.015989 -0.023962
O39   O     O_2   0.329922 0.830132 0.031229 -0.486592
C58   C     C_2   0.734234 0.290137 0.010934 0.446855
H32   H     H_    0.780571 0.223409 0.984011 -0.023962
O40   O     O_2   0.670077 0.330131 0.968771 -0.486592
C59   C     C_2   0.391412 0.731771 0.890398 0.548389
H33   H     H_    0.446548 0.796246 0.878707 0.065124
O41   O     O_2   0.396240 0.591623 0.931353 -0.471759
C60   C     C_2   0.608588 0.231769 0.109602 0.548389
H34   H     H_    0.553452 0.296244 0.121293 0.065124
O42   O     O_2   0.603760 0.091622 0.068648 -0.471759
C61   C     C_2   0.739763 0.709816 0.902104 0.408121
H35   H     H_    0.781765 0.648998 0.950909 0.039128
O43   O     O_2   0.674596 0.764526 0.915564 -0.487668
C62   C     C_2   0.260237 0.209816 0.097896 0.408122
H36   H     H_    0.218235 0.148998 0.049091 0.039128
O44   O     O_2   0.325404 0.264526 0.084436 -0.487668

loop_
_geom_bond_atom_site_label_1
_geom_bond_atom_site_label_2
_ccdc_geom_bond_type
C40   H16   S    
C45   O21   D    
C6    C41   S    
C31   H13   S    
C29   C47   S    
C12   H6    S    
C27   C45   S    
C47   H21   S    
O1    C3    A    
C42   O17   A    
C37   C49   S    
O2    C4    A    
C13   H7    S    
C2    O7    A    
C52   O32   D    
O12   V3    S    
C14   H8    S    
C38   C50   S    
O5    C3    A    
C50   O30   S    
C25   C33   S    
O24   H20   S    
O14   C42   A    
C2    C35   S    
O20   V4    S    
C61   O43   D    
C32   C40   S    
C55   O37   D    
C15   C17   A    
C53   O33   D    
C25   H9    S    
C35   C37   S    
O18   V4    S    
C61   H35   S    
C39   H15   S    
C58   H32   S    
C53   O34   S    
C5    C42   S    
C28   H12   S    
O30   H24   S    
C20   H2    S    
C41   O18   A    
C36   C38   S    
C55   H29   S    
O16   V4    S    
O5    V1    S    
C22   C58   S    
O6    V2    S    
C30   C54   S    
C26   C34   S    
C25   C61   S    
O13   C41   A    
C5    C21   A    
C52   H26   S    
C31   C39   S    
C54   O36   S    
C9    C11   A    
C26   H10   S    
C3    C8    S    
C27   C35   S    
C36   C40   S    
C49   O27   D    
C8    C12   A    
C59   H33   S    
C16   C24   A    
O20   V3    S    
C62   O44   D    
C34   C43   S    
C23   C59   S    
C46   O23   D    
C27   H11   S    
C29   C33   S    
C26   C62   S    
C15   C23   A    
C9    C17   A    
C19   H1    S    
O4    V2    S    
C7    C11   A    
C46   O24   S    
O11   V4    S    
O16   C44   A    
C9    H3    S    
O15   C43   A    
O6    C4    A    
C10   H4    S    
C25   C27   S    
O1    V2    S    
O14   V4    S    
O2    V1    S    
C6    C22   A    
O13   V3    S    
O36   H28   S    
C60   O42   D    
C58   O40   D    
O4    C2    A    
O19   V3    S    
C38   C56   S    
C31   C33   S    
C5    C19   A    
C10   C12   A    
C28   C36   S    
C6    C20   A    
O17   V3    S    
O3    V1    S    
C57   H31   S    
C30   C34   S    
C21   C57   S    
C59   O41   D    
C56   O38   D    
C10   C18   A    
O10   V1    S    
C62   H36   S    
O3    C1    A    
C37   C55   S    
C54   O35   D    
C47   O25   D    
C13   C15   A    
C50   O29   D    
C26   C28   S    
C14   C16   A    
C11   H5    S    
C51   O31   D    
O7    V1    S    
C1    O8    A    
C17   C19   A    
O8    V2    S    
O34   H27   S    
C18   C20   A    
C29   C37   S    
C40   H18   S    
C8    C14   A    
C56   H30   S    
C39   H17   S    
C4    C7    S    
C16   C18   A    
C21   C23   A    
C32   C34   S    
C1    C36   S    
C22   C24   A    
C7    C13   A    
C48   O26   D    
O12   C44   A    
C60   H34   S    
O15   V3    S    
C35   C39   S    
C28   C46   S    
O19   V4    S    
C32   H14   S    
C30   C38   S    
C49   O28   S    
C48   H22   S    
O9    V2    S    
O28   H23   S    
C45   O22   S    
C33   C44   S    
C30   C48   S    
C57   O39   D    
O22   H19   S    
C51   H25   S    
C24   C60   S    
C32   C52   S    
C31   C51   S    
C29   C53   S    
O11   C43   A    
