data_mof_unit_47809.cif
_audit_creation_date              2012-12-10T19:45:47-0500
_audit_creation_method            fapswitch 2.2
_symmetry_space_group_name_H-M    P1
_symmetry_Int_Tables_number       1
_space_group_crystal_system       triclinic
_cell_length_a                    10.827107
_cell_length_b                    14.697116
_cell_length_c                    14.675459
_cell_angle_alpha                 65.238453
_cell_angle_beta                  103.399881
_cell_angle_gamma                 103.118303
_cell_volume                      2040.40318597

loop_
_atom_site_label
_atom_site_type_symbol
_atom_type_description
_atom_site_fract_x
_atom_site_fract_y
_atom_site_fract_z
_atom_type_partial_charge
C1    C     C_R   0.476320 0.119604 0.312224 0.804183
C2    C     C_R   0.574876 0.783899 0.973920 -0.229365
C3    C     C_R   0.396595 0.149650 0.129256 -0.198209
C4    C     C_R   0.570371 0.850351 0.872589 -0.194932
C5    C     C_R   0.484077 0.291695 0.179141 -0.268853
C6    C     C_R   0.500061 0.708340 0.820853 -0.267997
C7    C     C_R   0.455071 0.360700 0.079110 0.085583
C8    C     C_R   0.500182 0.639808 0.922055 0.084861
C9    C     C_R   0.402633 0.321374 0.002782 0.165560
C10   C     C_R   0.540087 0.679213 0.999184 0.162563
C11   C     C_R   0.479466 0.467352 0.052830 0.064135
C12   C     C_R   0.521643 0.880380 0.687853 0.799705
C13   C     C_R   0.464081 0.533437 0.948579 0.063299
C14   C     C_R   0.411099 0.490991 0.874660 -0.227059
C15   C     C_R   0.515723 0.510009 0.127385 -0.226976
C16   C     C_R   0.262472 0.001213 0.498571 0.810611
C17   C     C_R   0.737376 0.998651 0.501592 0.821662
C18   C     C_R   0.380019 0.387073 0.901709 -0.233290
C19   C     C_R   0.544815 0.613929 0.100721 -0.233882
C20   C     C_R   0.696110 0.277176 0.680417 -0.325947
C21   C     C_R   0.314658 0.726884 0.314306 -0.328654
C22   C     C_R   0.670345 0.198913 0.645855 0.082616
C23   C     C_R   0.870894 0.997696 0.501491 -0.122665
C24   C     C_R   0.340677 0.805184 0.348658 0.057245
C25   C     C_R   0.522645 0.287002 0.506261 -0.000501
C26   C     C_R   0.471516 0.710380 0.497084 -0.002002
C27   C     C_R   0.546279 0.370439 0.536434 -0.025563
C28   C     C_R   0.451367 0.628204 0.465281 -0.023856
C29   C     C_R   0.633507 0.362547 0.626776 0.162896
C30   C     C_R   0.369928 0.638444 0.371908 0.165557
C31   C     C_R   0.485945 0.459935 0.481640 0.076695
C32   C     C_R   0.510984 0.538316 0.520597 0.074153
C33   C     C_R   0.595953 0.524639 0.612709 -0.238823
C34   C     C_R   0.128491 0.002842 0.497469 -0.129590
C35   C     C_R   0.403248 0.474438 0.388445 -0.242420
C36   C     C_R   0.656673 0.439104 0.663808 -0.198387
C37   C     C_R   0.346765 0.561810 0.335028 -0.203514
C38   C     C_R   0.285491 0.891177 0.848768 -0.127247
C39   C     C_R   0.713187 0.129804 0.152312 -0.121182
C40   C     C_R   0.207951 0.895300 0.757023 -0.151868
C41   C     C_R   0.798827 0.118014 0.242564 -0.187264
C42   C     C_R   0.188169 0.989302 0.678499 0.114216
C43   C     C_R   0.811167 0.020857 0.317656 0.118209
C44   C     C_R   0.250503 0.078922 0.691478 -0.101121
C45   C     C_R   0.907962 0.007939 0.411172 -0.056209
C46   C     C_R   0.732892 0.936150 0.302884 -0.081403
C47   C     C_R   0.330935 0.074390 0.782345 -0.144414
C48   C     C_R   0.646694 0.948305 0.212904 -0.138047
C49   C     C_R   0.347244 0.980593 0.861382 -0.130429
C50   C     C_R   0.637953 0.044953 0.137187 -0.122632
C51   C     C_R   0.960959 0.988975 0.590406 0.045865
C52   C     C_R   0.037843 0.009601 0.408927 0.031006
C53   C     C_3   0.917682 0.965105 0.691196 -0.407610
C54   C     C_3   0.869534 0.851440 0.742081 -0.348893
C55   C     C_3   0.873482 0.819160 0.855908 -0.832311
C56   C     C_R   0.091264 0.994565 0.586949 -0.053262
C57   C     C_3   0.078752 0.021924 0.310982 -0.373436
C58   C     C_3   0.048800 0.921371 0.296008 -0.309605
C59   C     C_3   0.060844 0.937696 0.188460 -0.883139
C60   C     C_R   0.453153 0.187185 0.204932 -0.040677
C61   C     C_R   0.531747 0.812744 0.795575 -0.030693
C62   C     C_R   0.373309 0.216368 0.028431 -0.217937
Cu1   Cu    Cu3+1 0.466270 0.918260 0.475690 0.930565
Cu2   Cu    Cu3+1 0.533730 0.081740 0.524310 0.936823
H1    H     H_    0.408075 0.977116 0.932268 0.114264
H2    H     H_    0.452612 0.284088 0.441896 0.123237
H3    H     H_    0.304534 0.875499 0.301231 0.138544
H4    H     H_    0.716424 0.132062 0.688646 0.112088
H5    H     H_    0.763312 0.270336 0.749558 0.134932
H6    H     H_    0.254439 0.736636 0.241642 0.137266
H7    H     H_    0.618781 0.579323 0.647348 0.131065
H8    H     H_    0.381721 0.420164 0.353377 0.130616
H9    H     H_    0.298041 0.818560 0.910034 0.142530
H10   H     H_    0.704937 0.204738 0.094116 0.139323
H11   H     H_    0.160577 0.825578 0.748219 0.123930
H12   H     H_    0.571853 0.054236 0.067214 0.116227
H13   H     H_    0.857254 0.184171 0.253260 0.127991
H14   H     H_    0.235169 0.152006 0.631849 0.125314
H15   H     H_    0.739831 0.860746 0.360628 0.118134
H16   H     H_    0.378892 0.143577 0.792106 0.124356
H17   H     H_    0.587261 0.882764 0.201642 0.118983
H18   H     H_    0.339008 0.357920 0.842731 0.143785
H19   H     H_    0.572286 0.643311 0.160278 0.148709
H20   H     H_    0.477692 0.682180 0.759843 0.148310
H21   H     H_    0.533690 0.317541 0.238418 0.153126
H22   H     H_    0.596822 0.930917 0.854564 0.154464
H23   H     H_    0.332026 0.185899 0.970496 0.130447
H24   H     H_    0.372210 0.068958 0.147749 0.144553
H25   H     H_    0.826431 0.870378 0.870393 0.258089
H26   H     H_    0.823128 0.740494 0.888243 0.251381
H27   H     H_    0.974631 0.821848 0.894600 0.250026
H28   H     H_    0.769727 0.834139 0.706327 0.206388
H29   H     H_    0.929493 0.805686 0.731258 0.218125
H30   H     H_    0.996254 0.989100 0.743702 0.213099
H31   H     H_    0.841940 0.009268 0.681365 0.194191
H32   H     H_    0.986070 0.982005 0.132765 0.263291
H33   H     H_    0.156786 0.979080 0.169806 0.245028
H34   H     H_    0.605040 0.814401 0.032576 0.132553
H35   H     H_    0.047522 0.863278 0.182127 0.239633
H36   H     H_    0.114762 0.868951 0.352069 0.226747
H37   H     H_    0.950497 0.883286 0.309796 0.216365
H38   H     H_    0.030333 0.080874 0.245067 0.202278
H39   H     H_    0.182444 0.051151 0.309335 0.178352
H40   H     H_    0.388437 0.535813 0.794907 0.144816
H41   H     H_    0.519108 0.465267 0.207519 0.143205
H42   H     H_    0.722223 0.432589 0.733682 0.140928
H43   H     H_    0.285172 0.569953 0.263161 0.143924
H44   H     H_    0.534777 0.710217 0.565396 0.120337
N1    N     N_R   0.584450 0.204570 0.560790 -0.174144
N2    N     N_R   0.415550 0.795430 0.439210 -0.174623
O1    O     O_R   0.455540 0.022090 0.338120 -0.586340
O2    O     O_R   0.544460 0.977910 0.661880 -0.583559
O3    O     O_R   0.512510 0.160150 0.379180 -0.595166
O4    O     O_R   0.487490 0.839850 0.620820 -0.600536
O5    O     O_R   0.291160 0.930970 0.479480 -0.582152
O6    O     O_R   0.708840 0.069030 0.520520 -0.587506
O7    O     O_R   0.348130 0.069020 0.520540 -0.579733
O8    O     O_R   0.651870 0.930980 0.479460 -0.583333

loop_
_geom_bond_atom_site_label_1
_geom_bond_atom_site_label_2
_ccdc_geom_bond_type
C34   C56   A    
C8    C13   A    
C23   C45   A    
C53   H31   S    
C59   H35   S    
C14   C18   A    
Cu2   N1    S    
C47   C49   A    
C38   C49   A    
C53   C54   S    
C15   C19   A    
C57   H38   S    
C29   C36   A    
C17   C23   S    
C49   H1    S    
Cu2   O6    S    
C6    C61   A    
C35   C37   A    
C37   H43   S    
C55   H26   S    
C41   H13   S    
C46   H15   S    
Cu2   O2    S    
C4    H22   S    
C33   C36   A    
C48   H17   S    
C51   C56   A    
C39   H10   S    
C54   H29   S    
C55   H27   S    
C24   H3    S    
C16   C34   S    
Cu1   O4    S    
C23   C51   A    
C26   N2    A    
C44   C47   A    
C25   N1    A    
C5    H21   S    
C3    C60   A    
C40   C42   A    
C53   H30   S    
C13   C14   A    
C41   C43   A    
C42   C44   A    
C47   H16   S    
C19   H19   S    
C7    C11   A    
C12   O4    A    
C20   C29   A    
C57   H39   S    
C46   C48   A    
C6    H20   S    
C27   C31   A    
C9    C62   A    
C28   C32   A    
C58   H36   S    
C39   C41   A    
C1    C60   S    
C26   H44   S    
C5    C7    A    
Cu1   O8    S    
C6    C8    A    
C45   C52   A    
C58   C59   S    
C36   H42   S    
C4    C61   A    
Cu2   O7    S    
C30   C37   A    
C51   C53   S    
C2    C4    A    
C54   H28   S    
C50   H12   S    
C14   H40   S    
C31   C32   A    
C10   C19   A    
C22   N1    A    
C24   N2    A    
C58   H37   S    
C42   C56   S    
C48   C50   A    
C43   C45   S    
C22   H4    S    
C17   O8    A    
C20   C22   A    
C35   H8    S    
C11   C15   A    
C59   H33   S    
C31   C35   A    
C20   H5    S    
C59   H32   S    
C2    C10   A    
C16   O5    A    
C12   O2    A    
C62   H23   S    
C3    C62   A    
C7    C9    A    
C54   C55   S    
Cu2   O3    S    
C5    C60   A    
C3    H24   S    
C26   C28   A    
C25   H2    S    
C25   C27   A    
C21   C30   A    
C34   C52   A    
C40   H11   S    
C21   H6    S    
C32   C33   A    
C15   H41   S    
Cu1   N2    S    
C44   H14   S    
Cu1   O5    S    
C55   H25   S    
C16   O7    A    
C1    O1    A    
C38   C40   A    
C12   C61   S    
C11   C13   A    
C57   C58   S    
C27   C29   A    
C28   C30   A    
C18   H18   S    
C1    O3    A    
Cu1   O1    S    
C43   C46   A    
C52   C57   S    
C33   H7    S    
Cu1   Cu2   S    
C9    C18   A    
C39   C50   A    
C2    H34   S    
C8    C10   A    
C21   C24   A    
C17   O6    A    
C38   H9    S    
