data_mof_unit_15494.cif
_audit_creation_date              2012-12-11T17:33:17-0500
_audit_creation_method            fapswitch 2.2
_symmetry_space_group_name_H-M    P1
_symmetry_Int_Tables_number       1
_space_group_crystal_system       triclinic
_cell_length_a                    6.922898
_cell_length_b                    21.854241
_cell_length_c                    22.223365
_cell_angle_alpha                 107.598281
_cell_angle_beta                  90.51458
_cell_angle_gamma                 90.248126
_cell_volume                      3204.70467104

loop_
_atom_site_label
_atom_site_type_symbol
_atom_type_description
_atom_site_fract_x
_atom_site_fract_y
_atom_site_fract_z
_atom_type_partial_charge
O1    O     O_R   0.505730 0.449200 0.552060 -0.542940
O2    O     O_R   0.171560 0.427840 0.423150 -0.537027
O3    O     O_R   0.005630 0.550800 0.447940 -0.555451
C1    C     C_R   0.340633 0.410136 0.398555 0.827043
O4    O     O_R   0.175730 0.441570 0.550050 -0.537324
O5    O     O_R   0.009820 0.564620 0.575740 -0.539462
C2    C     C_R   0.345237 0.428290 0.568467 0.681644
O6    O     O_R   0.501530 0.435380 0.424260 -0.528766
O7    O     O_3   0.340640 0.540360 0.508280 -0.364532
V1    V     V_3+5 0.064080 0.492510 0.498460 1.468307
O8    O     O_R   0.680360 0.572160 0.576850 -0.538340
C3    C     C_R   0.851221 0.589130 0.601701 0.695035
O9    O     O_R   0.676190 0.558430 0.449950 -0.503273
C4    C     C_R   0.844867 0.571053 0.430757 0.777185
V2    V     V_3+5 0.564610 0.507490 0.501540 1.509397
O10   O     O_3   0.837920 0.459640 0.491720 -0.366976
C5    C     C_R   0.069217 0.798384 0.146515 0.326656
C6    C     C_R   0.077200 0.837940 0.106680 0.150660
C7    C     C_R   0.939900 0.887080 0.111732 -0.225143
C8    C     C_R   0.793396 0.895998 0.158079 0.144110
C9    C     C_R   0.783494 0.856019 0.197060 0.221389
C10   C     C_R   0.920202 0.807067 0.191687 -0.108625
C11   C     C_1   0.904682 0.766266 0.232563 -0.032484
C12   C     C_1   0.891417 0.732424 0.266639 -0.016159
C13   C     C_R   0.010395 0.641582 0.301251 0.224307
C14   C     C_R   0.000426 0.602288 0.340827 0.136888
C15   C     C_R   0.855783 0.612452 0.387927 -0.242322
C16   C     C_R   0.720139 0.662224 0.393621 0.360745
C17   C     C_R   0.731403 0.701773 0.353324 0.117454
C18   C     C_R   0.877275 0.691545 0.307444 -0.073297
C19   C     C_R   0.873387 0.642160 0.661934 -0.239086
C20   C     C_R   0.922157 0.857885 0.837987 -0.237812
C21   C     C_R   0.778769 0.819428 0.731480 0.470464
C22   C     C_R   0.818105 0.869670 0.787639 0.034050
C23   C     C_R   0.986915 0.794951 0.832231 0.348509
C24   C     C_R   0.951007 0.744035 0.775252 -0.081447
C25   C     C_R   0.844472 0.756165 0.724761 -0.104330
C26   C     C_R   0.807816 0.705081 0.667819 0.367402
C27   C     C_R   0.978599 0.630759 0.712151 0.083155
C28   C     C_R   0.016791 0.680675 0.767969 0.274218
C29   C     C_R   0.358103 0.358585 0.336802 -0.172985
C30   C     C_R   0.436272 0.142030 0.163210 -0.101010
C31   C     C_R   0.271470 0.181027 0.265087 0.356126
C32   C     C_R   0.320813 0.130289 0.210328 0.041314
C33   C     C_R   0.505219 0.204615 0.170440 0.131091
C34   C     C_R   0.456643 0.257195 0.225422 -0.025498
C35   C     C_R   0.345088 0.244115 0.274099 -0.085055
C36   C     C_R   0.306484 0.294913 0.330985 0.286366
C37   C     C_R   0.457550 0.372660 0.287835 0.241419
C38   C     C_R   0.511709 0.322410 0.233003 0.145166
C39   C     C_R   0.556171 0.207384 0.859689 0.337394
C40   C     C_R   0.560216 0.169611 0.900955 0.337185
C41   C     C_R   0.438845 0.114488 0.889891 -0.300911
C42   C     C_R   0.309166 0.099522 0.837344 0.078133
C43   C     C_R   0.300413 0.139169 0.797213 0.406026
C44   C     C_R   0.423398 0.192825 0.808258 -0.157392
C45   C     C_1   0.407196 0.233380 0.766987 0.084833
C46   C     C_1   0.393545 0.267318 0.732888 0.001356
C47   C     C_R   0.492560 0.364958 0.704962 0.243378
C48   C     C_R   0.481128 0.403703 0.664662 0.194757
C49   C     C_R   0.357575 0.386228 0.610481 -0.249893
C50   C     C_R   0.245514 0.328807 0.598280 0.330963
C51   C     C_R   0.256304 0.291682 0.639872 -0.126864
H1    H     H_    0.170306 0.248117 0.629937 0.172714
C52   C     C_R   0.380086 0.308596 0.692488 -0.083976
O11   O     O_R   0.294110 0.064720 0.075690 -0.529492
O12   O     O_R   0.619980 0.058360 0.949870 -0.536612
O13   O     O_R   0.785810 0.935300 0.924300 -0.539059
C53   C     C_R   0.450505 0.071731 0.931437 0.719962
O14   O     O_R   0.624080 0.072230 0.076800 -0.538298
O15   O     O_R   0.789930 0.949270 0.052130 -0.553087
C54   C     C_R   0.454963 0.089812 0.101624 0.807657
O16   O     O_R   0.289980 0.050750 0.947860 -0.538144
O17   O     O_3   0.454970 0.959660 0.991750 -0.366066
V3    V     V_3+5 0.731560 0.007480 0.001530 1.441678
O18   O     O_R   0.119360 0.941610 0.050140 -0.512135
C55   C     C_R   0.950666 0.928867 0.069222 0.762727
O19   O     O_R   0.115260 0.927740 0.923220 -0.536119
C56   C     C_R   0.944406 0.910802 0.898339 0.711623
V4    V     V_3+5 0.231020 0.992470 0.998490 1.474092
O20   O     O_3   0.957740 0.040330 0.008250 -0.364700
O21   O     O_3   0.209624 0.751777 0.138906 -0.642494
H2    H     H_    0.194356 0.728507 0.170418 0.294958
N1    N     N_3   0.049466 0.567871 0.707848 -0.666645
H3    H     H_    0.935606 0.534874 0.695304 0.244322
H4    H     H_    0.156191 0.555273 0.673457 0.239196
O22   O     O_3   0.674538 0.830898 0.682458 -0.584976
H5    H     H_    0.631644 0.875965 0.693395 0.337642
N2    N     N_3   0.126612 0.666254 0.817075 -0.555556
H6    H     H_    0.260946 0.648276 0.799088 0.249098
H7    H     H_    0.053281 0.630846 0.830881 0.259315
N3    N     N_3   0.751756 0.933236 0.792565 -0.676894
H8    H     H_    0.644705 0.946323 0.826811 0.244008
H9    H     H_    0.867572 0.965422 0.805330 0.245534
O23   O     O_3   0.081755 0.781602 0.881910 -0.607827
H10   H     H_    0.050605 0.813915 0.922440 0.291339
O24   O     O_3   0.230185 0.283316 0.383568 -0.618943
H11   H     H_    0.307563 0.248439 0.391585 0.329376
O25   O     O_3   0.504646 0.436576 0.296769 -0.645186
H12   H     H_    0.564585 0.442606 0.258862 0.302113
O26   O     O_3   0.142209 0.171452 0.308718 -0.621276
H13   H     H_    0.102454 0.126026 0.298385 0.299722
N4    N     N_3   0.623762 0.337888 0.185565 -0.684681
H14   H     H_    0.544161 0.368082 0.166265 0.243648
H15   H     H_    0.752505 0.360412 0.205773 0.241411
N5    N     N_3   0.253508 0.065748 0.201213 -0.670709
H16   H     H_    0.300656 0.050366 0.239040 0.247801
H17   H     H_    0.102601 0.064608 0.198507 0.225005
N6    N     N_3   0.224374 0.827003 0.059618 -0.626267
H18   H     H_    0.210329 0.779879 0.029876 0.266002
H19   H     H_    0.359190 0.831776 0.082229 0.259096
N7    N     N_3   0.618509 0.212801 0.119656 -0.666099
H20   H     H_    0.755521 0.230522 0.136453 0.279939
H21   H     H_    0.546328 0.242730 0.098215 0.269622
O27   O     O_3   0.681957 0.259296 0.872985 -0.595810
H22   H     H_    0.673927 0.280664 0.839695 0.290450
O28   O     O_3   0.684190 0.189278 0.952360 -0.596664
H23   H     H_    0.633096 0.174450 0.986986 0.298019
N8    N     N_3   0.188276 0.043346 0.822953 -0.675496
H24   H     H_    0.273079 0.003232 0.820626 0.236414
H25   H     H_    0.085863 0.049534 0.858483 0.250402
O29   O     O_3   0.173280 0.126916 0.746375 -0.623611
H26   H     H_    0.088759 0.089894 0.744901 0.336857
N9    N     N_3   0.620799 0.383766 0.758579 -0.603680
H27   H     H_    0.539917 0.388946 0.799308 0.236186
H28   H     H_    0.720599 0.347009 0.754591 0.228091
N10   N     N_3   0.595128 0.461443 0.680627 -0.614327
H29   H     H_    0.505688 0.500247 0.681950 0.217589
H30   H     H_    0.699659 0.456896 0.645996 0.233820
O30   O     O_3   0.127332 0.305949 0.545796 -0.620718
H31   H     H_    0.168256 0.324792 0.512704 0.317778
N11   N     N_3   0.654911 0.946755 0.168264 -0.603010
H32   H     H_    0.561308 0.937270 0.129353 0.252113
H33   H     H_    0.727402 0.990307 0.174273 0.219535
N12   N     N_3   0.631123 0.866058 0.242365 -0.602581
H34   H     H_    0.692980 0.875507 0.287377 0.232897
H35   H     H_    0.549098 0.823839 0.232796 0.240011
N13   N     N_3   0.158879 0.629806 0.254534 -0.599408
H36   H     H_    0.243486 0.671332 0.262879 0.222669
H37   H     H_    0.093269 0.620419 0.210073 0.235764
N14   N     N_3   0.136923 0.550957 0.330579 -0.580093
H38   H     H_    0.063002 0.507837 0.325529 0.225592
H39   H     H_    0.232321 0.560595 0.369056 0.265300
O31   O     O_3   0.581578 0.671876 0.440056 -0.629385
H40   H     H_    0.493529 0.706826 0.438331 0.337710
N15   N     N_3   0.594927 0.752595 0.359769 -0.670232
H41   H     H_    0.670789 0.796081 0.370104 0.248500
H42   H     H_    0.522593 0.745113 0.316615 0.234808
O32   O     O_3   0.711475 0.718314 0.618325 -0.582493
H43   H     H_    0.741522 0.685872 0.577766 0.302928

loop_
_geom_bond_atom_site_label_1
_geom_bond_atom_site_label_2
_ccdc_geom_bond_type
C43   C44   A    
C51   C52   A    
O26   H13   S    
C50   O30   S    
O23   H10   S    
C6    N6    S    
C1    O6    A    
C41   C53   S    
N7    H21   S    
O24   H11   S    
C33   N7    S    
O32   H43   S    
N12   H34   S    
C33   C34   A    
O13   V3    S    
C36   O24   S    
C14   C15   A    
C50   C51   A    
C9    C10   A    
C16   C17   A    
N1    H4    S    
C27   N1    S    
C5    O21   S    
N6    H19   S    
O5    C3    A    
O19   V4    S    
N5    H16   S    
V2    O10   S    
C13   C18   A    
C44   C45   S    
C6    C7    A    
C7    C55   S    
C2    C49   S    
N4    H14   S    
C42   C43   A    
O8    V2    S    
C29   C36   A    
O11   C54   A    
C7    C8    A    
N11   H32   S    
C11   C12   T    
C53   O16   A    
C16   O31   S    
C4    C15   S    
N2    H7    S    
C14   N14   S    
O7    V1    S    
C26   O32   S    
C40   O28   S    
O13   C56   A    
C43   O29   S    
C47   C48   A    
O17   V4    S    
O9    C4    A    
C30   C32   A    
N10   H30   S    
C8    N11   S    
C29   C37   A    
N7    H20   S    
C5    C6    A    
N15   H42   S    
N8    H25   S    
O17   V3    S    
C39   C40   A    
C20   C23   A    
O18   V4    S    
C24   C28   A    
N1    H3    S    
N2    H6    S    
C17   N15   S    
O4    C2    A    
O19   C56   A    
V3    O20   S    
C13   C14   A    
C41   C42   A    
C21   C25   A    
C48   C49   A    
O12   C53   A    
C23   C24   A    
C20   C22   A    
O2    C1    A    
C31   C32   A    
C31   O26   S    
C25   C26   A    
C37   O25   S    
C46   C52   S    
C35   C36   A    
N8    H24   S    
N3    H9    S    
C21   C22   A    
N4    H15   S    
O18   C55   A    
O3    C4    A    
N13   H37   S    
O1    V2    S    
O21   H2    S    
O6    V2    S    
C32   N5    S    
O9    V2    S    
C3    C19   S    
C28   N2    S    
C12   C18   S    
O12   V3    S    
N10   H29   S    
O2    V1    S    
O15   C55   A    
C40   C41   A    
N9    H28   S    
N15   H41   S    
C47   N9    S    
N12   H35   S    
C34   C35   A    
C24   C25   A    
O1    C2    A    
C48   N10   S    
C39   C44   A    
V4    O20   S    
O5    V1    S    
O8    C3    A    
C19   C26   A    
C23   O23   S    
O11   V4    S    
C34   C38   A    
O28   H23   S    
C5    C10   A    
O25   H12   S    
O31   H40   S    
N14   H39   S    
O30   H31   S    
O7    V2    S    
O4    V1    S    
O3    V1    S    
V1    O10   S    
N14   H38   S    
C47   C52   A    
C20   C56   S    
O15   V3    S    
C45   C46   T    
N5    H17   S    
N3    H8    S    
O16   V4    S    
C19   C27   A    
C13   N13   S    
C21   O22   S    
C49   C50   A    
C39   O27   S    
N13   H36   S    
C30   C33   A    
C17   C18   A    
C51   H1    S    
C27   C28   A    
C38   N4    S    
C8    C9    A    
O22   H5    S    
N11   H33   S    
C37   C38   A    
C1    C29   S    
N6    H18   S    
O14   V3    S    
O29   H26   S    
C10   C11   S    
O14   C54   A    
C30   C54   S    
C42   N8    S    
C31   C35   A    
C9    N12   S    
O27   H22   S    
N9    H27   S    
C15   C16   A    
C22   N3    S    
