data_mof_unit_28932.cif
_audit_creation_date              2012-12-10T19:16:51-0500
_audit_creation_method            fapswitch 2.2
_symmetry_space_group_name_H-M    P1
_symmetry_Int_Tables_number       1
_space_group_crystal_system       triclinic
_cell_length_a                    15.955309
_cell_length_b                    14.751465
_cell_length_c                    10.899063
_cell_angle_alpha                 90.053216
_cell_angle_beta                  89.816421
_cell_angle_gamma                 90.095418
_cell_volume                      2565.23123216

loop_
_atom_site_label
_atom_site_type_symbol
_atom_type_description
_atom_site_fract_x
_atom_site_fract_y
_atom_site_fract_z
_atom_type_partial_charge
C1    C     C_R   0.340942 0.499844 0.495318 0.851237
C2    C     C_3   0.579875 0.569172 0.927372 0.010694
C3    C     C_R   0.956699 0.577190 0.440737 -0.183461
C4    C     C_R   0.956166 0.422097 0.515019 -0.200971
C5    C     C_R   0.912794 0.499804 0.478472 0.166657
C6    C     C_R   0.043528 0.421672 0.513643 -0.200212
C7    C     C_R   0.044170 0.576770 0.439510 -0.205539
C8    C     C_R   0.087493 0.498737 0.475145 0.152792
C9    C     C_1   0.823280 0.500597 0.482984 -0.083535
C10   C     C_1   0.177016 0.498943 0.478390 -0.077050
C11   C     C_1   0.252037 0.499277 0.485094 -0.146923
C12   C     C_1   0.748198 0.500522 0.488701 -0.176264
C13   C     C_R   0.569843 0.952291 0.495754 -0.202705
C14   C     C_R   0.570258 0.047518 0.498202 -0.204671
C15   C     C_R   0.502316 0.499739 0.259990 0.797210
C16   C     C_R   0.494593 0.902980 0.500649 -0.002861
C17   C     C_R   0.495344 0.097202 0.497111 -0.002616
C18   C     C_R   0.417917 0.951826 0.505690 -0.028796
C19   C     C_R   0.418146 0.049052 0.496941 -0.019353
C20   C     C_1   0.497534 0.802669 0.500101 0.131333
C21   C     C_1   0.498504 0.197373 0.498963 0.139618
C22   C     C_R   0.659120 0.500125 0.496145 0.819603
C23   C     C_R   0.502196 0.499861 0.740930 0.755099
C24   C     C_3   0.413635 0.519688 0.074345 -0.203541
C25   C     C_3   0.525550 0.400097 0.074996 -0.181826
C26   C     C_3   0.419189 0.535729 0.934048 -0.180741
C27   C     C_3   0.530243 0.400253 0.932925 -0.193793
C28   C     C_3   0.570089 0.568138 0.073357 -0.427178
C29   C     C_3   0.503789 0.498574 0.123600 0.007707
C30   C     C_3   0.506637 0.499474 0.878794 -0.039274
Cu1   Cu    Cu3+1 0.500000 0.589220 0.500040 0.964779
Cu2   Cu    Cu3+1 0.500000 0.410780 0.500040 0.974936
H1    H     H_    0.379359 0.455764 0.088833 0.118499
H2    H     H_    0.470219 0.357295 0.098182 0.131166
H3    H     H_    0.423862 0.609485 0.927280 0.155821
H4    H     H_    0.596581 0.390889 0.913039 0.153110
H5    H     H_    0.558222 0.636093 0.110276 0.157119
H6    H     H_    0.629327 0.552501 0.120812 0.146068
H7    H     H_    0.077881 0.637356 0.412329 0.130513
H8    H     H_    0.076753 0.362010 0.544458 0.131356
H9    H     H_    0.923406 0.637842 0.413511 0.129806
H10   H     H_    0.922503 0.362358 0.545621 0.127172
H11   H     H_    0.629893 0.082656 0.499591 0.132796
H12   H     H_    0.629167 0.916802 0.492798 0.130793
N1    N     N_1   0.499980 0.276710 0.500040 -0.149866
N2    N     N_1   0.499980 0.723290 0.500040 -0.156084
O1    O     O_R   0.380310 0.575320 0.500060 -0.560505
O2    O     O_R   0.380310 0.424680 0.500060 -0.573633
O3    O     O_R   0.499990 0.575340 0.317720 -0.589266
O4    O     O_R   0.499990 0.424660 0.317720 -0.586283
O5    O     O_R   0.619690 0.575360 0.500000 -0.587721
O6    O     O_R   0.619690 0.424640 0.500000 -0.566688
O7    O     O_R   0.500010 0.575340 0.682340 -0.580037
O8    O     O_R   0.500010 0.424660 0.682340 -0.580794
C31   C     C_R   0.355670 0.588040 0.140499 0.105327
C32   C     C_R   0.270198 0.564951 0.156127 -0.137214
C33   C     C_R   0.212528 0.627535 0.201582 -0.134925
C34   C     C_R   0.238978 0.713830 0.235561 -0.110783
C35   C     C_R   0.323553 0.736754 0.227237 -0.125206
C36   C     C_R   0.381400 0.674489 0.180918 -0.099496
H13   H     H_    0.247060 0.498527 0.131450 0.120964
H14   H     H_    0.147069 0.609136 0.209275 0.128428
H15   H     H_    0.193851 0.762535 0.268651 0.117993
H16   H     H_    0.344697 0.803064 0.256146 0.121627
H17   H     H_    0.445800 0.694630 0.181704 0.123926
C37   C     C_R   0.599083 0.349336 0.136700 0.122417
C38   C     C_R   0.582239 0.268435 0.201892 -0.084094
C39   C     C_R   0.646813 0.219040 0.256196 -0.141311
C40   C     C_R   0.729323 0.249474 0.248138 -0.115821
C41   C     C_R   0.747582 0.328366 0.183167 -0.133105
C42   C     C_R   0.683375 0.377097 0.126703 -0.179110
H18   H     H_    0.518880 0.242670 0.210172 0.106524
H19   H     H_    0.632822 0.156670 0.303771 0.122187
H20   H     H_    0.779211 0.211277 0.290768 0.117858
H21   H     H_    0.811859 0.351235 0.174892 0.133848
H22   H     H_    0.701316 0.434517 0.073585 0.156033
C43   C     C_R   0.338742 0.902119 0.530587 0.098219
C44   C     C_R   0.328036 0.858756 0.644320 -0.149267
C45   C     C_R   0.250887 0.820235 0.675569 -0.153103
C46   C     C_R   0.184012 0.823947 0.593328 -0.116827
C47   C     C_R   0.194191 0.866584 0.479871 -0.133275
C48   C     C_R   0.271445 0.904923 0.447867 -0.134640
H23   H     H_    0.378690 0.857253 0.710220 0.129627
H24   H     H_    0.242655 0.788683 0.764388 0.127395
H25   H     H_    0.124119 0.794453 0.617918 0.116836
H26   H     H_    0.141881 0.870722 0.417198 0.112275
H27   H     H_    0.278124 0.938974 0.360393 0.119519
C49   C     C_R   0.338619 0.100703 0.482554 0.099382
C50   C     C_R   0.326058 0.153144 0.376467 -0.146228
C51   C     C_R   0.251408 0.200994 0.360270 -0.120862
C52   C     C_R   0.188379 0.196436 0.449224 -0.111410
C53   C     C_R   0.200184 0.144699 0.555052 -0.149094
C54   C     C_R   0.274943 0.097039 0.571870 -0.139849
H28   H     H_    0.373932 0.156428 0.305892 0.111484
H29   H     H_    0.242216 0.241133 0.278333 0.117426
H30   H     H_    0.130238 0.232567 0.435694 0.115894
H31   H     H_    0.151326 0.141361 0.624013 0.121906
H32   H     H_    0.283008 0.057347 0.654411 0.125002
C55   C     C_R   0.335353 0.518359 0.867578 0.095046
C56   C     C_R   0.304639 0.585809 0.787646 -0.138415
C57   C     C_R   0.221724 0.583913 0.746695 -0.138411
C58   C     C_R   0.168191 0.513843 0.781815 -0.104993
C59   C     C_R   0.197530 0.445005 0.857387 -0.147503
C60   C     C_R   0.279604 0.447620 0.901296 -0.172027
H33   H     H_    0.344021 0.642250 0.760490 0.143511
H34   H     H_    0.198847 0.636479 0.686588 0.138990
H35   H     H_    0.104058 0.512641 0.749832 0.131604
H36   H     H_    0.156112 0.390225 0.884050 0.120531
H37   H     H_    0.298476 0.393397 0.961592 0.108612
C61   C     C_R   0.494922 0.310001 0.882310 0.122221
C62   C     C_R   0.417671 0.301190 0.822134 -0.077378
C63   C     C_R   0.385910 0.216372 0.789675 -0.160415
C64   C     C_R   0.432105 0.138104 0.812639 -0.118179
C65   C     C_R   0.510728 0.145035 0.866925 -0.136727
C66   C     C_R   0.541883 0.229896 0.901300 -0.168326
H38   H     H_    0.383651 0.359155 0.792760 0.153671
H39   H     H_    0.325594 0.212142 0.745492 0.140472
H40   H     H_    0.407775 0.072326 0.786742 0.120779
H41   H     H_    0.547464 0.084604 0.883062 0.123744
H42   H     H_    0.603206 0.232811 0.943174 0.136860
C67   C     C_R   0.573167 0.668935 0.873369 0.109016
C68   C     C_R   0.525059 0.739079 0.927944 -0.183622
C69   C     C_R   0.528000 0.828436 0.885777 -0.154641
C70   C     C_R   0.579642 0.851667 0.787991 -0.130642
C71   C     C_R   0.626362 0.784895 0.729465 -0.140462
C72   C     C_R   0.622056 0.695116 0.769388 -0.044142
H43   H     H_    0.483930 0.727089 0.002945 0.112920
H44   H     H_    0.490436 0.880088 0.930138 0.123449
H45   H     H_    0.582721 0.921240 0.756919 0.136262
H46   H     H_    0.665875 0.802382 0.652147 0.116298
H47   H     H_    0.658730 0.646439 0.718433 0.143099
C73   C     C_R   0.673269 0.542037 0.899089 0.059502
C74   C     C_R   0.698306 0.480523 0.805889 -0.212495
C75   C     C_R   0.782779 0.459963 0.786185 -0.120082
C76   C     C_R   0.844982 0.505026 0.851592 -0.106472
C77   C     C_R   0.822877 0.571393 0.936480 -0.144264
C78   C     C_R   0.738506 0.590685 0.958715 -0.161222
H48   H     H_    0.653765 0.446556 0.748131 0.135931
H49   H     H_    0.800071 0.409611 0.718477 0.131437
H50   H     H_    0.910351 0.489725 0.834725 0.120245
H51   H     H_    0.871184 0.608350 0.984992 0.125600
H52   H     H_    0.723940 0.644410 0.023057 0.130443

loop_
_geom_bond_atom_site_label_1
_geom_bond_atom_site_label_2
_ccdc_geom_bond_type
C31   C32   A    
C57   C58   A    
Cu2   N1    S    
C62   C63   A    
C1    C11   S    
C78   H52   S    
C47   C48   A    
C51   C52   A    
C76   C77   A    
C43   C44   A    
C24   C31   S    
C56   H33   S    
C77   H51   S    
C72   H47   S    
C53   C54   A    
C28   C29   S    
C24   C26   S    
C18   C19   A    
C3    C7    A    
C60   H37   S    
C22   O5    A    
C48   H27   S    
C12   C22   S    
C68   H43   S    
C32   C33   A    
C38   H18   S    
C15   O4    A    
C50   H28   S    
C61   C62   A    
Cu2   O6    S    
C43   C48   A    
C52   H30   S    
C24   C29   S    
C44   H23   S    
Cu1   Cu2   S    
C27   C61   S    
C73   C74   A    
Cu1   N2    S    
C2    C73   S    
C15   C29   S    
C41   C42   A    
C47   H26   S    
C26   C55   S    
C55   C60   A    
C74   H48   S    
C35   C36   A    
Cu1   O1    S    
C31   C36   A    
C27   C30   S    
Cu2   O2    S    
C14   C17   A    
C58   C59   A    
Cu1   O3    S    
C71   H46   S    
Cu2   O8    S    
C63   C64   A    
C53   H31   S    
C23   O7    A    
C21   N1    T    
C25   C29   S    
C76   H50   S    
C70   C71   A    
C38   C39   A    
C23   C30   S    
C69   C70   A    
C4    C6    A    
C19   C49   S    
C52   C53   A    
C44   C45   A    
C1    O1    A    
C6    C8    A    
C33   H14   S    
C39   H19   S    
C17   C21   S    
C45   C46   A    
C5    C9    S    
C46   H25   S    
C74   C75   A    
C37   C42   A    
C28   H6    S    
C16   C20   S    
C35   H16   S    
C58   H35   S    
Cu1   O7    S    
Cu2   O4    S    
C67   C68   A    
C62   H38   S    
C16   C18   A    
C36   H17   S    
C26   C30   S    
C71   C72   A    
C6    H8    S    
C50   C51   A    
C42   H22   S    
C75   H49   S    
C23   O8    A    
C22   O6    A    
C64   C65   A    
C2    C67   S    
C57   H34   S    
C49   C54   A    
C3    H9    S    
C32   H13   S    
C39   C40   A    
C25   C37   S    
C34   H15   S    
Cu1   O5    S    
C46   C47   A    
C3    C5    A    
C51   H29   S    
C1    O2    A    
C65   C66   A    
C75   C76   A    
C27   H4    S    
C25   C27   S    
C25   H2    S    
C24   H1    S    
C55   C56   A    
C63   H39   S    
C2    C30   S    
C34   C35   A    
C67   C72   A    
C33   C34   A    
C45   H24   S    
C65   H41   S    
C4    H10   S    
C28   H5    S    
C18   C43   S    
C61   C66   A    
C56   C57   A    
C17   C19   A    
C70   H45   S    
C37   C38   A    
C15   O3    A    
C40   C41   A    
C9    C12   T    
C7    C8    A    
C10   C11   T    
C64   H40   S    
C26   H3    S    
C4    C5    A    
C49   C50   A    
C41   H21   S    
C8    C10   S    
C66   H42   S    
C13   C16   A    
C69   H44   S    
C59   C60   A    
C7    H7    S    
C40   H20   S    
C77   C78   A    
C59   H36   S    
C2    C28   S    
C73   C78   A    
C68   C69   A    
C13   C14   A    
C54   H32   S    
C13   H12   S    
C20   N2    T    
C14   H11   S    
