data_mof_unit_30430.cif
_audit_creation_date              2012-12-11T15:37:06-0500
_audit_creation_method            fapswitch 2.2
_symmetry_space_group_name_H-M    P1
_symmetry_Int_Tables_number       1
_space_group_crystal_system       triclinic
_cell_length_a                    15.06376
_cell_length_b                    15.061308
_cell_length_c                    34.760209
_cell_angle_alpha                 91.394647
_cell_angle_beta                  91.739549
_cell_angle_gamma                 60.144796
_cell_volume                      6836.2211983

loop_
_atom_site_label
_atom_site_type_symbol
_atom_type_description
_atom_site_fract_x
_atom_site_fract_y
_atom_site_fract_z
_atom_type_partial_charge
C1    C     C_R   0.610473 0.303081 0.443897 0.543080
C2    C     C_R   0.568022 0.135167 0.767339 -0.125892
C3    C     C_R   0.112054 0.755071 0.889966 -0.122616
C4    C     C_R   0.149864 0.739305 0.852874 -0.119773
C5    C     C_R   0.146779 0.664720 0.828838 0.039197
C6    C     C_R   0.110872 0.602231 0.843054 -0.105135
C7    C     C_R   0.074665 0.616819 0.880294 -0.132037
C8    C     C_R   0.228525 0.566611 0.768344 0.147355
C9    C     C_R   0.233520 0.566397 0.728050 -0.091419
C10   C     C_R   0.179795 0.657720 0.707359 -0.002743
C11   C     C_R   0.123000 0.750662 0.726932 -0.133246
C12   C     C_R   0.116896 0.752118 0.766729 -0.149228
C13   C     C_R   0.585059 0.199354 0.792772 0.020659
C14   C     C_R   0.655215 0.771484 0.165128 -0.127718
C15   C     C_R   0.167919 0.660776 0.787618 0.033183
C16   C     C_R   0.212952 0.721550 0.647276 -0.121808
C17   C     C_R   0.240067 0.705998 0.608763 -0.129985
C18   C     C_R   0.207254 0.563759 0.605151 -0.126109
C19   C     C_R   0.180135 0.579413 0.643621 -0.123054
C20   C     C_R   0.187568 0.655211 0.665331 0.032606
C21   C     C_R   0.242495 0.623587 0.588004 0.022690
C22   C     C_R   0.672163 0.088719 0.907706 0.020024
C23   C     C_R   0.578741 0.103604 0.892110 -0.136201
C24   C     C_R   0.536135 0.217928 0.644199 -0.122413
C25   C     C_R   0.546359 0.144407 0.855136 -0.119620
C26   C     C_3   0.007483 0.497734 0.118232 -0.295121
C27   C     C_3   0.173636 0.907845 0.404264 -0.316943
C28   C     C_2   0.536363 0.374913 0.198256 0.207899
C29   C     C_3   0.952986 0.446719 0.386185 -0.319734
C30   C     C_2   0.519310 0.169256 0.161508 0.207954
C31   C     C_3   0.492150 0.915489 0.900197 -0.294685
C32   C     C_2   0.504987 0.577121 0.806218 0.183379
C33   C     C_3   0.322509 0.376032 0.771221 -0.314759
C34   C     C_R   0.820314 0.617171 0.161779 -0.094959
C35   C     C_R   0.541673 0.234550 0.605219 -0.123923
C36   C     C_R   0.690956 0.252113 0.618711 -0.125000
C37   C     C_R   0.685012 0.236058 0.657685 -0.119335
C38   C     C_R   0.605418 0.222468 0.670944 0.031692
C39   C     C_R   0.616821 0.255689 0.592302 0.020965
C40   C     C_R   0.046474 0.738661 0.048200 0.544020
C41   C     C_R   0.738253 0.689378 0.183501 -0.001116
C42   C     C_R   0.747380 0.746378 0.064168 0.549613
C43   C     C_R   0.750824 0.040896 0.050595 0.541172
C44   C     C_R   0.017668 0.722085 0.939946 0.542966
C45   C     C_R   0.717216 0.729405 0.954794 0.554343
C46   C     C_R   0.823227 0.629586 0.121903 0.138541
C47   C     C_R   0.720936 0.026379 0.942425 0.539411
C48   C     C_R   0.761973 0.586414 0.241843 -0.114516
C49   C     C_R   0.755330 0.579654 0.281426 -0.101859
C50   C     C_R   0.727188 0.665813 0.305269 0.022252
C51   C     C_R   0.708111 0.758239 0.289113 -0.125050
C52   C     C_R   0.605307 0.174370 0.834113 0.038649
C53   C     C_R   0.714056 0.765209 0.249474 -0.114021
C54   C     C_R   0.739211 0.679812 0.225535 0.028817
C55   C     C_R   0.606468 0.732613 0.358673 -0.147129
C56   C     C_R   0.593507 0.610359 0.449530 0.545966
C57   C     C_R   0.572495 0.719365 0.393586 -0.138300
C58   C     C_R   0.737116 0.567837 0.405245 -0.093308
C59   C     C_R   0.773782 0.581559 0.370308 0.155459
C60   C     C_R   0.704747 0.661987 0.345968 0.032440
C61   C     C_R   0.635848 0.634444 0.416313 -0.010846
C62   C     C_R   0.107903 0.726163 0.083492 0.023662
C63   C     C_R   0.692891 0.169013 0.851514 -0.106041
C64   C     C_R   0.162936 0.629220 0.100400 -0.124511
C65   C     C_R   0.192983 0.620380 0.139010 -0.113292
C66   C     C_R   0.168975 0.708221 0.161182 0.033542
C67   C     C_R   0.124922 0.803778 0.143261 -0.122418
C68   C     C_R   0.303192 0.591728 0.442461 0.539553
C69   C     C_R   0.094541 0.812765 0.104517 -0.124723
C70   C     C_R   0.221092 0.748010 0.225521 -0.090963
C71   C     C_R   0.226415 0.740315 0.265607 -0.099580
C72   C     C_R   0.185170 0.687224 0.284053 0.033342
C73   C     C_R   0.136501 0.644209 0.261809 -0.106335
C74   C     C_R   0.725916 0.126733 0.887736 -0.114910
C75   C     C_R   0.132244 0.650921 0.221905 -0.101797
C76   C     C_R   0.175675 0.701591 0.203432 0.044083
C77   C     C_R   0.227832 0.573127 0.340305 -0.132233
C78   C     C_R   0.252745 0.551920 0.378976 -0.156637
C79   C     C_R   0.214562 0.727592 0.391188 0.145353
C80   C     C_R   0.604932 0.301696 0.554110 0.541720
C81   C     C_R   0.190170 0.747483 0.351593 -0.089465
C82   C     C_R   0.199548 0.669883 0.326009 0.002043
C83   C     C_R   0.251171 0.626522 0.404481 0.025483
C84   C     C_R   0.720696 0.102845 0.086245 -0.007773
C85   C     C_R   0.599081 0.277169 0.777739 -0.121746
C86   C     C_R   0.789144 0.126733 0.105674 -0.134359
C87   C     C_R   0.771068 0.162810 0.143508 -0.136171
C88   C     C_R   0.684519 0.175584 0.162430 -0.030932
C89   C     C_R   0.611129 0.158652 0.142313 0.015605
C90   C     C_R   0.629595 0.124002 0.104042 -0.089556
C91   C     C_R   0.606044 0.284243 0.221728 0.011447
C92   C     C_R   0.586104 0.605559 0.559696 0.539112
C93   C     C_R   0.598497 0.288862 0.261956 -0.082881
C94   C     C_R   0.664271 0.204121 0.284602 -0.001994
C95   C     C_R   0.740000 0.114852 0.267133 -0.126398
C96   C     C_R   0.602993 0.286152 0.738101 -0.128763
C97   C     C_R   0.747419 0.108670 0.227299 -0.127271
C98   C     C_R   0.680039 0.191872 0.204381 -0.030087
C99   C     C_R   0.739763 0.187246 0.350550 -0.116480
C100  C     C_R   0.727130 0.209307 0.389854 -0.125203
C101  C     C_R   0.545657 0.268184 0.382145 -0.127592
C102  C     C_R   0.558134 0.247455 0.342828 -0.125011
C103  C     C_R   0.654491 0.210497 0.326627 0.028411
C104  C     C_R   0.298248 0.589167 0.551837 0.539729
C105  C     C_R   0.629193 0.253877 0.405669 0.022425
C106  C     C_R   0.692143 0.683160 0.920642 0.039663
C107  C     C_R   0.592446 0.217830 0.712709 0.022567
C108  C     C_R   0.771547 0.592915 0.904220 -0.164727
C109  C     C_R   0.759700 0.559095 0.867745 -0.132733
C110  C     C_R   0.667891 0.613893 0.846715 0.057965
C111  C     C_R   0.584890 0.697689 0.864313 -0.054387
C112  C     C_R   0.595837 0.732546 0.901109 0.128597
C113  C     C_R   0.582858 0.589697 0.785600 0.020038
C114  C     C_R   0.575695 0.593483 0.745164 -0.152115
C115  C     C_R   0.650174 0.598603 0.723457 0.015422
C116  C     C_R   0.740663 0.716215 0.103798 0.026089
C117  C     C_R   0.734142 0.597057 0.742340 -0.123846
C118  C     C_R   0.571479 0.144482 0.727582 -0.122933
C119  C     C_R   0.740778 0.596532 0.782389 -0.144929
C120  C     C_R   0.664686 0.595542 0.804623 0.042071
C121  C     C_R   0.719292 0.540639 0.657254 -0.122800
C122  C     C_R   0.705214 0.544624 0.617216 -0.129475
C123  C     C_R   0.533504 0.688063 0.624372 -0.124334
C124  C     C_R   0.546979 0.682744 0.664314 -0.121009
C125  C     C_R   0.639053 0.607617 0.681104 0.033587
C126  C     C_R   0.611215 0.616904 0.600372 0.022261
C127  C     C_R   0.071783 0.695633 0.903513 0.026004
C128  C     C_R   0.656005 0.784332 0.125756 -0.148279
Cr1   Cr    Cr6+3 0.426010 0.422500 0.497000 1.005636
Cr2   Cr    Cr6+3 0.651300 0.426310 0.501970 1.006892
Cr3   Cr    Cr6+3 0.422670 0.651170 0.501050 1.021437
Cr4   Cr    Cr6+3 0.905130 0.911420 0.992650 1.011923
Cr5   Cr    Cr6+3 0.911860 0.682710 0.002320 1.021627
Cr6   Cr    Cr6+3 0.682710 0.906840 0.004710 1.030128
H1    H     H_    0.591721 0.850912 0.112859 0.154907
H2    H     H_    0.228696 0.545708 0.152257 0.129939
H3    H     H_    0.102307 0.604663 0.275281 0.101628
H4    H     H_    0.094218 0.617067 0.205387 0.099550
H5    H     H_    0.236326 0.511638 0.321184 0.115487
H6    H     H_    0.279963 0.474295 0.388303 0.128574
H7    H     H_    0.105977 0.872408 0.159943 0.103249
H8    H     H_    0.859923 0.111165 0.092622 0.130424
H9    H     H_    0.576013 0.106637 0.088920 0.173375
H10   H     H_    0.491799 0.264321 0.324770 0.106911
H11   H     H_    0.541798 0.358673 0.275862 0.159697
H12   H     H_    0.494296 0.772202 0.401557 0.144015
H13   H     H_    0.827730 0.175167 0.158876 0.118293
H14   H     H_    0.791575 0.049103 0.284269 0.109823
H15   H     H_    0.804183 0.037616 0.214130 0.121561
H16   H     H_    0.814814 0.158294 0.338477 0.105381
H17   H     H_    0.792797 0.197283 0.407390 0.121761
H18   H     H_    0.469236 0.302528 0.393490 0.124412
H19   H     H_    0.845882 0.551520 0.918425 0.132990
H20   H     H_    0.484626 0.736082 0.682194 0.103359
H21   H     H_    0.767915 0.508322 0.293265 0.138472
H22   H     H_    0.512430 0.591145 0.730380 0.095763
H23   H     H_    0.882816 0.552730 0.176347 0.104814
H24   H     H_    0.824581 0.493514 0.854913 0.110051
H25   H     H_    0.792408 0.600861 0.726111 0.111065
H26   H     H_    0.803621 0.601684 0.796126 0.107573
H27   H     H_    0.791122 0.482258 0.669673 0.101778
H28   H     H_    0.766112 0.488163 0.599572 0.116858
H29   H     H_    0.513342 0.740790 0.848392 0.115315
H30   H     H_    0.459693 0.743978 0.612486 0.123644
H31   H     H_    0.111152 0.815859 0.907560 0.119801
H32   H     H_    0.780672 0.519970 0.223808 0.109182
H33   H     H_    0.043162 0.570609 0.890010 0.123499
H34   H     H_    0.785826 0.504077 0.423597 0.122639
H35   H     H_    0.158533 0.528891 0.656991 0.100798
H36   H     H_    0.280658 0.495875 0.712477 0.108894
H37   H     H_    0.177585 0.788011 0.842352 0.104805
H38   H     H_    0.081454 0.821790 0.711334 0.112816
H39   H     H_    0.068902 0.824523 0.781156 0.111947
H40   H     H_    0.219025 0.780562 0.663596 0.099891
H41   H     H_    0.266514 0.753610 0.596223 0.121390
H42   H     H_    0.105490 0.545912 0.824675 0.135470
H43   H     H_    0.590076 0.826755 0.181415 0.127850
H44   H     H_    0.207205 0.500486 0.589679 0.125355
H45   H     H_    0.175426 0.561084 0.084691 0.128874
H46   H     H_    0.532878 0.080720 0.907850 0.108509
H47   H     H_    0.797000 0.119224 0.899162 0.133528
H48   H     H_    0.740767 0.237615 0.677699 0.105532
H49   H     H_    0.616057 0.345465 0.727293 0.113715
H50   H     H_    0.610817 0.328660 0.796742 0.140756
H51   H     H_    0.477178 0.149883 0.842550 0.095605
H52   H     H_    0.562725 0.091197 0.708567 0.105433
H53   H     H_    0.558263 0.073836 0.778194 0.104427
H54   H     H_    0.474251 0.207315 0.653687 0.098105
H55   H     H_    0.685914 0.825535 0.307076 0.107414
H56   H     H_    0.052243 0.888474 0.092200 0.127475
H57   H     H_    0.483306 0.236985 0.585580 0.121640
H58   H     H_    0.740187 0.191038 0.836062 0.108389
H59   H     H_    0.749498 0.268544 0.609776 0.126601
H60   H     H_    0.697564 0.837625 0.237397 0.111159
H61   H     H_    0.553185 0.794544 0.340311 0.114678
H62   H     H_    0.889571 0.517841 0.079093 0.249250
H63   H     H_    0.066577 0.462390 0.095832 0.151604
H64   H     H_    0.009999 0.435597 0.135613 0.127608
H65   H     H_    0.025672 0.548128 0.136686 0.153308
H66   H     H_    0.173034 0.805586 0.443818 0.249284
H67   H     H_    0.164087 0.822860 0.340204 0.099021
H68   H     H_    0.176006 0.955518 0.428713 0.137178
H69   H     H_    0.094259 0.944805 0.392178 0.131146
H70   H     H_    0.227716 0.903838 0.382352 0.147892
H71   H     H_    0.543956 0.373137 0.167276 0.120381
H72   H     H_    0.905060 0.545724 0.339558 0.254873
H73   H     H_    0.028988 0.405212 0.372496 0.136543
H74   H     H_    0.934017 0.388440 0.395752 0.148595
H75   H     H_    0.958284 0.491362 0.411190 0.143975
H76   H     H_    0.507719 0.187368 0.191941 0.120998
H77   H     H_    0.445898 0.814938 0.917424 0.250103
H78   H     H_    0.265475 0.773113 0.282062 0.103289
H79   H     H_    0.460320 0.922554 0.870442 0.110380
H80   H     H_    0.564461 0.918005 0.899309 0.169944
H81   H     H_    0.436215 0.980969 0.917817 0.143923
H82   H     H_    0.435350 0.590174 0.791148 0.104629
H83   H     H_    0.328837 0.477861 0.812569 0.273122
H84   H     H_    0.350890 0.315271 0.793269 0.149516
H85   H     H_    0.386651 0.360659 0.752291 0.162346
H86   H     H_    0.260245 0.373530 0.754146 0.143015
H87   H     H_    0.254340 0.788011 0.211719 0.109867
N1    N     N_2   0.907762 0.556666 0.099826 -0.488785
N2    N     N_2   0.203886 0.806336 0.417819 -0.496002
N3    N     N_2   0.876973 0.514449 0.358476 -0.526415
N4    N     N_2   0.511317 0.820667 0.917089 -0.491154
N5    N     N_2   0.284232 0.474689 0.790070 -0.533177
O1    O     O_R   0.324990 0.503440 0.453910 -0.529308
O2    O     O_R   0.675430 0.831160 0.051290 -0.520468
O3    O     O_R   0.698870 0.998880 0.039560 -0.502679
O4    O     O_R   0.522030 0.339050 0.458320 -0.503650
O5    O     O_R   0.811290 0.006780 0.950620 -0.519462
O6    O     O_R   0.980960 0.812920 0.953200 -0.501251
O7    O     O_R   0.001480 0.656720 0.955830 -0.520835
O8    O     O_R   0.809240 0.683250 0.968050 -0.517323
O9    O     O_R   0.652500 0.818540 0.967340 -0.474255
O10   O     O_R   0.677620 0.987170 0.961730 -0.502487
O11   O     O_3   0.833240 0.833660 0.999890 -0.242043
O12   O     O_R   0.639980 0.519500 0.542640 -0.502332
O13   O     O_R   0.676180 0.324490 0.458320 -0.516645
O14   O     O_R   0.643570 0.521510 0.464260 -0.503883
O15   O     O_R   0.504630 0.675350 0.460920 -0.505240
O16   O     O_R   0.339850 0.642450 0.459830 -0.474845
O17   O     O_R   0.321120 0.501280 0.538470 -0.519746
O18   O     O_R   0.518440 0.337050 0.536710 -0.500216
O19   O     O_R   0.672300 0.322330 0.542880 -0.520055
O20   O     O_2   0.469507 0.453025 0.213243 -0.514833
O21   O     O_2   0.454986 0.157511 0.143469 -0.525279
O22   O     O_2   0.518840 0.548411 0.839515 -0.510956
O23   O     O_R   0.500750 0.673190 0.545480 -0.521480
O24   O     O_R   0.336260 0.640450 0.538210 -0.507888
O25   O     O_3   0.499990 0.499990 0.500010 -0.235681
O26   O     O_R   0.834210 0.019400 0.034570 -0.517511
O27   O     O_R   0.002210 0.824620 0.031030 -0.504029
O28   O     O_R   0.024400 0.669340 0.039790 -0.503196
O29   O     O_R   0.830490 0.694950 0.045870 -0.470986

loop_
_geom_bond_atom_site_label_1
_geom_bond_atom_site_label_2
_ccdc_geom_bond_type
C8    C9    A    
C29   N3    S    
C55   H61   S    
C56   O15   A    
Cr1   O25   S    
C44   C127  S    
C93   C94   A    
C43   C84   S    
C4    H37   S    
C124  H20   S    
C117  H25   S    
C27   H68   S    
C99   C103  A    
C111  C112  A    
Cr4   O11   S    
Cr5   O29   S    
C114  C115  A    
C118  H52   S    
C68   O1    A    
C14   C128  A    
C123  C124  A    
C74   H47   S    
C106  C112  A    
C53   C54   A    
C1    O13   A    
C48   C54   A    
C92   O12   A    
C100  C105  A    
C101  C102  A    
C29   H74   S    
C84   C90   A    
C32   O22   D    
C27   H69   S    
C77   C82   A    
C36   C37   A    
C84   C86   A    
C113  C114  A    
C117  C119  A    
H77   N4    S    
C5    C6    A    
C25   H51   S    
C85   C96   A    
C3    C127  A    
C68   C83   S    
C31   H81   S    
C37   H48   S    
C63   H58   S    
C18   C21   A    
Cr4   O6    S    
C57   C61   A    
C70   H87   S    
C40   C62   S    
C108  C109  A    
C18   C19   A    
Cr6   O3    S    
C38   C107  S    
C26   H63   S    
C2    C13   A    
C2    H53   S    
C62   C64   A    
C92   O23   A    
C36   H59   S    
C21   C104  S    
C78   C83   A    
C71   H78   S    
C108  H19   S    
C19   C20   A    
H72   N3    S    
C119  H26   S    
C115  C117  A    
C26   N1    S    
C24   C38   A    
Cr6   O9    S    
C93   H11   S    
C70   C71   A    
C34   C46   A    
C32   C113  S    
C28   C91   S    
C58   H34   S    
C9    C10   A    
C107  C118  A    
Cr3   O23   S    
C90   H9    S    
C51   H55   S    
Cr3   O24   S    
H83   N5    S    
C72   C73   A    
C40   O28   A    
C58   C61   A    
C66   C67   A    
C121  H27   S    
C59   C60   A    
C57   H12   S    
C28   H71   S    
C73   C75   A    
C9    H36   S    
C94   C95   A    
C34   C41   A    
Cr5   O11   S    
C30   C89   S    
C109  H24   S    
C1    O4    A    
C73   H3    S    
C114  H22   S    
Cr2   O19   S    
C56   O14   A    
C81   C82   A    
C33   H85   S    
C100  H17   S    
C101  C105  A    
C99   H16   S    
Cr2   O13   S    
C24   C35   A    
C104  O24   A    
C30   O21   D    
C13   C52   S    
C27   H70   S    
C65   H2    S    
C86   H8    S    
C45   O9    A    
Cr2   O25   S    
C111  H29   S    
C45   O8    A    
C33   N5    S    
Cr3   O15   S    
C128  H1    S    
C10   C20   S    
C79   C81   A    
C64   H45   S    
C8    N5    S    
C86   C87   A    
C16   C17   A    
C123  C126  A    
C81   H67   S    
Cr1   O17   S    
C58   C59   A    
C77   C78   A    
Cr1   O4    S    
Cr3   O16   S    
C17   C21   A    
C110  C111  A    
C62   C69   A    
C92   C126  S    
C67   C69   A    
Cr6   O2    S    
C122  C126  A    
C87   C88   A    
C35   C39   A    
C75   C76   A    
C2    C118  A    
C121  C125  A    
C37   C38   A    
C91   C93   A    
C113  C120  A    
C99   C100  A    
C102  H10   S    
C12   C15   A    
C88   C98   S    
C16   C20   A    
C66   C76   S    
Cr1   O1    S    
C95   C97   A    
C50   C51   A    
C121  C122  A    
C68   O16   A    
Cr4   O26   S    
C28   O20   D    
C46   N1    S    
C79   N2    S    
C26   H65   S    
C23   H46   S    
C87   H13   S    
Cr4   O27   S    
C14   C41   A    
C40   O27   A    
C47   O5    A    
C42   C116  S    
C48   C49   A    
Cr1   O18   S    
C96   C107  A    
C94   C103  S    
C65   C66   A    
C8    C15   A    
C55   C57   A    
C70   C76   A    
Cr6   O11   S    
C43   O26   A    
C96   H49   S    
C110  C120  S    
C3    C4    A    
C67   H7    S    
Cr4   O5    S    
C59   N3    S    
C45   C106  S    
C3    H31   S    
C47   O10   A    
C33   H86   S    
C16   H40   S    
C7    H33   S    
Cr2   O12   S    
C35   H57   S    
C112  N4    S    
Cr5   O7    S    
H66   N2    S    
C49   H21   S    
C36   C39   A    
C97   H15   S    
C95   H14   S    
C77   H5    S    
C31   H80   S    
C4    C5    A    
Cr3   O25   S    
C52   C63   A    
C78   H6    S    
C69   H56   S    
C30   H76   S    
C119  C120  A    
C43   O3    A    
C29   H75   S    
C6    C7    A    
C31   H79   S    
C63   C74   A    
C42   O2    A    
C85   H50   S    
C104  O17   A    
C53   H60   S    
C80   O19   A    
C101  H18   S    
C27   N2    S    
C115  C125  S    
C46   C116  A    
C122  H28   S    
C24   H54   S    
C50   C60   S    
C39   C80   S    
C31   N4    S    
C44   O6    A    
C25   C52   A    
C71   C72   A    
C109  C110  A    
C64   C65   A    
C79   C83   A    
C123  H30   S    
C19   H35   S    
Cr5   O28   S    
C106  C108  A    
C42   O29   A    
C55   C60   A    
C97   C98   A    
Cr2   O14   S    
C6    H42   S    
C22   C47   S    
C29   H73   S    
C22   C23   A    
Cr5   O8    S    
C23   C25   A    
C91   C98   A    
C102  C103  A    
C26   H64   S    
H62   N1    S    
C41   C54   S    
C5    C15   S    
C14   H43   S    
C10   C11   A    
C7    C127  A    
C75   H4    S    
C34   H23   S    
C80   O18   A    
C11   H38   S    
C32   H82   S    
C48   H32   S    
C88   C89   A    
C18   H44   S    
C22   C74   A    
C49   C50   A    
C116  C128  A    
C13   C85   A    
Cr6   O10   S    
C56   C61   S    
C12   H39   S    
C51   C53   A    
C89   C90   A    
C44   O7    A    
C72   C82   S    
C33   H84   S    
C17   H41   S    
C11   C12   A    
C1    C105  S    
C124  C125  A    
