data_mof_unit_33192.cif
_audit_creation_date              2012-12-10T17:56:43-0500
_audit_creation_method            fapswitch 2.2
_symmetry_space_group_name_H-M    P1
_symmetry_Int_Tables_number       1
_space_group_crystal_system       triclinic
_cell_length_a                    10.79297
_cell_length_b                    9.50797
_cell_length_c                    10.825313
_cell_angle_alpha                 90.939495
_cell_angle_beta                  90.102332
_cell_angle_gamma                 89.957737
_cell_volume                      1110.7339491

loop_
_atom_site_label
_atom_site_type_symbol
_atom_type_description
_atom_site_fract_x
_atom_site_fract_y
_atom_site_fract_z
_atom_type_partial_charge
C1    C     C_R   0.262326 0.500003 0.502351 0.895033
C2    C     C_R   0.737654 0.499941 0.502611 0.927338
C3    C     C_R   0.935557 0.587442 0.594184 0.364687
C4    C     C_R   0.064635 0.587434 0.594114 0.361323
C5    C     C_R   0.425195 0.073072 0.421036 0.025190
C6    C     C_R   0.575203 0.075813 0.578578 -0.001589
C7    C     C_R   0.425188 0.924164 0.421045 0.032623
C8    C     C_R   0.575174 0.926908 0.578608 0.069318
C9    C     C_R   0.510815 0.499236 0.262544 0.891317
C10   C     C_R   0.491400 0.502332 0.738188 0.774681
C11   C     C_R   0.613481 0.739143 0.118633 0.438306
C12   C     C_R   0.486122 0.772920 0.896738 0.434064
C13   C     C_R   0.609599 0.872447 0.064020 0.293784
C14   C     C_R   0.540097 0.890691 0.956495 0.284347
C15   C     C_R   0.505853 0.635753 0.942372 -0.127367
C16   C     C_R   0.548599 0.624289 0.064445 -0.140145
C17   C     C_R   0.522338 0.498832 0.128181 -0.016048
C18   C     C_R   0.483865 0.508959 0.873501 -0.023709
C19   C     C_R   0.486255 0.377806 0.062329 -0.111042
C20   C     C_R   0.472894 0.381639 0.935529 -0.145585
C21   C     C_R   0.063853 0.410290 0.427468 0.525339
C22   C     C_R   0.935871 0.410241 0.427558 0.552391
C23   C     C_R   0.871334 0.499480 0.508923 -0.445164
C24   C     C_R   0.128629 0.499598 0.508725 -0.454136
Cu1   Cu    Cu3+1 0.500000 0.640660 0.500000 1.044927
Cu2   Cu    Cu3+1 0.500000 0.359340 0.500000 1.023151
H1    H     H_    0.467651 0.279962 0.108736 0.195796
H2    H     H_    0.451180 0.285050 0.885981 0.198373
H3    H     H_    0.365285 0.128164 0.357838 0.167362
H4    H     H_    0.635317 0.133066 0.641641 0.150935
H5    H     H_    0.365255 0.866873 0.357839 0.133997
H6    H     H_    0.635162 0.871812 0.641741 0.142424
N1    N     N_R   0.500000 0.852070 0.500000 -0.157316
N2    N     N_R   0.500000 0.147940 0.500000 -0.178731
O1    O     O_R   0.319640 0.618740 0.499990 -0.573335
O2    O     O_R   0.680360 0.618740 0.500010 -0.556573
O3    O     O_R   0.319620 0.381170 0.499990 -0.544630
O4    O     O_R   0.680380 0.381170 0.500010 -0.545520
O5    O     O_R   0.500000 0.618810 0.319650 -0.556925
O6    O     O_R   0.500000 0.618810 0.680350 -0.543810
O7    O     O_R   0.499970 0.381240 0.319640 -0.586132
O8    O     O_R   0.500030 0.381240 0.680360 -0.611530
F1    F     F_    0.687455 0.719482 0.218684 -0.633993
F2    F     F_    0.400871 0.795500 0.806731 -0.637927
O9    O     O_3   0.668238 0.988334 0.115873 -0.627223
H7    H     H_    0.709390 0.961270 0.193815 0.384656
O10   O     O_3   0.527391 0.025108 0.911887 -0.686685
H8    H     H_    0.479114 0.021933 0.834025 0.354091
F3    F     F_    0.124877 0.326378 0.344900 -0.605501
F4    F     F_    0.874599 0.326363 0.345003 -0.576739
O11   O     O_3   0.876511 0.670568 0.682108 -0.636699
H9    H     H_    0.792483 0.633307 0.697446 0.307734
O12   O     O_3   0.123974 0.670377 0.682066 -0.597443
H10   H     H_    0.207814 0.632457 0.697664 0.348313

loop_
_geom_bond_atom_site_label_1
_geom_bond_atom_site_label_2
_ccdc_geom_bond_type
C15   C18   A    
Cu2   O3    S    
C11   F1    S    
C14   O10   S    
C4    O12   S    
C10   O8    A    
C19   H1    S    
C11   C16   A    
C2    O4    A    
C18   C20   A    
C19   C20   A    
C12   C15   A    
C1    O3    A    
C22   F4    S    
C5    N2    A    
Cu1   N1    S    
C21   F3    S    
C12   F2    S    
Cu2   O7    S    
C13   C14   A    
Cu1   O5    S    
C13   O9    S    
C11   C13   A    
Cu2   O8    S    
Cu1   O1    S    
C9    C17   S    
C17   C19   A    
C10   C18   S    
C21   C22   A    
C5    H3    S    
C8    N1    A    
Cu1   O6    S    
C4    C24   A    
C7    H5    S    
C7    N1    A    
Cu1   O2    S    
O11   H9    S    
C8    H6    S    
O10   H8    S    
C6    N2    A    
C9    O5    A    
C1    O1    A    
C1    C24   S    
C10   O6    A    
C21   C24   A    
C2    O2    A    
C2    C23   S    
C5    C7    A    
C3    C23   A    
C3    O11   S    
C22   C23   A    
Cu2   O4    S    
C6    C8    A    
C20   H2    S    
C6    H4    S    
Cu1   Cu2   S    
O9    H7    S    
C9    O7    A    
Cu2   N2    S    
C3    C4    A    
C15   C16   A    
O12   H10   S    
C12   C14   A    
C16   C17   A    
