data_mof_unit_49451.cif
_audit_creation_date              2013-03-05T16:46:08-0500
_audit_creation_method            fapswitch 2.2
_symmetry_space_group_name_H-M    P1
_symmetry_Int_Tables_number       1
_space_group_crystal_system       triclinic
_cell_length_a                    10.944966
_cell_length_b                    10.742697
_cell_length_c                    10.056609
_cell_angle_alpha                 88.91574
_cell_angle_beta                  91.418744
_cell_angle_gamma                 89.034605
_cell_volume                      1181.68900026

loop_
_atom_site_label
_atom_site_type_symbol
_atom_site_description
_atom_site_fract_x
_atom_site_fract_y
_atom_site_fract_z
_atom_type_partial_charge
O1    O     O_R   0.500020 0.316790 0.614690 -0.605715
O2    O     O_R   0.500000 0.316760 0.385350 -0.619146
C1    C     C_R   0.505057 0.260093 0.500678 0.887197
O3    O     O_R   0.316770 0.500030 0.614670 -0.617308
O4    O     O_R   0.316750 0.499990 0.385330 -0.626519
C2    C     C_R   0.261781 0.507812 0.498281 0.904014
Zn1   Zn    Zn3+2 0.500010 0.500020 0.653130 0.976975
Zn2   Zn    Zn3+2 0.499990 0.499980 0.346870 1.000423
O5    O     O_R   0.500000 0.683240 0.614650 -0.623652
O6    O     O_R   0.499980 0.683210 0.385310 -0.632098
O7    O     O_R   0.683250 0.500010 0.614670 -0.614247
O8    O     O_R   0.683230 0.499970 0.385330 -0.536245
C3    C     C_R   0.505676 0.739218 0.498570 0.871320
C4    C     C_R   0.740956 0.502411 0.501141 0.899879
C5    C     C_R   0.184708 0.774179 0.125521 -0.160666
H1    H     H_    0.212243 0.870417 0.120835 0.159641
C6    C     C_R   0.159498 0.718459 0.248546 -0.145359
H2    H     H_    0.166307 0.772902 0.337917 0.143339
C7    C     C_R   0.117390 0.595723 0.254643 0.173676
C8    C     C_R   0.108501 0.527362 0.137355 -0.130566
H3    H     H_    0.077046 0.432356 0.139830 0.172797
C9    C     C_R   0.132236 0.583608 0.015059 -0.165972
H4    H     H_    0.118122 0.532007 0.925364 0.140499
C10   C     C_R   0.167417 0.707689 0.008429 0.233093
C11   C     C_R   0.937428 0.533134 0.381738 0.338059
C12   C     C_R   0.876405 0.512532 0.501541 -0.199011
C13   C     C_R   0.947859 0.503920 0.619146 -0.004888
C14   C     C_R   0.072944 0.502897 0.615429 -0.176711
H5    H     H_    0.124553 0.486648 0.707441 0.174509
C15   C     C_R   0.131291 0.521447 0.496220 -0.128340
C16   C     C_R   0.063270 0.547420 0.379158 -0.123549
C17   C     C_R   0.850512 0.607017 0.802120 -0.152014
H6    H     H_    0.861148 0.695980 0.751392 0.167864
C18   C     C_R   0.783738 0.600607 0.916409 -0.077390
H7    H     H_    0.744197 0.684550 0.956322 0.166492
C19   C     C_R   0.764381 0.484783 0.976068 -0.017158
H8    H     H_    0.707746 0.478081 0.060441 0.210512
C20   C     C_R   0.821909 0.377479 0.931935 -0.124269
H9    H     H_    0.814721 0.291202 0.987642 0.211741
C21   C     C_R   0.887380 0.382082 0.816142 0.164012
C22   C     C_R   0.896293 0.496977 0.748770 0.075970
C23   C     C_R   0.561645 0.059052 0.612437 0.157722
C24   C     C_R   0.525981 0.127485 0.498216 -0.139181
C25   C     C_R   0.518654 0.066124 0.375698 -0.173763
H10   H     H_    0.502932 0.116324 0.282571 0.179363
C26   C     C_R   0.519514 0.937267 0.373621 -0.195256
H11   H     H_    0.502518 0.891921 0.279815 0.171700
C27   C     C_R   0.529086 0.869944 0.494092 -0.092207
C28   C     C_R   0.563140 0.931157 0.609296 0.098106
C29   C     C_3   0.514893 0.917084 0.744801 -0.508825
C30   C     C_3   0.510106 0.056995 0.748794 -0.017063
H12   H     H_    0.423418 0.874956 0.745587 0.227545
H13   H     H_    0.584794 0.873305 0.813319 0.218610
H14   H     H_    0.414906 0.093578 0.748223 0.148673
C31   C     C_R   0.481799 0.392622 0.072902 0.219682
N1    N     N_R   0.499160 0.499140 0.142800 -0.118592
C32   C     C_R   0.506353 0.607670 0.069413 -0.123694
H15   H     H_    0.514214 0.695217 0.119896 0.166309
C33   C     C_R   0.505088 0.607371 0.927079 -0.154970
H16   H     H_    0.510998 0.694005 0.873769 0.164204
N2    N     N_R   0.499160 0.499180 0.857150 -0.113039
C34   C     C_R   0.478608 0.393588 0.930841 0.257324
C35   C     C_3   0.360221 0.325965 0.930134 -0.471122
C36   C     C_3   0.368916 0.318206 0.079980 -0.485394
H17   H     H_    0.282440 0.384831 0.891322 0.206940
H18   H     H_    0.365626 0.233580 0.885435 0.218052
H19   H     H_    0.293940 0.367413 0.130067 0.218300
H20   H     H_    0.387692 0.222130 0.118389 0.205913
I1    I     I_    0.181158 0.796136 0.821068 -0.427232
I2    I     I_    0.965132 0.214311 0.744997 -0.327170
I3    I     I_    0.634385 0.117431 0.899442 -0.408282
N3    N     N_R   0.874822 0.522513 0.259271 0.193957
O9    O     O_R   0.822406 0.620748 0.204174 -0.434401
O10   O     O_R   0.850467 0.410605 0.220461 -0.453398

loop_
_geom_bond_atom_site_label_1
_geom_bond_atom_site_label_2
_geom_bond_distance
_ccdc_geom_bond_type
C11   C16   1.389261 A    
C31   N1    1.367760 A    
C35   H17   1.110420 S    
C7    C8    1.403410 A    
C7    C16   1.486812 S    
Zn2   N1    2.052239 S    
Zn1   O7    2.051891 S    
C1    C24   1.439820 S    
C12   C13   1.402344 A    
C21   I2    2.124072 S    
O4    C2    1.301940 A    
C36   H20   1.109299 S    
C19   H8    1.065186 S    
C15   C16   1.398285 A    
O7    C4    1.318417 A    
C32   C33   1.431187 A    
C5    H1    1.082253 S    
C31   C34   1.428055 A    
N1    C32   1.372447 A    
C5    C6    1.399850 A    
C18   H7    1.082017 S    
O5    C3    1.306340 A    
Zn1   N2    2.051851 S    
C29   H12   1.105797 S    
C17   C22   1.397749 A    
C23   C30   1.495567 S    
C35   H18   1.098537 S    
C33   H16   1.068935 S    
C30   I3    2.128831 S    
O3    Zn1   2.033084 S    
C25   C26   1.384698 A    
C10   I1    2.103993 S    
C6    H2    1.083255 S    
C26   C27   1.399946 A    
C33   N2    1.371435 A    
C29   H13   1.109422 S    
C36   H19   1.105653 S    
O3    C2    1.303438 A    
C11   C12   1.407614 A    
O1    C1    1.310376 A    
C17   C18   1.378469 A    
C24   C25   1.409500 A    
C34   C35   1.496059 S    
O4    Zn2   2.051891 S    
C13   C22   1.434430 S    
Zn2   O8    2.033085 S    
C31   C36   1.485293 S    
C29   C30   1.504384 S    
C11   N3    1.401976 S    
C4    C12   1.488210 S    
N3    O10   1.300794 A    
C21   C22   1.402746 A    
C2    C15   1.432844 S    
O8    C4    1.312097 A    
C9    C10   1.394530 A    
C23   C24   1.395858 A    
C14   H5    1.081871 S    
C25   H10   1.080424 S    
Zn1   O5    1.998758 S    
C26   H11   1.083329 S    
C5    C10   1.399278 A    
O1    Zn1   2.013149 S    
O2    Zn2   1.998756 S    
C8    C9    1.392181 A    
N3    O9    1.300587 A    
O6    C3    1.298823 A    
C3    C27   1.431840 S    
C30   H14   1.107243 S    
C17   H6    1.084172 S    
C19   C20   1.389590 A    
O2    C1    1.299141 A    
C20   C21   1.382854 A    
C32   H15   1.080891 S    
C20   H9    1.078920 S    
C27   C28   1.389003 A    
C14   C15   1.384887 A    
C6    C7    1.404803 A    
C18   C19   1.392824 A    
N2    C34   1.368053 A    
C23   C28   1.374730 A    
C35   C36   1.508236 S    
C8    H3    1.082634 S    
Zn2   O6    2.013150 S    
C28   C29   1.479609 S    
C13   C14   1.370354 A    
C9    H4    1.076903 S    
