data_mof_unit_15367.cif
_audit_creation_date              2012-12-10T16:52:05-0500
_audit_creation_method            fapswitch 2.2
_symmetry_space_group_name_H-M    P1
_symmetry_Int_Tables_number       1
_space_group_crystal_system       triclinic
_cell_length_a                    7.837252
_cell_length_b                    8.568006
_cell_length_c                    14.892218
_cell_angle_alpha                 92.090164
_cell_angle_beta                  84.566796
_cell_angle_gamma                 93.791467
_cell_volume                      992.875658068

loop_
_atom_site_label
_atom_site_type_symbol
_atom_type_description
_atom_site_fract_x
_atom_site_fract_y
_atom_site_fract_z
_atom_type_partial_charge
C1    C     C_R   0.544898 0.794203 0.499566 0.859172
C2    C     C_R   0.455101 0.205796 0.500435 0.859246
C3    C     C_R   0.651411 0.764681 0.954925 -0.012959
C4    C     C_R   0.348568 0.235335 0.045078 -0.012941
C5    C     C_2   0.562881 0.957958 0.513093 0.201152
C6    C     C_2   0.437116 0.042041 0.486909 0.201236
C7    C     C_R   0.500544 0.501498 0.672458 0.875566
C8    C     C_R   0.499456 0.498501 0.327541 0.875677
C9    C     C_R   0.441728 0.356356 0.186514 0.480074
C10   C     C_R   0.558280 0.643651 0.813485 0.479944
C11   C     C_R   0.498139 0.492970 0.232342 -0.152641
C12   C     C_R   0.501863 0.507036 0.767657 -0.152622
C13   C     C_R   0.554615 0.628193 0.188358 -0.269604
C14   C     C_R   0.445371 0.371819 0.811644 -0.269548
C15   C     C_R   0.564789 0.631389 0.094954 0.056469
C16   C     C_R   0.435190 0.368627 0.905049 0.056467
C17   C     C_R   0.498327 0.498325 0.046922 -0.012209
C18   C     C_R   0.501652 0.501692 0.953080 -0.012187
C19   C     C_R   0.427322 0.362499 0.093274 0.052574
C20   C     C_R   0.572663 0.637515 0.906727 0.052609
C21   C     C_R   0.640194 0.764657 0.049632 -0.115352
C22   C     C_R   0.359780 0.235361 0.950372 -0.115409
H1    H     H_    0.593628 0.729766 0.228745 0.156507
H2    H     H_    0.406353 0.270246 0.771258 0.156518
N1    N     N_2   0.950330 0.457950 0.475660 -0.179495
N2    N     N_2   0.049670 0.542050 0.524340 -0.179346
O1    O     O_R   0.389250 0.738570 0.505970 -0.581557
O2    O     O_R   0.610750 0.261430 0.494030 -0.581700
O3    O     O_R   0.678390 0.711620 0.490370 -0.677959
O4    O     O_R   0.321610 0.288380 0.509630 -0.677774
O5    O     O_R   0.355420 0.513510 0.639950 -0.605193
O6    O     O_R   0.644580 0.486490 0.360050 -0.605407
O7    O     O_R   0.644560 0.486560 0.624350 -0.588144
O8    O     O_R   0.355440 0.513440 0.375650 -0.587816
Zn1   Zn    Zn3+2 0.306940 0.517990 0.510420 1.010037
Zn2   Zn    Zn3+2 0.693060 0.482010 0.489580 1.009708
O9    O     O_3   0.408498 0.215377 0.229738 -0.713396
H3    H     H_    0.448407 0.222064 0.290853 0.325829
O10   O     O_3   0.591531 0.784626 0.770258 -0.713487
H4    H     H_    0.551745 0.777915 0.709119 0.325811
C23   C     C_2   0.719270 0.899034 0.101017 0.387534
H5    H     H_    0.804609 0.878289 0.152017 0.111050
O11   O     O_2   0.686135 0.033218 0.088293 -0.557713
C24   C     C_2   0.280698 0.100987 0.898987 0.387586
H6    H     H_    0.195355 0.121736 0.847989 0.111087
O12   O     O_2   0.313835 0.966801 0.911706 -0.557651
C25   C     C_2   0.764110 0.888674 0.907668 0.577997
H7    H     H_    0.744483 0.011396 0.922305 0.101794
O13   O     O_2   0.882975 0.853414 0.853282 -0.505388
C26   C     C_2   0.235871 0.111342 0.092337 0.577984
H8    H     H_    0.255484 0.988617 0.077692 0.101788
O14   O     O_2   0.117025 0.146605 0.146736 -0.505439
O15   O     O_3   0.691891 0.024848 0.562759 -0.775173
H9    H     H_    0.757545 0.941468 0.584772 0.355652
O16   O     O_3   0.308105 0.975150 0.437242 -0.775148
H10   H     H_    0.242389 0.058533 0.415275 0.355663
C27   C     C_2   0.009744 0.313307 0.442472 0.702886
H11   H     H_    0.015570 0.218777 0.488355 0.039098
O17   O     O_2   0.044102 0.291264 0.361585 -0.546801
C28   C     C_2   0.990342 0.686755 0.557472 0.703003
H12   H     H_    0.984074 0.781074 0.511510 0.039130
O18   O     O_2   0.956704 0.709142 0.638383 -0.546788

loop_
_geom_bond_atom_site_label_1
_geom_bond_atom_site_label_2
_ccdc_geom_bond_type
C26   O14   D    
O16   H10   S    
C15   C17   A    
O9    H3    S    
C14   C16   A    
C4    C22   A    
C23   H5    S    
C23   O11   D    
C25   H7    S    
C13   C15   A    
C4    C26   S    
C6    O16   S    
C2    O4    A    
C16   C22   A    
C9    O9    S    
C26   H8    S    
C3    C20   A    
C25   O13   D    
C16   C18   A    
C8    O8    A    
O15   H9    S    
C11   C13   A    
O3    Zn2   S    
O2    Zn2   S    
C27   H11   S    
C2    C6    S    
N1    C27   S    
O4    Zn1   S    
C8    C11   S    
C1    C5    S    
C10   C12   A    
C3    C25   S    
C17   C19   A    
C12   C14   A    
C17   C18   A    
C18   C20   A    
C9    C11   A    
C5    C6    D    
O5    Zn1   S    
C7    C12   S    
C3    C21   A    
C27   O17   D    
C1    O3    A    
N1    Zn2   S    
C14   H2    S    
C8    O6    A    
O6    Zn2   S    
N2    Zn1   S    
C15   C21   A    
O7    Zn2   S    
C7    O5    A    
C24   H6    S    
C13   H1    S    
C28   O18   D    
O8    Zn1   S    
C21   C23   S    
C5    O15   S    
O10   H4    S    
C1    O1    A    
C7    O7    A    
C10   O10   S    
C2    O2    A    
C24   O12   D    
O1    Zn1   S    
N1    N2    D    
C4    C19   A    
N2    C28   S    
C9    C19   A    
C22   C24   S    
C10   C20   A    
C28   H12   S    
