data_mof_unit_51395.cif
_audit_creation_date              2012-10-26T20:13:53-0400
_audit_creation_method            fapswitch 2.2
_symmetry_space_group_name_H-M    P1
_symmetry_Int_Tables_number       1
_space_group_crystal_system       triclinic
_cell_length_a                    8.770745
_cell_length_b                    10.799067
_cell_length_c                    9.543981
_cell_angle_alpha                 89.901597
_cell_angle_beta                  98.013871
_cell_angle_gamma                 90.102893
_cell_volume                      895.136147588

loop_
_atom_site_label
_atom_site_type_symbol
_atom_type_description
_atom_site_fract_x
_atom_site_fract_y
_atom_site_fract_z
_atom_type_partial_charge
C1    C     C_R   0.507195 0.262557 0.501105 0.545523
C2    C     C_R   0.612079 0.561718 0.940414 0.200088
C3    C     C_3   0.646401 0.697112 0.938789 0.087743
C4    C     C_R   0.203888 0.498599 0.464193 0.574296
C5    C     C_3   0.645110 0.697478 0.097678 -0.195121
C6    C     C_R   0.502020 0.737607 0.500331 0.540555
C7    C     C_R   0.795867 0.495693 0.536667 0.529701
C8    C     C_2   0.038052 0.499827 0.447022 -0.085925
C9    C     C_2   0.961720 0.484637 0.558825 0.200997
C10   C     C_R   0.470113 0.063801 0.614347 0.015141
C11   C     C_R   0.525786 0.129462 0.505962 0.028178
C12   C     C_R   0.592085 0.933753 0.405150 -0.077770
C13   C     C_R   0.601445 0.063116 0.407138 0.223166
C14   C     C_R   0.516145 0.870631 0.504045 -0.038623
C15   C     C_R   0.467385 0.936718 0.614638 -0.038493
C16   C     C_3   0.317827 0.931515 0.672751 -0.168128
C17   C     C_3   0.320596 0.072352 0.672798 0.108541
C18   C     C_R   0.611610 0.562128 0.087773 0.131631
C19   C     C_R   0.399421 0.428772 0.061699 0.012898
C20   C     C_R   0.399518 0.428664 0.912786 0.008510
Cu1   Cu    Cu3+1 0.499990 0.499980 0.640670 0.971850
Cu2   Cu    Cu3+1 0.500010 0.500020 0.359330 0.957653
H1    H     H_    0.316546 0.372512 0.846444 0.151958
H2    H     H_    0.722746 0.199635 0.350451 0.342174
H3    H     H_    0.223561 0.890126 0.597062 0.179989
H4    H     H_    0.331065 0.891298 0.781007 0.103905
H5    H     H_    0.201367 0.212114 0.593698 0.344636
H6    H     H_    0.330897 0.114223 0.780356 0.119684
H7    H     H_    0.759030 0.717155 0.160632 0.165072
H8    H     H_    0.547471 0.751630 0.128471 0.117466
H9    H     H_    0.644509 0.883082 0.326661 0.145296
H10   H     H_    0.316080 0.372977 0.106995 0.136566
H11   H     H_    0.978045 0.516949 0.341237 0.090567
H12   H     H_    0.781988 0.723494 0.799091 0.348832
H13   H     H_    0.554045 0.754735 0.879285 0.133046
H14   H     H_    0.965219 0.439436 0.758968 0.345907
N1    N     N_R   0.500980 0.500930 0.148050 -0.243518
N2    N     N_R   0.500990 0.500890 0.852140 -0.259633
O1    O     O_R   0.500000 0.319640 0.618810 -0.518041
O2    O     O_3   0.039312 0.456894 0.692137 -0.700884
O3    O     O_3   0.682203 0.119636 0.310568 -0.675656
O4    O     O_3   0.202212 0.121830 0.574810 -0.680997
O5    O     O_R   0.500020 0.319680 0.381230 -0.488707
O6    O     O_R   0.274830 0.499980 0.591380 -0.434730
O7    O     O_R   0.274850 0.500020 0.353800 -0.509105
O8    O     O_R   0.499980 0.680320 0.618770 -0.516464
O9    O     O_R   0.500000 0.680360 0.381190 -0.509676
O10   O     O_R   0.725150 0.499980 0.646200 -0.506020
O11   O     O_R   0.725170 0.500020 0.408620 -0.529376
O12   O     O_3   0.793834 0.720127 0.903925 -0.684701

loop_
_geom_bond_atom_site_label_1
_geom_bond_atom_site_label_2
_ccdc_geom_bond_type
C2    C18   A    
Cu1   O6    S    
C20   N2    A    
C19   N1    A    
C2    N2    A    
C19   C20   A    
Cu1   O1    S    
C20   H1    S    
C3    H13   S    
C4    C8    S    
Cu1   O10   S    
C10   C11   A    
C7    O10   A    
C17   H6    S    
C13   O3    S    
C2    C3    S    
Cu1   Cu2   S    
C16   H4    S    
H2    O3    S    
C11   C13   A    
H5    O4    S    
C16   C17   S    
C1    O5    A    
Cu2   O11   S    
C19   H10   S    
C18   N1    A    
C12   C14   A    
Cu2   O9    S    
C5    H7    S    
C4    O7    A    
C12   H9    S    
C6    O8    A    
H12   O12   S    
C6    C14   S    
C6    O9    A    
C1    O1    A    
C10   C17   S    
C15   C16   S    
H14   O2    S    
Cu2   O7    S    
C12   C13   A    
C7    O11   A    
Cu1   O8    S    
C5    H8    S    
C16   H3    S    
C7    C9    S    
C14   C15   A    
C8    C9    D    
C5    C18   S    
C4    O6    A    
C10   C15   A    
C17   O4    S    
Cu2   N1    S    
C3    O12   S    
C9    O2    S    
Cu1   N2    S    
Cu2   O5    S    
C8    H11   S    
C3    C5    S    
C1    C11   S    
