data_mof_unit_15003.cif
_audit_creation_date              2012-12-10T16:47:54-0500
_audit_creation_method            fapswitch 2.2
_symmetry_space_group_name_H-M    P1
_symmetry_Int_Tables_number       1
_space_group_crystal_system       triclinic
_cell_length_a                    7.769373
_cell_length_b                    8.571345
_cell_length_c                    10.697959
_cell_angle_alpha                 90.824991
_cell_angle_beta                  85.58034
_cell_angle_gamma                 93.622452
_cell_volume                      708.849497685

loop_
_atom_site_label
_atom_site_type_symbol
_atom_type_description
_atom_site_fract_x
_atom_site_fract_y
_atom_site_fract_z
_atom_type_partial_charge
C1    C     C_R   0.545487 0.794573 0.502019 0.949420
C2    C     C_2   0.566556 0.958394 0.500428 -0.458307
C3    C     C_R   0.284577 0.989795 0.628860 0.166815
C4    C     C_R   0.315416 0.922779 0.743727 -0.117685
C5    C     C_R   0.177134 0.870759 0.827244 -0.129692
C6    C     C_R   0.007148 0.886541 0.797560 -0.147938
C7    C     C_R   0.975157 0.953535 0.684008 -0.159353
C8    C     C_R   0.112981 0.004483 0.599561 -0.099603
C9    C     C_2   0.433573 0.044822 0.539953 -0.185637
C10   C     C_R   0.501451 0.498509 0.737263 0.917101
C11   C     C_R   0.454444 0.205507 0.510143 0.916599
C12   C     C_R   0.499824 0.507139 0.262667 0.938728
C13   C     C_2   0.648322 0.522908 0.058593 -0.156150
C14   C     C_2   0.501484 0.531962 0.131521 -0.341060
C15   C     C_2   0.647711 0.529762 0.924177 -0.179730
C16   C     C_2   0.503108 0.490416 0.868956 -0.321900
H1    H     H_    0.380624 0.561333 0.096071 0.145533
H2    H     H_    0.900184 0.846999 0.862558 0.130229
H3    H     H_    0.843421 0.965574 0.661434 0.144970
H4    H     H_    0.085804 0.054017 0.511177 0.128582
H5    H     H_    0.768677 0.562260 0.870252 0.165691
H6    H     H_    0.382586 0.450057 0.919486 0.149184
H7    H     H_    0.684367 0.006999 0.450026 0.170639
H8    H     H_    0.013638 0.381889 0.406637 0.186543
H9    H     H_    0.986289 0.617714 0.593643 0.202417
H10   H     H_    0.771335 0.506559 0.096973 0.175089
H11   H     H_    0.446562 0.910583 0.768293 0.107987
H12   H     H_    0.201841 0.818577 0.915137 0.128812
N1    N     N_2   0.950320 0.457950 0.466680 -0.178773
N2    N     N_2   0.049680 0.542050 0.533320 -0.169544
O1    O     O_R   0.389250 0.738570 0.508180 -0.593211
O2    O     O_R   0.678390 0.711630 0.486820 -0.631575
O3    O     O_R   0.355470 0.513470 0.691600 -0.616597
O4    O     O_R   0.644610 0.486520 0.670240 -0.622950
O5    O     O_R   0.321610 0.288370 0.513180 -0.633787
O6    O     O_R   0.610750 0.261430 0.491820 -0.617842
O7    O     O_R   0.355390 0.513480 0.329760 -0.628989
O8    O     O_R   0.644530 0.486530 0.308400 -0.615826
Zn1   Zn    Zn3+2 0.306940 0.517990 0.514260 0.947919
Zn2   Zn    Zn3+2 0.693060 0.482010 0.485740 0.933893

loop_
_geom_bond_atom_site_label_1
_geom_bond_atom_site_label_2
_ccdc_geom_bond_type
O5    Zn1   S    
C6    C7    A    
C3    C9    S    
C5    H12   S    
C13   C15   S    
C1    O1    A    
C11   O5    A    
C12   C14   S    
C7    C8    A    
O7    Zn1   S    
O3    Zn1   S    
C13   C14   D    
O8    Zn2   S    
C9    C11   S    
C14   H1    S    
C8    H4    S    
C15   H5    S    
O4    Zn2   S    
N1    Zn2   S    
C11   O6    A    
O1    Zn1   S    
N2    Zn1   S    
C1    C2    S    
C10   O3    A    
C7    H3    S    
O2    Zn2   S    
C12   O8    A    
C5    C6    A    
C6    H2    S    
C13   H10   S    
N1    N2    D    
C3    C4    A    
O6    Zn2   S    
C4    H11   S    
C10   O4    A    
C3    C8    A    
C12   O7    A    
C2    H7    S    
H8    N1    S    
H9    N2    S    
C10   C16   S    
C2    C9    D    
C1    O2    A    
C15   C16   D    
C16   H6    S    
C4    C5    A    
