data_mof_unit_39539.cif
_audit_creation_date              2012-12-11T16:25:32-0500
_audit_creation_method            fapswitch 2.2
_symmetry_space_group_name_H-M    P1
_symmetry_Int_Tables_number       1
_space_group_crystal_system       triclinic
_cell_length_a                    20.196988
_cell_length_b                    7.270704
_cell_length_c                    13.423556
_cell_angle_alpha                 89.998976
_cell_angle_beta                  103.219633
_cell_angle_gamma                 90.000673
_cell_volume                      1918.96420421

loop_
_atom_site_label
_atom_site_type_symbol
_atom_type_description
_atom_site_fract_x
_atom_site_fract_y
_atom_site_fract_z
_atom_type_partial_charge
O1    O     O_R   0.449520 0.506760 0.599710 -0.545686
O2    O     O_R   0.550480 0.006760 0.400290 -0.545687
O3    O     O_R   0.587930 0.180200 0.595790 -0.534869
O4    O     O_R   0.412070 0.680200 0.404210 -0.534867
C1    C     C_R   0.614506 0.344187 0.617209 0.688258
C2    C     C_R   0.385495 0.844188 0.382790 0.688256
O5    O     O_R   0.452350 0.177380 0.611700 -0.531168
O6    O     O_R   0.547650 0.677380 0.388300 -0.531165
O7    O     O_R   0.413930 0.001760 0.416320 -0.528779
O8    O     O_R   0.586070 0.501760 0.583680 -0.528785
C3    C     C_R   0.436491 0.345704 0.638099 0.685951
C4    C     C_R   0.563509 0.845707 0.361902 0.685947
O9    O     O_3   0.487550 0.337460 0.435880 -0.374992
O10   O     O_3   0.512450 0.837460 0.564120 -0.375000
V1    V     V_3+5 0.502310 0.064670 0.511900 1.497823
V2    V     V_3+5 0.497690 0.564670 0.488100 1.497826
C5    C     C_R   0.608807 0.857194 0.105888 -0.126458
C6    C     C_R   0.391191 0.357101 0.894114 -0.126458
H1    H     H_    0.515945 0.831305 0.156331 0.111433
H2    H     H_    0.484053 0.331205 0.843668 0.111451
H3    H     H_    0.581733 0.857909 0.026415 0.173271
H4    H     H_    0.418265 0.357769 0.973587 0.173272
C7    C     C_R   0.602939 0.853659 0.283220 -0.038614
C8    C     C_R   0.397061 0.353645 0.716781 -0.038624
C9    C     C_R   0.930878 0.832243 0.317418 -0.243333
C10   C     C_R   0.069119 0.332311 0.682577 -0.243348
C11   C     C_R   0.895537 0.795930 0.392272 -0.146284
C12   C     C_R   0.104458 0.296030 0.607717 -0.146286
C13   C     C_R   0.824596 0.790269 0.368694 0.371067
C14   C     C_R   0.175399 0.290346 0.631294 0.371064
C15   C     C_R   0.786834 0.839924 0.268348 -0.017248
C16   C     C_R   0.213164 0.339946 0.731648 -0.017251
C17   C     C_R   0.824060 0.866308 0.190826 -0.045547
C18   C     C_R   0.175940 0.366300 0.809173 -0.045545
C19   C     C_R   0.714178 0.855413 0.239934 0.033161
C20   C     C_R   0.285822 0.355409 0.760065 0.033158
C21   C     C_R   0.680381 0.867102 0.134468 0.038309
C22   C     C_R   0.319619 0.367044 0.865534 0.038312
C23   C     C_R   0.718527 0.891157 0.060049 0.354452
C24   C     C_R   0.281474 0.391078 0.939954 0.354452
C25   C     C_R   0.789034 0.894532 0.088675 -0.223255
C26   C     C_R   0.210967 0.394476 0.911328 -0.223257
C27   C     C_R   0.673630 0.868372 0.312468 -0.137840
C28   C     C_R   0.326371 0.368392 0.687535 -0.137851
C29   C     C_R   0.570695 0.843615 0.179863 -0.191584
C30   C     C_R   0.429304 0.343543 0.820137 -0.191600
C31   C     C_R   0.896083 0.859643 0.216307 -0.041134
C32   C     C_R   0.103916 0.359658 0.783692 -0.041132
H5    H     H_    0.695363 0.897088 0.391806 0.161519
H6    H     H_    0.304641 0.397144 0.608200 0.161530
H7    H     H_    0.985850 0.829516 0.337778 0.119786
H8    H     H_    0.014147 0.329607 0.662216 0.119793
H9    H     H_    0.923994 0.761630 0.468643 0.159503
H10   H     H_    0.075999 0.261777 0.531340 0.159507
H11   H     H_    0.816346 0.915929 0.028990 0.160315
H12   H     H_    0.183657 0.415853 0.971017 0.160315
H13   H     H_    0.101254 0.680656 0.463306 0.107452
H14   H     H_    0.898744 0.180564 0.536714 0.107464
C33   C     C_R   0.234433 0.920035 0.037501 -0.102412
C34   C     C_R   0.765567 0.420094 0.962491 -0.102411
C35   C     C_R   0.291413 0.946395 0.997058 -0.069471
C36   C     C_R   0.708588 0.446484 0.002930 -0.069457
C37   C     C_R   0.356071 0.948379 0.061189 -0.039229
C38   C     C_R   0.643930 0.448470 0.938798 -0.039228
C39   C     C_R   0.364300 0.921181 0.166108 -0.049468
C40   C     C_R   0.635701 0.421241 0.833882 -0.049498
C41   C     C_R   0.307610 0.888609 0.208984 0.098477
C42   C     C_R   0.692391 0.388639 0.791011 0.098481
C43   C     C_R   0.241282 0.889812 0.143529 0.089937
C44   C     C_R   0.758718 0.389843 0.856466 0.089940
C45   C     C_R   0.316280 0.850206 0.314735 -0.153964
C46   C     C_R   0.683721 0.350204 0.685264 -0.153962
C47   C     C_R   0.258833 0.806336 0.354285 0.082334
C48   C     C_R   0.741167 0.306305 0.645720 0.082337
C49   C     C_R   0.192491 0.809150 0.288965 0.082848
C50   C     C_R   0.807509 0.309124 0.711040 0.082851
C51   C     C_R   0.183559 0.855773 0.184188 -0.159494
C52   C     C_R   0.816441 0.355776 0.815812 -0.159495
C53   C     C_R   0.266107 0.758686 0.458520 -0.069123
C54   C     C_R   0.733892 0.258626 0.541491 -0.069117
C55   C     C_R   0.209646 0.713635 0.496956 -0.018061
C56   C     C_R   0.790353 0.213552 0.503060 -0.018061
C57   C     C_R   0.144931 0.715874 0.433070 -0.064886
C58   C     C_R   0.855067 0.215799 0.566946 -0.064912
C59   C     C_R   0.136205 0.763470 0.330291 -0.113216
C60   C     C_R   0.863794 0.263424 0.669720 -0.113240
H15   H     H_    0.185189 0.920420 0.984538 0.099334
H16   H     H_    0.814811 0.420478 0.015453 0.099339
H17   H     H_    0.285293 0.966938 0.915575 0.116086
H18   H     H_    0.714708 0.467047 0.084410 0.116093
H19   H     H_    0.400089 0.971094 0.029475 0.104099
H20   H     H_    0.599912 0.471209 0.970507 0.104112
H21   H     H_    0.415509 0.923478 0.213022 0.069216
H22   H     H_    0.584491 0.423537 0.786967 0.069231
H23   H     H_    0.315345 0.755823 0.511440 0.097984
H24   H     H_    0.684655 0.255758 0.488572 0.097997
H25   H     H_    0.216129 0.677799 0.576876 0.111575
H26   H     H_    0.783869 0.177694 0.423144 0.111584
H27   H     H_    0.085069 0.762306 0.283279 0.084243
H28   H     H_    0.914930 0.262265 0.716731 0.084258
O11   O     O_R   0.913760 0.203480 0.916370 -0.533444
O12   O     O_R   0.086240 0.703480 0.083630 -0.533443
O13   O     O_R   0.047590 0.535230 0.888250 -0.540035
O14   O     O_R   0.952410 0.035230 0.111750 -0.540033
C61   C     C_R   0.063935 0.368494 0.862178 0.683282
C62   C     C_R   0.936065 0.868491 0.137821 0.683282
O15   O     O_R   0.912020 0.532880 0.904260 -0.532542
O16   O     O_R   0.087980 0.032880 0.095740 -0.532537
O17   O     O_R   0.949590 0.708460 0.099750 -0.538739
O18   O     O_R   0.050410 0.208460 0.900250 -0.538740
C63   C     C_R   0.885771 0.364662 0.883466 0.678151
C64   C     C_R   0.114229 0.864662 0.116535 0.678157
O19   O     O_3   0.012370 0.375360 0.064120 -0.376553
O20   O     O_3   0.987630 0.875360 0.935880 -0.376557
V3    V     V_3+5 0.997700 0.648160 0.988110 1.450631
V4    V     V_3+5 0.002300 0.148160 0.011890 1.450637
Cl1   Cl    Cl    0.680368 0.924358 0.929183 -0.700638
Cl2   Cl    Cl    0.319634 0.424228 0.070825 -0.700618
Cl3   Cl    Cl    0.790222 0.685080 0.464192 -0.722468
Cl4   Cl    Cl    0.209766 0.185208 0.535775 -0.722451

loop_
_geom_bond_atom_site_label_1
_geom_bond_atom_site_label_2
_ccdc_geom_bond_type
C40   C42   A    
C61   O18   A    
C37   C39   A    
C7    C29   A    
C50   C60   A    
C44   C52   A    
C56   H26   S    
O12   C64   A    
O1    C3    A    
O2    C4    A    
C2    O7    A    
O14   C62   A    
O20   V3    S    
C34   H16   S    
C23   C25   A    
O5    C3    A    
C13   Cl3   S    
C4    C7    S    
C48   C50   A    
C16   C20   A    
C19   C21   A    
C58   C60   A    
C24   Cl2   S    
C1    C46   S    
C10   H8    S    
C11   C13   A    
C3    C8    S    
C7    C27   A    
C34   C36   A    
C35   C37   A    
C25   H11   S    
C36   C38   A    
O12   V3    S    
C26   H12   S    
O14   V4    S    
C43   C51   A    
C49   C59   A    
C39   C41   A    
C18   C26   A    
C15   C17   A    
C52   C63   S    
C54   H24   S    
C19   C27   A    
C9    C31   A    
C10   C32   A    
C40   H22   S    
O19   V4    S    
C24   C26   A    
O6    V2    S    
C22   C24   A    
C48   C54   A    
C11   H9    S    
C47   C49   A    
C6    C30   A    
C55   C57   A    
C35   H17   S    
C2    C45   S    
C5    C29   A    
C33   C35   A    
C46   C48   A    
C53   C55   A    
C12   H10   S    
C27   H5    S    
O5    V1    S    
C23   Cl1   S    
C5    H3    S    
O16   C64   A    
C42   C46   A    
C41   C43   A    
C16   C18   A    
O4    V2    S    
C51   C64   S    
O13   V3    S    
C9    H7    S    
C53   H23   S    
C59   H27   S    
H14   C58   S    
C32   C61   S    
C34   C44   A    
O6    C4    A    
C31   C62   S    
H13   C57   S    
C47   C53   A    
O13   C61   A    
O1    V2    S    
C5    C21   A    
O2    V1    S    
C49   C51   A    
O15   V3    S    
C33   C43   A    
C54   C56   A    
C57   C59   A    
C56   C58   A    
C17   C31   A    
C15   C19   A    
C20   C28   A    
O4    C2    A    
C9    C11   A    
C38   H20   S    
O18   V4    S    
O3    V1    S    
C45   C47   A    
C28   H6    S    
O11   V4    S    
C6    H4    S    
O15   C63   A    
C50   C52   A    
O3    C1    A    
H1    C29   S    
O11   C63   A    
C10   C12   A    
C8    C30   A    
O16   V4    S    
C12   C14   A    
C6    C22   A    
C17   C25   A    
C1    O8    A    
C21   C23   A    
O8    V2    S    
C14   C16   A    
C60   H28   S    
C14   Cl4   S    
C8    C28   A    
C36   H18   S    
C20   C22   A    
C39   H21   S    
C55   H25   S    
C41   C45   A    
O7    V1    S    
C33   H15   S    
O17   V3    S    
C18   C32   A    
C13   C15   A    
O9    V2    S    
C37   H19   S    
C42   C44   A    
O10   V1    S    
H2    C30   S    
C38   C40   A    
C62   O17   A    
