data_mof_unit_26181.cif
_audit_creation_date              2012-10-26T21:21:39-0400
_audit_creation_method            fapswitch 2.2
_symmetry_space_group_name_H-M    P1
_symmetry_Int_Tables_number       1
_space_group_crystal_system       triclinic
_cell_length_a                    14.315646
_cell_length_b                    10.742093
_cell_length_c                    9.675749
_cell_angle_alpha                 91.47365
_cell_angle_beta                  89.46804
_cell_angle_gamma                 91.548651
_cell_volume                      1486.84633021

loop_
_atom_site_label
_atom_site_type_symbol
_atom_type_description
_atom_site_fract_x
_atom_site_fract_y
_atom_site_fract_z
_atom_type_partial_charge
C1    C     C_R   0.500470 0.262993 0.498493 0.586822
C2    C     C_R   0.582630 0.065254 0.481764 0.260872
C3    C     C_R   0.580426 0.936279 0.482126 -0.099598
C4    C     C_R   0.331404 0.499840 0.500549 0.485545
C5    C     C_R   0.496568 0.870597 0.503266 0.003658
C6    C     C_R   0.619656 0.668232 0.140323 -0.116277
C7    C     C_R   0.669589 0.757366 0.064787 0.207670
C8    C     C_R   0.640435 0.782957 0.931291 0.290146
C9    C     C_R   0.560892 0.719333 0.879692 0.290001
C10   C     C_R   0.539550 0.599023 0.931204 0.001891
C11   C     C_R   0.552496 0.587855 0.075941 0.006292
C12   C     C_1   0.771050 0.501986 0.498604 0.053187
C13   C     C_R   0.453296 0.409781 0.072471 0.406259
C14   C     C_R   0.455982 0.407565 0.923969 0.411743
C15   C     C_R   0.499793 0.736937 0.501262 0.526187
C16   C     C_R   0.668621 0.501419 0.499497 0.577989
C17   C     C_1   0.229005 0.499897 0.501472 -0.063611
C18   C     C_1   0.143510 0.500124 0.501335 -0.031440
C19   C     C_1   0.042784 0.500660 0.500536 0.014447
C20   C     C_1   0.957279 0.501230 0.499675 0.016637
C21   C     C_1   0.856553 0.501825 0.498810 0.010389
C22   C     C_3   0.728346 0.851622 0.752672 -0.043187
C23   C     C_R   0.326066 0.124932 0.519314 -0.064913
C24   C     C_3   0.403674 0.772921 0.886550 -0.086197
C25   C     C_3   0.320077 0.318474 0.837425 -0.070994
C26   C     C_3   0.105184 0.096958 0.660706 -0.111860
C27   C     C_3   0.319344 0.323585 0.167727 -0.064796
C28   C     C_R   0.241632 0.059814 0.540840 0.288915
C29   C     C_R   0.241883 0.929305 0.547671 -0.112502
C30   C     C_R   0.325663 0.866371 0.536972 -0.139029
C31   C     C_R   0.411324 0.932169 0.518290 0.022643
C32   C     C_R   0.411806 0.062995 0.511205 -0.048837
C33   C     C_R   0.498094 0.128623 0.495333 0.012177
Cu1   Cu    Cu3+1 0.499990 0.499990 0.640660 1.016244
Cu2   Cu    Cu3+1 0.500010 0.500010 0.359340 1.011444
H1    H     H_    0.323653 0.224697 0.509107 0.101971
H2    H     H_    0.356926 0.848216 0.856688 0.146541
H3    H     H_    0.405295 0.772598 0.001539 0.108848
H4    H     H_    0.373344 0.683860 0.843999 0.125426
H5    H     H_    0.303098 0.318436 0.726452 0.153127
H6    H     H_    0.290466 0.403792 0.887195 0.054262
H7    H     H_    0.283429 0.234879 0.878228 0.119266
H8    H     H_    0.147867 0.093369 0.756225 0.103558
H9    H     H_    0.065030 0.008121 0.643331 0.132803
H10   H     H_    0.053712 0.171304 0.677827 0.162180
H11   H     H_    0.305490 0.303714 0.277816 0.153089
H12   H     H_    0.177292 0.875700 0.558528 0.113702
H13   H     H_    0.277690 0.252548 0.108730 0.115501
H14   H     H_    0.292952 0.418034 0.146594 0.078821
H15   H     H_    0.847190 0.829274 0.323839 0.380810
H16   H     H_    0.322644 0.765949 0.542430 0.122674
H17   H     H_    0.644463 0.886101 0.467416 0.174621
H18   H     H_    0.637067 0.663322 0.246463 0.218500
H19   H     H_    0.837458 0.097315 0.449268 0.373123
H20   H     H_    0.754064 0.936095 0.699329 0.205140
H21   H     H_    0.686810 0.793422 0.677525 0.095161
H22   H     H_    0.790470 0.799924 0.785185 0.133050
N1    N     N_R   0.500820 0.501210 0.147910 -0.244334
N2    N     N_R   0.500850 0.501290 0.852040 -0.258455
O1    O     O_R   0.499990 0.319640 0.618810 -0.420595
O2    O     O_2   0.706360 0.225455 0.597259 -0.288071
O3    O     O_3   0.779873 0.044426 0.455170 -0.530489
O4    O     O_3   0.674042 0.888981 0.867879 -0.469982
O5    O     O_3   0.493376 0.797718 0.829903 -0.508849
O6    O     O_3   0.417479 0.305630 0.853014 -0.502119
O7    O     O_3   0.159850 0.126230 0.543225 -0.573127
O8    O     O_3   0.415430 0.307781 0.139496 -0.507623
O9    O     O_2   0.845353 0.845704 0.052080 -0.282386
O10   O     O_2   0.729109 0.978840 0.163475 -0.154683
O11   O     O_3   0.786497 0.788970 0.298397 -0.571280
O12   O     O_R   0.500000 0.319660 0.381240 -0.422260
O13   O     O_R   0.376050 0.499990 0.618810 -0.509367
O14   O     O_R   0.376060 0.500010 0.381240 -0.494202
O15   O     O_R   0.500000 0.680340 0.618760 -0.458949
O16   O     O_R   0.500010 0.680360 0.381190 -0.527638
O17   O     O_R   0.623940 0.499990 0.618760 -0.475919
O18   O     O_R   0.623950 0.500010 0.381190 -0.476620
O19   O     O_2   0.693105 0.225827 0.344723 -0.232138
S1    S     S_3+6 0.692210 0.145127 0.469340 0.038803
S2    S     S_3+6 0.760200 0.847056 0.144078 0.050195

loop_
_geom_bond_atom_site_label_1
_geom_bond_atom_site_label_2
_ccdc_geom_bond_type
C27   H13   S    
O9    S2    D    
C15   O16   A    
C30   H16   S    
C9    O5    S    
C19   C20   T    
C22   H22   S    
C26   H9    S    
C7    C8    A    
C14   N2    A    
Cu2   O16   S    
C1    O12   A    
C29   H12   S    
Cu2   N1    S    
C28   C29   A    
C16   O18   A    
C25   H5    S    
C30   C31   A    
C24   H4    S    
Cu1   Cu2   S    
C2    S1    S    
C26   H10   S    
C22   O4    S    
C12   C16   S    
C8    C9    A    
C24   H3    S    
C11   N1    A    
C9    C10   A    
Cu2   O12   S    
C24   O5    S    
C13   C14   A    
Cu1   O1    S    
C26   H8    S    
C17   C18   T    
C1    C33   S    
C26   O7    S    
O3    S1    S    
C25   O6    S    
C1    O1    A    
C25   H6    S    
C6    C11   A    
O19   S1    D    
C18   C19   S    
C22   H21   S    
C13   N1    A    
H19   O3    S    
O11   S2    S    
C12   C21   T    
Cu2   O18   S    
C28   O7    S    
C29   C30   A    
C31   C32   A    
C24   H2    S    
C23   C28   A    
C4    O14   A    
C6    C7    A    
Cu1   O15   S    
C4    C17   S    
C27   H11   S    
Cu1   N2    S    
C6    H18   S    
Cu1   O13   S    
C4    O13   A    
C2    C33   A    
C13   O8    S    
Cu2   O14   S    
C16   O17   A    
C3    C5    A    
C25   H7    S    
C3    H17   S    
C22   H20   S    
C23   C32   A    
C2    C3    A    
H15   O11   S    
C32   C33   A    
O2    S1    D    
C14   O6    S    
C10   N2    A    
C5    C15   S    
C27   O8    S    
C10   C11   A    
C8    O4    S    
C15   O15   A    
C20   C21   S    
C23   H1    S    
O10   S2    D    
C27   H14   S    
Cu1   O17   S    
C7    S2    S    
C5    C31   A    
