data_mof_unit_68333.cif
_audit_creation_date              2012-12-11T18:11:31-0500
_audit_creation_method            fapswitch 2.2
_symmetry_space_group_name_H-M    P1
_symmetry_Int_Tables_number       1
_space_group_crystal_system       triclinic
_cell_length_a                    8.325281
_cell_length_b                    13.182626
_cell_length_c                    18.779296
_cell_angle_alpha                 98.421977
_cell_angle_beta                  91.620222
_cell_angle_gamma                 98.707614
_cell_volume                      2012.6013405

loop_
_atom_site_label
_atom_site_type_symbol
_atom_type_description
_atom_site_fract_x
_atom_site_fract_y
_atom_site_fract_z
_atom_type_partial_charge
Ba1   Ba    Ba6+2 0.852780 0.548340 0.465070 1.730789
Ba2   Ba    Ba6+2 0.337060 0.451750 0.534940 1.705447
C1    C     C_3   0.659890 0.905032 0.249454 0.277502
C2    C     C_R   0.882938 0.428509 0.102181 -0.024770
C3    C     C_R   0.760802 0.425673 0.953866 -0.046215
C4    C     C_3   0.132270 0.762009 0.271118 0.458304
C5    C     C_R   0.921990 0.468526 0.978567 0.075214
C6    C     C_R   0.702178 0.433831 0.885485 -0.118937
C7    C     C_R   0.805614 0.472780 0.834824 -0.041485
C8    C     C_R   0.964663 0.521063 0.858364 -0.003394
C9    C     C_R   0.022815 0.519454 0.930635 0.031720
C10   C     C_R   0.757229 0.461231 0.760951 0.058425
C11   C     C_R   0.867189 0.495391 0.711465 -0.296872
C12   C     C_3   0.595338 0.798179 0.269215 0.345382
C13   C     C_R   0.021176 0.550324 0.733946 0.016422
C14   C     C_R   0.069042 0.565723 0.808799 -0.034876
C15   C     C_R   0.147372 0.504806 0.071205 0.015835
C16   C     C_3   0.134821 0.791039 0.195581 0.312959
C17   C     C_R   0.210394 0.498718 0.142263 -0.080830
C18   C     C_R   0.108015 0.446827 0.190599 -0.092544
C19   C     C_R   0.948799 0.399446 0.163438 0.449695
C20   C     C_R   0.218226 0.623289 0.836021 -0.010266
C21   C     C_R   0.275945 0.622023 0.906202 -0.125498
C22   C     C_R   0.184478 0.563615 0.952965 0.014265
C23   C     C_3   0.439265 0.265050 0.319345 0.345277
C24   C     C_R   0.248540 0.549923 0.021486 -0.005644
C25   C     C_R   0.413871 0.575733 0.039951 -0.144845
C26   C     C_R   0.375955 0.542145 0.163498 -0.051761
C27   C     C_R   0.478647 0.579589 0.110219 0.391461
C28   C     C_3   0.282290 0.777840 0.628811 0.325223
C29   C     C_R   0.430652 0.545862 0.236761 0.004568
C30   C     C_R   0.324340 0.501741 0.284902 -0.307683
C31   C     C_R   0.166073 0.450229 0.263859 0.033199
C32   C     C_R   0.783775 0.176116 0.527190 -0.224872
C33   C     C_R   0.443099 0.815439 0.476655 -0.284767
C34   C     C_3   0.369247 0.213251 0.244794 -0.325334
C35   C     C_R   0.414076 0.986184 0.455624 -0.085454
C36   C     C_R   0.348860 0.880405 0.450486 -0.032071
C37   C     C_R   0.593009 0.852728 0.514230 0.057609
C38   C     C_R   0.665993 0.961341 0.523352 -0.081659
C39   C     C_R   0.570715 0.028351 0.490097 -0.058082
C40   C     C_3   0.370224 0.882371 0.664264 -0.283432
C41   C     C_R   0.630632 0.136764 0.493200 0.021727
C42   C     C_R   0.881167 0.116350 0.560713 0.068610
C43   C     C_R   0.824639 0.008519 0.562214 0.326535
C44   C     C_3   0.967108 0.222835 0.387834 0.322747
C45   C     C_3   0.100841 0.288242 0.744781 0.324271
C46   C     C_3   0.945811 0.104801 0.373901 -0.338770
C47   C     C_3   0.704326 0.697332 0.684611 0.347217
C48   C     C_3   0.640508 0.713173 0.760135 0.290762
C49   C     C_3   0.746982 0.975271 0.147616 0.232410
C50   C     C_3   0.692793 0.986742 0.070776 -0.187063
C51   C     C_3   0.830223 0.034373 0.027248 -0.245538
C52   C     C_3   0.255808 0.916117 0.129210 0.337413
C53   C     C_3   0.280679 0.847389 0.058227 -0.250298
C54   C     C_3   0.271250 0.904799 0.993520 -0.442582
C55   C     C_3   0.706339 0.701106 0.095965 0.283524
C56   C     C_3   0.151151 0.299776 0.826708 0.333786
C57   C     C_3   0.821486 0.678374 0.036857 -0.288665
C58   C     C_3   0.877788 0.771456 0.001100 -0.461482
C59   C     C_3   0.474260 0.194568 0.730791 0.650015
C60   C     C_3   0.397049 0.115906 0.778000 -0.284510
C61   C     C_R   0.982449 0.467074 0.050403 -0.008057
H1    H     H_    0.570299 0.807440 0.327505 -0.083673
H2    H     H_    0.836422 0.694974 0.688441 0.030422
H3    H     H_    0.640568 0.621340 0.656844 -0.034116
H4    H     H_    0.792190 0.923676 0.265840 0.026310
H5    H     H_    0.509796 0.716088 0.753953 -0.004430
H6    H     H_    0.657852 0.647892 0.788934 -0.036114
H7    H     H_    0.482091 0.765618 0.236204 0.052122
H8    H     H_    0.595346 0.963743 0.280349 0.043473
H9    H     H_    0.337809 0.293032 0.349523 -0.000987
H10   H     H_    0.532118 0.333203 0.314229 0.064034
H11   H     H_    0.264072 0.152497 0.250025 0.140122
H12   H     H_    0.465974 0.873049 0.703419 0.155134
H13   H     H_    0.328108 0.271822 0.214635 0.086465
H14   H     H_    0.461756 0.175941 0.213811 0.150243
H15   H     H_    0.174417 0.353665 0.723988 -0.001413
H16   H     H_    0.974748 0.301117 0.740799 0.068488
H17   H     H_    0.281086 0.325477 0.838777 0.059947
H18   H     H_    0.102652 0.367071 0.852078 -0.051194
H19   H     H_    0.405784 0.187228 0.678910 0.079316
H20   H     H_    0.406897 0.151466 0.835472 0.167268
H21   H     H_    0.268929 0.087184 0.760943 0.183424
H22   H     H_    0.023593 0.702376 0.273123 0.036699
H23   H     H_    0.421551 0.927549 0.622953 0.116386
H24   H     H_    0.457187 0.046175 0.776321 0.143074
H25   H     H_    0.829119 0.483314 0.654881 0.077355
H26   H     H_    0.574535 0.407327 0.873535 0.130747
H27   H     H_    0.291473 0.669735 0.803277 0.088626
H28   H     H_    0.367440 0.506087 0.340346 0.055032
H29   H     H_    0.674156 0.386918 0.986331 0.099898
H30   H     H_    0.753779 0.406624 0.092068 0.097994
H31   H     H_    0.392432 0.668947 0.922967 0.093425
H32   H     H_    0.242722 0.728162 0.282475 -0.157442
H33   H     H_    0.496354 0.592090 0.998818 0.066832
H34   H     H_    0.284197 0.924735 0.695652 0.195342
H35   H     H_    0.340280 0.035025 0.432608 0.097776
H36   H     H_    0.827783 0.258095 0.529379 0.052735
H37   H     H_    0.393238 0.733695 0.470987 0.041855
H38   H     H_    0.137497 0.719303 0.156761 -0.064797
H39   H     H_    0.020937 0.822219 0.186414 -0.003837
H40   H     H_    0.372702 0.727783 0.611036 -0.005751
H41   H     H_    0.206111 0.785441 0.581141 0.039174
H42   H     H_    0.510634 0.865965 0.864078 0.322390
H43   H     H_    0.864615 0.945625 0.146653 0.025827
H44   H     H_    0.762666 0.052702 0.181783 0.169448
H45   H     H_    0.852521 0.248421 0.405609 -0.007440
H46   H     H_    0.639396 0.910310 0.040486 0.129047
H47   H     H_    0.595559 0.035854 0.074614 0.133517
H48   H     H_    0.883103 0.974025 0.992805 0.121149
H49   H     H_    0.929721 0.083858 0.062368 0.200539
H50   H     H_    0.780208 0.081395 0.990133 0.223323
H51   H     H_    0.350264 0.986324 0.135928 0.095366
H52   H     H_    0.137726 0.945359 0.127180 0.005530
H53   H     H_    0.399572 0.821007 0.061255 0.146748
H54   H     H_    0.188505 0.776499 0.049610 0.109306
H55   H     H_    0.156059 0.936999 0.991524 0.153707
H56   H     H_    0.065172 0.251576 0.430193 0.051239
H57   H     H_    0.276310 0.850240 0.943007 0.155748
H58   H     H_    0.373813 0.969626 0.996184 0.155957
H59   H     H_    0.018975 0.035192 0.870970 0.385378
H60   H     H_    0.747315 0.238179 0.821546 0.332216
H61   H     H_    0.631828 0.235362 0.110269 0.328372
H62   H     H_    0.778784 0.755893 0.138609 0.130747
H63   H     H_    0.611217 0.742802 0.077191 0.050363
H64   H     H_    0.929728 0.654593 0.060893 0.121265
H65   H     H_    0.758629 0.618065 0.994566 0.138740
H66   H     H_    0.772593 0.792796 0.973375 0.228037
H67   H     H_    0.821949 0.074103 0.349890 0.089161
H68   H     H_    0.967037 0.751854 0.960555 0.190174
H69   H     H_    0.934796 0.836428 0.042296 0.107650
H70   H     H_    0.146083 0.939087 0.555001 0.314667
H71   H     H_    0.961972 0.073320 0.424599 0.047882
H72   H     H_    0.037525 0.077962 0.336724 0.148447
O1    O     O_2   0.873090 0.425890 0.325140 -0.424504
O2    O     O_2   0.230081 0.154482 0.571500 -0.452002
O3    O     O_3   0.122890 0.193272 0.703162 -0.539841
O4    O     O_3   0.122420 0.434370 0.414380 -0.527477
O5    O     O_3   0.578370 0.633800 0.536380 -0.514967
O6    O     O_2   0.341510 0.231850 0.465510 -0.489730
O7    O     O_3   0.511570 0.192865 0.352554 -0.627024
O8    O     O_2   0.437325 0.475550 0.753032 -0.526433
O9    O     O_3   0.483628 0.293643 0.770309 -0.689059
O10   O     O_3   0.659500 0.627100 0.368810 -0.475439
O11   O     O_2   0.768746 0.544952 0.248447 -0.461958
O12   O     O_3   0.673410 0.780774 0.650383 -0.577839
O13   O     O_3   0.005631 0.259081 0.323481 -0.548084
O14   O     O_3   0.712195 0.732725 0.254775 -0.604550
O15   O     O_2   0.848200 0.768190 0.534530 -0.425863
O16   O     O_3   0.081160 0.685950 0.404810 -0.490588
O17   O     O_2   0.003880 0.873612 0.444881 -0.505120
O18   O     O_2   0.900012 0.822569 0.840193 -0.312158
O19   O     O_2   0.738369 0.921483 0.773748 -0.141220
O20   O     O_3   0.615503 0.854547 0.885332 -0.572676
O21   O     O_3   0.627856 0.904925 0.174991 -0.668916
O22   O     O_3   0.273893 0.864992 0.189628 -0.633588
O23   O     O_3   0.122121 0.850958 0.320843 -0.600605
O24   O     O_2   0.222498 0.198730 0.934428 -0.335671
O25   O     O_2   0.944066 0.230708 0.923441 -0.287921
O26   O     O_3   0.031535 0.082214 0.834239 -0.385962
O27   O     O_2   0.645945 0.058065 0.675124 -0.319526
O28   O     O_2   0.748154 0.240975 0.668208 -0.435403
O29   O     O_3   0.771823 0.174321 0.792200 -0.401746
O30   O     O_2   0.993659 0.207623 0.180320 -0.332948
O31   O     O_2   0.755060 0.267644 0.236212 -0.325212
O32   O     O_3   0.742411 0.220728 0.099085 -0.563395
O33   O     O_3   0.645530 0.609021 0.124117 -0.647035
O34   O     O_2   0.316610 0.574140 0.674900 -0.495295
O35   O     O_2   0.945156 0.028160 0.697715 -0.099183
O36   O     O_2   0.948145 0.856846 0.648280 -0.241151
O37   O     O_3   0.145348 0.983773 0.601531 -0.581042
O38   O     O_3   0.067290 0.565720 0.585630 -0.495871
O39   O     O_3   0.530210 0.372990 0.631200 -0.447228
O40   O     O_3   0.182438 0.739530 0.679817 -0.591843
O41   O     O_3   0.611340 0.366290 0.463630 -0.483761
O42   O     O_3   0.108550 0.314140 0.595200 -0.508416
P1    P     P_3+3 0.041040 0.394770 0.336330 1.055270
P2    P     P_3+3 0.672880 0.754030 0.556100 1.039300
P3    P     P_3+3 0.141171 0.821676 0.408268 0.939059
P4    P     P_3+3 0.148670 0.605320 0.663680 0.985180
P5    P     P_3+3 0.080691 0.189974 0.608871 1.134924
P6    P     P_3+3 0.637511 0.610076 0.275695 1.005544
P7    P     P_3+3 0.525952 0.230991 0.446197 0.956167
P8    P     P_3+3 0.552348 0.399001 0.725785 0.974951
S1    S     S_3+6 0.730959 0.831679 0.814634 -0.064419
S2    S     S_3+6 0.085138 0.201313 0.881341 -0.053000
S3    S     S_3+6 0.667593 0.166621 0.713858 -0.091005
S4    S     S_3+6 0.861251 0.271821 0.173387 -0.118253
S5    S     S_3+6 0.955466 0.961444 0.627382 0.004012

loop_
_geom_bond_atom_site_label_1
_geom_bond_atom_site_label_2
_ccdc_geom_bond_type
O7    P7    S    
C60   H20   S    
Ba1   O41   S    
C2    C19   A    
C25   C27   A    
C54   H57   S    
C9    C22   A    
C46   H72   S    
Ba1   O10   S    
C17   C18   A    
C45   H16   S    
C53   C54   S    
C58   H69   S    
C55   O33   S    
C42   C43   A    
C5    C9    A    
O19   S1    D    
C2    C61   A    
Ba1   O38   S    
C40   H12   S    
H59   O26   S    
C47   H2    S    
O11   P6    D    
O4    P1    S    
C15   C24   A    
C27   O33   S    
C46   H71   S    
C26   C27   A    
H70   O37   S    
C22   C24   A    
C34   H14   S    
Ba2   O38   S    
C55   H62   S    
C33   C37   A    
C55   C57   S    
C30   H28   S    
O18   S1    D    
C57   H64   S    
C13   C14   A    
O1    P1    D    
C41   P7    S    
O5    P2    S    
C47   O12   S    
C12   O14   S    
Ba1   Ba2   S    
C16   H39   S    
O24   S2    D    
O23   P3    S    
O13   P1    S    
C34   H13   S    
Ba2   O41   S    
C44   O13   S    
C23   O7    S    
C6    C7    A    
C44   H45   S    
C28   H40   S    
O30   S4    D    
C21   C22   A    
C40   H23   S    
Ba2   O42   S    
Ba1   O1    S    
C11   H25   S    
C7    C8    A    
C39   C41   A    
Ba1   O4    S    
C56   H17   S    
O40   P4    S    
C51   H48   S    
C56   S2    S    
O38   P4    S    
C57   C58   S    
C12   H7    S    
C46   H67   S    
C25   H33   S    
C4    C16   S    
C58   H68   S    
C35   H35   S    
C4    O23   S    
C51   H50   S    
O9    P8    S    
C38   C43   A    
O32   S4    S    
C44   C46   S    
C49   O21   S    
C36   P3    S    
C47   H3    S    
C49   C50   S    
C33   C36   A    
C32   C42   A    
O39   P8    S    
C13   P4    S    
C40   H34   S    
C37   C38   A    
C3    C5    A    
O2    P5    D    
Ba2   O34   S    
O37   S5    S    
C57   H65   S    
C59   S3    S    
C2    H30   S    
O36   S5    D    
O28   S3    D    
Ba2   P4    S    
O17   P3    D    
C1    H8    S    
C35   C36   A    
H61   O32   S    
Ba1   P1    S    
C59   O9    S    
C19   S4    S    
C29   C30   A    
C50   H47   S    
C12   H1    S    
C52   H52   S    
C32   H36   S    
C20   H27   S    
Ba1   O15   S    
C23   H9    S    
C18   C19   A    
C17   C26   A    
Ba1   O5    S    
C5    C61   A    
C1    C12   S    
C34   H11   S    
C18   C31   A    
C51   H49   S    
C38   C39   A    
H42   O20   S    
C47   C48   S    
C11   C13   A    
C24   C25   A    
C56   H18   S    
Ba2   O4    S    
C28   H41   S    
C33   H37   S    
C48   S1    S    
C42   P5    S    
C28   O40   S    
C55   H63   S    
C50   C51   S    
C53   H54   S    
O41   P7    S    
C60   H21   S    
C52   C53   S    
C14   C20   A    
C29   P6    S    
C31   P1    S    
O34   P4    D    
C54   H55   S    
C48   H6    S    
C26   C29   A    
C1    H4    S    
C32   C41   A    
O29   S3    S    
O20   S1    S    
C58   H66   S    
C3    C6    A    
C37   P2    S    
C60   H24   S    
O35   S5    D    
C45   H15   S    
C21   H31   S    
C59   H19   S    
O31   S4    D    
Ba2   O5    S    
C30   C31   A    
O6    P7    D    
O10   P6    S    
O26   S2    S    
C16   O22   S    
C8    C14   A    
C54   H58   S    
C45   C56   S    
O27   S3    D    
H60   O29   S    
Ba1   P2    S    
O16   P3    S    
C50   H46   S    
C49   H43   S    
C10   P8    S    
C52   H51   S    
C45   O3    S    
C1    O21   S    
C15   C17   A    
C44   H56   S    
Ba1   O16   S    
C23   H10   S    
C35   C39   A    
C59   C60   S    
O3    P5    S    
C7    C10   A    
C3    H29   S    
C8    C9    A    
Ba2   O39   S    
C23   C34   S    
O8    P8    D    
O12   P2    S    
C43   S5    S    
C10   C11   A    
C49   H44   S    
C4    H32   S    
C53   H53   S    
C4    H22   S    
O14   P6    S    
Ba2   O6    S    
C20   C21   A    
C28   C40   S    
C6    H26   S    
O25   S2    D    
C48   H5    S    
C16   H38   S    
C15   C61   A    
O42   P5    S    
O15   P2    D    
C52   O22   S    
