data_mof_unit_7183.cif
_audit_creation_date              2012-12-11T16:33:23-0500
_audit_creation_method            fapswitch 2.2
_symmetry_space_group_name_H-M    P1
_symmetry_Int_Tables_number       1
_space_group_crystal_system       triclinic
_cell_length_a                    6.948453
_cell_length_b                    18.112949
_cell_length_c                    20.311265
_cell_angle_alpha                 68.655891
_cell_angle_beta                  91.119513
_cell_angle_gamma                 91.230661
_cell_volume                      2380.2423125

loop_
_atom_site_label
_atom_site_type_symbol
_atom_type_description
_atom_site_fract_x
_atom_site_fract_y
_atom_site_fract_z
_atom_type_partial_charge
O1    O     O_R   0.488960 0.443750 0.941980 -0.496118
O2    O     O_R   0.823890 0.406510 0.087590 -0.552851
O3    O     O_R   0.999680 0.556250 0.058020 -0.547627
C1    C     C_R   0.656245 0.383756 0.115289 0.654834
O4    O     O_R   0.818360 0.434410 0.944340 -0.518800
O5    O     O_R   0.994110 0.584350 0.913750 -0.537699
C2    C     C_R   0.648056 0.419781 0.924312 0.793632
O6    O     O_R   0.494530 0.415650 0.086250 -0.546684
O7    O     O_3   0.662590 0.549160 0.990130 -0.379834
V1    V     V_3+5 0.935320 0.490880 0.001830 1.497421
O8    O     O_R   0.324180 0.593490 0.912410 -0.514209
C3    C     C_R   0.156090 0.614769 0.883619 0.820985
O9    O     O_R   0.329720 0.565590 0.055660 -0.548348
C4    C     C_R   0.163396 0.579369 0.076461 0.684792
V2    V     V_3+5 0.435990 0.509120 0.998170 1.518574
O10   O     O_3   0.158850 0.450840 0.009870 -0.352259
C5    C     C_3   0.070912 0.697348 0.317521 -0.143653
C6    C     C_3   0.258372 0.687921 0.281229 -0.180214
H1    H     H_    0.360849 0.639393 0.306346 0.128108
H2    H     H_    0.020806 0.657627 0.370356 0.114160
H3    H     H_    0.442699 0.805353 0.264822 0.107810
C7    C     C_1   0.160998 0.623969 0.122985 -0.188598
C8    C     C_1   0.105072 0.872946 0.379153 -0.193357
C9    C     C_3   0.960866 0.713649 0.246885 0.123909
C10   C     C_3   0.146570 0.704886 0.211041 0.154753
C11   C     C_3   0.000411 0.803757 0.225089 -0.180086
C12   C     C_3   0.114226 0.787018 0.295004 0.154623
C13   C     C_3   0.188544 0.794426 0.189039 -0.155789
C14   C     C_3   0.301475 0.778079 0.259492 -0.132137
C15   C     C_1   0.157645 0.660582 0.162537 -0.073594
C16   C     C_1   0.107061 0.833998 0.341434 -0.058116
H4    H     H_    0.238329 0.834175 0.136170 0.111092
H5    H     H_    0.892443 0.850934 0.202476 0.107490
H6    H     H_    0.909126 0.528455 0.689973 0.162460
C17   C     C_R   0.276504 0.773128 0.870858 -0.143644
C18   C     C_R   0.336805 0.848440 0.866949 -0.113986
C19   C     C_R   0.328694 0.911970 0.802971 -0.129385
C20   C     C_R   0.258349 0.900833 0.742545 -0.153933
C21   C     C_R   0.197000 0.824925 0.744618 0.082622
C22   C     C_R   0.208377 0.759328 0.810041 0.061489
C23   C     C_R   0.116772 0.814621 0.683736 -0.154348
C24   C     C_R   0.047477 0.738383 0.688798 0.034588
C25   C     C_R   0.084602 0.670604 0.751103 -0.038033
C26   C     C_R   0.151713 0.681957 0.813763 -0.175457
C27   C     C_R   0.946199 0.727584 0.631767 -0.154826
C28   C     C_R   0.883674 0.652799 0.635699 -0.181436
C29   C     C_R   0.940813 0.586343 0.692122 -0.114039
C30   C     C_R   0.055288 0.594041 0.746757 0.425315
H7    H     H_    0.283899 0.726237 0.922255 0.091179
H8    H     H_    0.389371 0.857584 0.913974 0.106981
H9    H     H_    0.374759 0.970478 0.800288 0.105582
H10   H     H_    0.249791 0.952808 0.694676 0.103427
H11   H     H_    0.911875 0.776299 0.583613 0.132456
H12   H     H_    0.802434 0.645945 0.592191 0.142309
H13   H     H_    0.056168 0.329448 0.403198 0.172453
C31   C     C_R   0.408432 0.115623 0.261192 -0.149391
C32   C     C_R   0.308114 0.111748 0.202534 -0.125220
C33   C     C_R   0.317020 0.174755 0.138402 -0.123619
C34   C     C_R   0.427861 0.241762 0.132297 -0.137210
C35   C     C_R   0.528659 0.248409 0.191343 0.077850
C36   C     C_R   0.516950 0.184253 0.257702 0.062288
C37   C     C_R   0.649731 0.315048 0.183875 -0.155591
C38   C     C_R   0.764941 0.315585 0.242383 0.033189
C39   C     C_R   0.731868 0.257554 0.311039 -0.036101
C40   C     C_R   0.616232 0.188805 0.318253 -0.169317
C41   C     C_R   0.911551 0.373925 0.234821 -0.165429
C42   C     C_R   0.027824 0.372273 0.291531 -0.197177
C43   C     C_R   0.981609 0.321541 0.358811 -0.131279
C44   C     C_R   0.819437 0.271738 0.369543 0.411125
H14   H     H_    0.401047 0.063273 0.308574 0.109937
H15   H     H_    0.225249 0.058954 0.206681 0.112336
H16   H     H_    0.241276 0.170969 0.092620 0.110895
H17   H     H_    0.437355 0.286814 0.080063 0.108679
H18   H     H_    0.942814 0.421463 0.185944 0.147729
H19   H     H_    0.143511 0.415497 0.284085 0.145025
O11   O     O_R   0.770540 0.084530 0.414050 -0.543677
O12   O     O_R   0.445710 0.065660 0.555720 -0.526673
O13   O     O_R   0.270420 0.915650 0.586190 -0.544807
C45   C     C_R   0.614799 0.075633 0.579648 0.830932
O14   O     O_R   0.441140 0.093540 0.412470 -0.521413
O15   O     O_R   0.265820 0.943740 0.441930 -0.544125
C46   C     C_R   0.610052 0.118735 0.386353 0.790526
O16   O     O_R   0.775150 0.056440 0.558310 -0.523473
O17   O     O_3   0.602370 0.950960 0.510050 -0.388241
V3    V     V_3+5 0.329450 0.009140 0.498150 1.505188
O18   O     O_R   0.935790 0.934280 0.444060 -0.546062
C47   C     C_R   0.102387 0.919842 0.423896 0.704292
O19   O     O_R   0.940370 0.906390 0.587310 -0.550278
C48   C     C_R   0.108809 0.883128 0.614810 0.672402
V4    V     V_3+5 0.828810 0.990710 0.501460 1.460053
O20   O     O_3   0.105780 0.049100 0.489960 -0.350512
C49   C     C_3   0.678267 0.320590 0.716538 -0.092600
C50   C     C_3   0.501595 0.275127 0.701456 -0.106259
H20   H     H_    0.395792 0.299728 0.657585 0.142269
H21   H     H_    0.718159 0.383227 0.685666 0.132533
H22   H     H_    0.307958 0.240253 0.803552 0.113537
C51   C     C_1   0.623975 0.118807 0.627455 -0.076952
C52   C     C_1   0.636753 0.373077 0.879604 -0.089742
C53   C     C_3   0.805990 0.247811 0.727440 -0.120901
C54   C     C_3   0.629354 0.202940 0.713011 0.147717
C55   C     C_3   0.757905 0.214890 0.807251 -0.144568
C56   C     C_3   0.630116 0.287031 0.795718 0.148883
C57   C     C_3   0.581175 0.169405 0.792183 -0.155958
C58   C     C_3   0.453455 0.242215 0.781262 -0.161898
C59   C     C_1   0.627678 0.156208 0.666422 -0.017884
C60   C     C_1   0.632235 0.334198 0.841913 -0.047873
H23   H     H_    0.541248 0.106790 0.823101 0.106018
H24   H     H_    0.863767 0.190353 0.851109 0.109911
H25   H     H_    0.951480 0.249870 0.705117 0.125696
S1    S     S_3+6 0.209684 0.513517 0.789238 -0.046109
O21   O     O_2   0.407038 0.544521 0.798008 -0.351896
O22   O     O_2   0.131403 0.463113 0.859996 -0.355391
O23   O     O_3   0.226747 0.457300 0.739417 -0.523450
H26   H     H_    0.270907 0.405053 0.772304 0.350802
S2    S     S_3+6 0.691332 0.265830 0.445381 -0.032218
O24   O     O_2   0.502439 0.222136 0.452744 -0.334669
O25   O     O_2   0.817820 0.227555 0.508983 -0.370014
O26   O     O_3   0.645359 0.358774 0.439902 -0.498763
H27   H     H_    0.765413 0.378056 0.455801 0.334159
C61   C     C_3   0.769947 0.674834 0.237647 -0.384192
C62   C     C_3   0.776208 0.583847 0.272904 -0.293818
C63   C     C_3   0.625742 0.543146 0.241322 -0.726037
H28   H     H_    0.479190 0.563584 0.245786 0.224053
H29   H     H_    0.656474 0.555838 0.184736 0.220880
H30   H     H_    0.630042 0.478020 0.270149 0.237584
H31   H     H_    0.919707 0.561576 0.266535 0.201188
H32   H     H_    0.750907 0.566290 0.330503 0.195798
H33   H     H_    0.655502 0.697807 0.261668 0.166137
H34   H     H_    0.738347 0.692916 0.180112 0.187186

loop_
_geom_bond_atom_site_label_1
_geom_bond_atom_site_label_2
_ccdc_geom_bond_type
C23   C48   S    
C55   C56   S    
C2    C52   S    
C12   C14   S    
C23   C24   A    
C30   S1    S    
C17   C18   A    
C1    O6    A    
H13   C43   S    
V3    O20   S    
C21   C23   A    
C27   C28   A    
C10   C13   S    
C11   C12   S    
C19   C20   A    
C13   C14   S    
C9    C11   S    
C62   H32   S    
O5    C3    A    
C20   C21   A    
C19   H9    S    
C20   H10   S    
V2    O10   S    
C41   H18   S    
C1    C37   S    
C5    H2    S    
C31   C32   A    
C35   C37   A    
C6    H1    S    
S1    O21   D    
O26   H27   S    
O8    V2    S    
C29   C30   A    
C43   C44   A    
S2    O25   D    
C17   H7    S    
O1    V2    S    
C25   C30   A    
C34   H17   S    
C49   C56   S    
C51   C59   T    
C55   H24   S    
C41   C42   A    
C38   C41   A    
C27   H11   S    
C34   C35   A    
C55   C57   S    
C8    C47   S    
O9    C4    A    
C6    C10   S    
O17   V4    S    
C50   C58   S    
C40   C46   S    
O12   C45   A    
O13   C48   A    
C9    C61   S    
C5    C9    S    
C12   C16   S    
C42   C43   A    
C5    C12   S    
C13   H4    S    
C9    C10   S    
O14   C46   A    
O18   V4    S    
O11   C46   A    
C21   C22   A    
O4    C2    A    
O18   C47   A    
C33   C34   A    
H3    C14   S    
C54   C57   S    
C32   H15   S    
C61   H34   S    
C35   C36   A    
C24   C27   A    
C8    C16   T    
O2    C1    A    
C25   C26   A    
O14   V3    S    
C11   H5    S    
C53   C54   S    
S1    O23   S    
C22   C26   A    
S2    O26   S    
C28   H12   S    
C37   C38   A    
C5    C6    S    
C54   C59   S    
C6    C14   S    
C39   C44   A    
O17   V3    S    
C56   C58   S    
C50   C54   S    
C62   C63   S    
O15   C47   A    
O3    C4    A    
O13   V3    S    
C53   C55   S    
O19   V4    S    
O6    V2    S    
C31   H14   S    
H22   C58   S    
C42   H19   S    
C24   C25   A    
V4    O20   S    
O2    V1    S    
C18   H8    S    
C61   C62   S    
O23   H26   S    
O7    V1    S    
C10   C15   S    
O16   V4    S    
C28   C29   A    
C44   S2    S    
C7    C15   T    
O1    C2    A    
C45   C51   S    
O5    V1    S    
O8    C3    A    
C61   H33   S    
C50   H20   S    
C11   C13   S    
C52   C60   T    
C39   C40   A    
C4    C7    S    
C63   H30   S    
O9    V2    S    
C17   C22   A    
O7    V2    S    
C62   H31   S    
C3    C26   S    
O3    V1    S    
V1    O10   S    
C45   O16   A    
C33   H16   S    
C32   C33   A    
C49   C50   S    
C56   C60   S    
C49   H21   S    
S1    O22   D    
O12   V3    S    
C38   C39   A    
C36   C40   A    
O4    V1    S    
O19   C48   A    
C18   C19   A    
C57   C58   S    
C31   C36   A    
C57   H23   S    
H6    C29   S    
C63   H28   S    
C63   H29   S    
O15   V3    S    
S2    O24   D    
C49   C53   S    
O11   V4    S    
C53   H25   S    
