data_mof_unit_34198.cif
_audit_creation_date              2013-03-05T16:45:44-0500
_audit_creation_method            fapswitch 2.2
_symmetry_space_group_name_H-M    P1
_symmetry_Int_Tables_number       1
_space_group_crystal_system       triclinic
_cell_length_a                    17.413981
_cell_length_b                    10.679888
_cell_length_c                    9.84015
_cell_angle_alpha                 89.785548
_cell_angle_beta                  90.064678
_cell_angle_gamma                 89.626873
_cell_volume                      1830.01202342

loop_
_atom_site_label
_atom_site_type_symbol
_atom_site_description
_atom_site_fract_x
_atom_site_fract_y
_atom_site_fract_z
_atom_type_partial_charge
O1    O     O_R   0.500010 0.316790 0.614690 -0.596405
O2    O     O_R   0.500000 0.316760 0.385350 -0.623586
C1    C     C_R   0.498753 0.260070 0.500476 0.927892
O3    O     O_R   0.389120 0.500020 0.614710 -0.601737
O4    O     O_R   0.389110 0.499990 0.385370 -0.621846
C2    C     C_R   0.353033 0.501447 0.499976 0.867024
Zn1   Zn    Zn3+2 0.500010 0.500020 0.653130 0.999704
Zn2   Zn    Zn3+2 0.499990 0.499980 0.346870 0.951211
O5    O     O_R   0.500000 0.683240 0.614650 -0.621731
O6    O     O_R   0.499990 0.683210 0.385310 -0.628100
O7    O     O_R   0.610890 0.500010 0.614630 -0.577520
O8    O     O_R   0.610880 0.499980 0.385290 -0.619910
C3    C     C_R   0.495292 0.739933 0.499472 0.873231
C4    C     C_R   0.647011 0.499931 0.500186 0.913309
C5    C     C_R   0.852812 0.516112 0.616345 -0.215854
H1    H     H_    0.888700 0.490171 0.702226 0.178438
C6    C     C_R   0.775408 0.483675 0.615626 0.306628
C7    C     C_R   0.730167 0.515193 0.500559 -0.169993
C8    C     C_R   0.763994 0.574624 0.388034 -0.225164
H2    H     H_    0.730343 0.600502 0.299486 0.176303
C9    C     C_R   0.841364 0.604010 0.389550 -0.140663
H3    H     H_    0.867184 0.647652 0.301260 0.154129
C10   C     C_R   0.885151 0.575241 0.503849 0.086605
C11   C     C_1   0.965608 0.589546 0.499495 -0.017175
C12   C     C_1   0.033841 0.589878 0.497200 -0.047531
C13   C     C_R   0.153865 0.574122 0.620011 -0.145773
H4    H     H_    0.124169 0.591882 0.714821 0.147757
C14   C     C_R   0.231698 0.545816 0.621686 -0.130941
H5    H     H_    0.261755 0.545656 0.718088 0.190643
C15   C     C_R   0.270142 0.519841 0.499561 -0.052277
C16   C     C_R   0.229825 0.522394 0.375902 -0.199130
H6    H     H_    0.258415 0.503299 0.280412 0.173777
C17   C     C_R   0.151975 0.550865 0.374613 -0.144301
H7    H     H_    0.120791 0.550517 0.279229 0.147842
C18   C     C_R   0.114513 0.576905 0.496563 0.143002
C19   C     C_R   0.510219 0.062188 0.617969 0.148118
C20   C     C_R   0.488383 0.129019 0.503248 -0.124562
C21   C     C_R   0.449967 0.069569 0.396946 -0.242789
H8    H     H_    0.425023 0.124352 0.315064 0.159916
C22   C     C_R   0.446083 0.939274 0.394193 0.147881
C23   C     C_R   0.483239 0.871946 0.500995 -0.135147
C24   C     C_R   0.507819 0.934987 0.616596 0.119940
C25   C     C_3   0.581246 0.922331 0.694593 -0.501028
C26   C     C_3   0.584186 0.064119 0.695018 -0.423511
H9    H     H_    0.572133 0.881238 0.797254 0.210957
H10   H     H_    0.628080 0.878135 0.634343 0.203491
H11   H     H_    0.577544 0.104951 0.798070 0.217390
H12   H     H_    0.632386 0.102303 0.633930 0.234622
C27   C     C_R   0.443378 0.439907 0.071440 0.187539
N1    N     N_R   0.499490 0.499140 0.142800 -0.105218
C28   C     C_R   0.551619 0.568792 0.071886 -0.117172
H13   H     H_    0.594189 0.622310 0.126320 0.146365
C29   C     C_R   0.551697 0.568660 0.927723 -0.079928
H14   H     H_    0.594374 0.621976 0.873029 0.156175
N2    N     N_R   0.499490 0.499180 0.857150 -0.132385
C30   C     C_R   0.443165 0.440504 0.928516 0.153808
C31   C     C_3   0.425432 0.304117 0.923429 0.111965
C32   C     C_3   0.425539 0.303506 0.078077 -0.588319
H15   H     H_    0.472092 0.246620 0.877643 0.124017
H16   H     H_    0.368670 0.285622 0.125299 0.230145
H17   H     H_    0.473714 0.247484 0.121518 0.196543
C33   C     C_3   0.403096 0.878799 0.277516 -0.394562
C34   C     C_3   0.329485 0.817013 0.327128 -0.779468
H18   H     H_    0.301794 0.766470 0.241863 0.244903
H19   H     H_    0.341890 0.749508 0.410019 0.245183
H20   H     H_    0.288886 0.889253 0.365697 0.261419
H21   H     H_    0.386371 0.950019 0.200025 0.202804
H22   H     H_    0.439802 0.811023 0.222216 0.227875
N3    N     N_R   0.349814 0.280280 0.864322 0.239030
O9    O     O_R   0.342954 0.197727 0.768318 -0.387914
O10   O     O_R   0.289474 0.342942 0.903701 -0.411101
N4    N     N_R   0.745032 0.414787 0.728980 0.212993
O11   O     O_R   0.703806 0.315494 0.708321 -0.416325
O12   O     O_R   0.768578 0.438739 0.851664 -0.401509

loop_
_geom_bond_atom_site_label_1
_geom_bond_atom_site_label_2
_geom_bond_distance
_ccdc_geom_bond_type
C8    H2    1.083476 S    
O4    Zn2   1.968095 S    
C21   C22   1.393975 A    
C10   C11   1.411044 S    
C16   C17   1.387475 A    
N4    O12   1.301353 A    
C5    C6    1.393927 A    
C20   C21   1.397769 A    
Zn1   N2    2.007605 S    
C27   C30   1.406383 A    
C23   C24   1.392427 A    
C4    C7    1.458289 S    
C13   C14   1.386830 A    
C16   H6    1.083302 S    
C26   H11   1.111196 S    
C33   H22   1.107400 S    
Zn2   O8    1.967280 S    
N4    O11   1.300936 A    
C34   H19   1.106756 S    
C32   H17   1.111403 S    
C14   C15   1.403979 A    
C6    C7    1.416928 A    
C31   C32   1.521754 S    
C34   H20   1.111216 S    
N3    O10   1.302231 A    
C28   H13   1.081699 S    
N1    C28   1.367717 A    
O1    Zn1   1.994488 S    
C29   H14   1.081811 S    
C11   C12   1.188483 T    
C25   C26   1.515497 S    
Zn1   O7    1.968095 S    
C25   H9    1.111857 S    
C13   H4    1.083933 S    
O4    C2    1.291635 A    
C33   H21   1.112256 S    
C12   C18   1.410761 S    
O3    Zn1   1.967279 S    
C22   C33   1.518416 S    
C5    C10   1.393590 A    
C14   H5    1.082903 S    
C8    C9    1.385453 A    
O8    C4    1.293251 A    
O2    C1    1.282763 A    
N3    O9    1.300529 A    
C29   N2    1.367702 A    
C9    C10   1.390415 A    
C15   C16   1.404234 A    
C17   C18   1.394573 A    
C25   H10   1.112478 S    
N2    C30   1.361676 A    
C31   H15   1.112045 S    
C19   C26   1.494182 S    
C24   C25   1.495675 S    
C27   C32   1.492684 S    
C28   C29   1.418601 A    
C32   H16   1.111731 S    
C5    H1    1.084561 S    
Zn2   N1    2.008142 S    
C13   C18   1.394161 A    
C17   H7    1.083860 S    
C30   C31   1.491954 S    
C1    C20   1.412539 S    
C6    N4    1.437188 S    
O3    C2    1.291480 A    
C27   N1    1.363042 A    
O7    C4    1.290522 A    
Zn1   O5    1.991676 S    
C7    C8    1.406052 A    
O5    C3    1.285246 A    
C3    C23   1.424204 S    
C19   C20   1.384864 A    
C22   C23   1.423707 A    
C31   N3    1.463161 S    
C9    H3    1.083866 S    
C19   C24   1.359528 A    
C2    C15   1.455511 S    
Zn2   O6    1.994488 S    
O2    Zn2   1.991676 S    
C33   C34   1.525433 S    
C26   H12   1.111726 S    
C34   H18   1.110731 S    
O1    C1    1.278968 A    
O6    C3    1.280745 A    
C21   H8    1.082858 S    
