data_mof_unit_41677.cif
_audit_creation_date              2013-03-05T15:53:45-0500
_audit_creation_method            fapswitch 2.2
_symmetry_space_group_name_H-M    P1
_symmetry_Int_Tables_number       1
_space_group_crystal_system       triclinic
_cell_length_a                    10.638494
_cell_length_b                    10.719268
_cell_length_c                    9.885556
_cell_angle_alpha                 88.911529
_cell_angle_beta                  90.115298
_cell_angle_gamma                 91.934783
_cell_volume                      1126.47080487

loop_
_atom_site_label
_atom_site_type_symbol
_atom_site_description
_atom_site_fract_x
_atom_site_fract_y
_atom_site_fract_z
_atom_type_partial_charge
O1    O     O_R   0.500000 0.316780 0.614690 -0.659555
O2    O     O_R   0.499990 0.316750 0.385360 -0.640403
C1    C     C_R   0.506384 0.259623 0.502405 0.852505
O3    O     O_R   0.314800 0.499990 0.614670 -0.665724
O4    O     O_R   0.314790 0.499970 0.385330 -0.634324
C2    C     C_R   0.257816 0.498163 0.499711 0.883208
Zn1   Zn    Zn3+2 0.500010 0.500020 0.653130 0.952594
Zn2   Zn    Zn3+2 0.499990 0.499980 0.346870 0.939609
O5    O     O_R   0.500010 0.683250 0.614640 -0.608764
O6    O     O_R   0.500000 0.683220 0.385310 -0.619765
O7    O     O_R   0.685210 0.500030 0.614670 -0.577849
O8    O     O_R   0.685200 0.500010 0.385330 -0.631789
C3    C     C_R   0.486622 0.738603 0.499146 0.936983
C4    C     C_R   0.742323 0.500533 0.499946 0.879481
C5    C     C_3   0.068475 0.391918 0.591102 -0.517978
H1    H     H_    0.100981 0.404068 0.697269 0.208892
H2    H     H_    0.102420 0.300723 0.556456 0.174365
C6    C     C_3   0.924447 0.390109 0.588199 -0.369329
H3    H     H_    0.888603 0.300356 0.545335 0.167427
H4    H     H_    0.887555 0.392845 0.693082 0.231547
H5    H     H_    0.114170 0.635247 0.660355 0.141278
C7    C     C_3   0.079273 0.626677 0.554180 0.183024
C8    C     C_3   0.070236 0.481399 0.352966 -0.353314
C9    C     C_3   0.121600 0.499893 0.498969 0.114818
H6    H     H_    0.107486 0.556578 0.283190 0.233175
H7    H     H_    0.100312 0.390556 0.313346 0.164327
C10   C     C_3   0.878933 0.501062 0.499865 -0.002068
C11   C     C_3   0.933875 0.629290 0.550436 0.117208
C12   C     C_3   0.927468 0.482908 0.353273 -0.450005
H8    H     H_    0.888821 0.393546 0.311852 0.200484
H9    H     H_    0.896639 0.559877 0.284858 0.199552
H10   H     H_    0.905960 0.701897 0.474808 0.128298
H11   H     H_    0.534069 0.115303 0.290607 0.173280
C13   C     C_R   0.504250 0.104002 0.763369 -0.156989
H12   H     H_    0.558438 0.188550 0.782914 0.172991
C14   C     C_R   0.457346 0.038551 0.876794 -0.141204
H13   H     H_    0.469346 0.077176 0.976603 0.147439
C15   C     C_R   0.392702 0.925023 0.861186 -0.143041
H14   H     H_    0.351418 0.876455 0.948145 0.147279
C16   C     C_R   0.386607 0.871254 0.734146 -0.147313
H15   H     H_    0.336646 0.782113 0.725441 0.158342
C17   C     C_R   0.445015 0.931765 0.620865 0.102772
C18   C     C_R   0.486598 0.056250 0.631318 0.098855
C19   C     C_R   0.509027 0.125343 0.508609 -0.122194
C20   C     C_R   0.514965 0.064854 0.384797 -0.220163
H16   H     H_    0.514692 0.892395 0.285352 0.170133
C21   C     C_R   0.499509 0.937876 0.380650 -0.203802
C22   C     C_R   0.468855 0.870638 0.498715 -0.101511
H17   H     H_    0.643188 0.638940 0.123037 0.154853
C23   C     C_R   0.332122 0.338240 0.142938 -0.175578
H18   H     H_    0.327212 0.331393 0.250247 0.201502
C24   C     C_R   0.248333 0.259988 0.073762 -0.206996
H19   H     H_    0.183659 0.198078 0.129326 0.153901
C25   C     C_R   0.248201 0.260441 0.933760 -0.177566
H20   H     H_    0.183864 0.198495 0.880055 0.158419
C26   C     C_R   0.332318 0.338679 0.862241 -0.173636
H21   H     H_    0.329350 0.330971 0.755143 0.205152
C27   C     C_R   0.417274 0.420416 0.928953 0.149189
C28   C     C_R   0.417250 0.420362 0.073701 0.175484
N1    N     N_R   0.498810 0.498800 0.142780 -0.125527
C29   C     C_R   0.578849 0.576499 0.070187 -0.123472
H22   H     H_    0.642793 0.639141 0.871751 0.214887
C30   C     C_R   0.578734 0.576521 0.926890 -0.076466
N2    N     N_R   0.498760 0.498720 0.857170 -0.137905
O9    O     O_3   0.131678 0.726231 0.475724 -0.802242
H23   H     H_    0.124717 0.802714 0.530087 0.336080
N3    N     N_R   0.883846 0.664153 0.682467 0.190524
O10   O     O_R   0.911372 0.602200 0.792503 -0.436370
O11   O     O_R   0.816231 0.762602 0.691143 -0.417010

loop_
_geom_bond_atom_site_label_1
_geom_bond_atom_site_label_2
_geom_bond_distance
_ccdc_geom_bond_type
C7    C11   1.548374 S    
C5    H1    1.112979 S    
C5    C6    1.531930 S    
C23   C24   1.390923 A    
C18   C19   1.425491 A    
Zn2   O6    2.007690 S    
C7    O9    1.407574 S    
C5    H2    1.113712 S    
C12   H8    1.114402 S    
C4    C10   1.453147 S    
C10   C12   1.557240 S    
H11   C20   1.083944 S    
C6    H4    1.110618 S    
C21   C22   1.393460 A    
Zn2   O8    2.005942 S    
C2    C9    1.449880 S    
C11   N3    1.470114 S    
C14   C15   1.388487 A    
O2    C1    1.301529 A    
C28   N1    1.377061 A    
C12   H9    1.114386 S    
C17   C22   1.412188 A    
H5    C7    1.117010 S    
C24   H19   1.082754 S    
Zn1   O7    2.007345 S    
N3    O11   1.301305 A    
H22   C30   1.081117 S    
N1    C29   1.365856 A    
O3    Zn1   2.005940 S    
C23   C28   1.410433 A    
C8    C12   1.519483 S    
C16   C17   1.417343 A    
C14   H13   1.082898 S    
C15   C16   1.392211 A    
C24   C25   1.383908 A    
C13   H12   1.077942 S    
C13   C14   1.395415 A    
C20   C21   1.366863 A    
C27   N2    1.374876 A    
O4    C2    1.283514 A    
Zn1   N2    2.016901 S    
O7    C4    1.287529 A    
C7    C9    1.555024 S    
C1    C19   1.440745 S    
O4    Zn2   2.007344 S    
H17   C29   1.081834 S    
C17   C18   1.397203 A    
C13   C18   1.420997 A    
C8    C9    1.556098 S    
C30   N2    1.366005 A    
C11   H10   1.116011 S    
C8    H6    1.113853 S    
C15   H14   1.082581 S    
C26   H21   1.063833 S    
O3    C2    1.287112 A    
O9    H23   0.993698 S    
C8    H7    1.113571 S    
O2    Zn2   1.993498 S    
C10   C11   1.565730 S    
Zn1   O5    1.993498 S    
O5    C3    1.286536 A    
H16   C21   1.083816 S    
C6    H3    1.113839 S    
O1    Zn1   2.007690 S    
C16   H15   1.082399 S    
C19   C20   1.398469 A    
C23   H18   1.063213 S    
C27   C28   1.430901 A    
C25   H20   1.082816 S    
C26   C27   1.409090 A    
C5    C9    1.551264 S    
O6    C3    1.292600 A    
C29   C30   1.416559 A    
Zn2   N1    2.017834 S    
C6    C10   1.552169 S    
N3    O10   1.301686 A    
O8    C4    1.284663 A    
C25   C26   1.390449 A    
O1    C1    1.281026 A    
C3    C22   1.434123 S    
