data_mof_unit_22580.cif
_audit_creation_date              2013-03-05T16:04:29-0500
_audit_creation_method            fapswitch 2.2
_symmetry_space_group_name_H-M    P1
_symmetry_Int_Tables_number       1
_space_group_crystal_system       triclinic
_cell_length_a                    10.930481
_cell_length_b                    9.611111
_cell_length_c                    15.029833
_cell_angle_alpha                 90.548018
_cell_angle_beta                  92.809971
_cell_angle_gamma                 90.28183
_cell_volume                      1576.95149833

loop_
_atom_site_label
_atom_site_type_symbol
_atom_site_description
_atom_site_fract_x
_atom_site_fract_y
_atom_site_fract_z
_atom_type_partial_charge
O1    O     O_R   0.319640 0.618740 0.499990 -0.525657
O2    O     O_R   0.680360 0.381260 0.500010 -0.521973
O3    O     O_R   0.680360 0.618740 0.500010 -0.521451
O4    O     O_R   0.319640 0.381260 0.499990 -0.513825
C1    C     C_R   0.262419 0.499844 0.501632 1.005653
C2    C     C_R   0.737710 0.500200 0.499616 1.024694
O5    O     O_R   0.499970 0.618800 0.370260 -0.555201
O6    O     O_R   0.500030 0.381200 0.629740 -0.548991
O7    O     O_R   0.500030 0.618800 0.629740 -0.556356
O8    O     O_R   0.499970 0.381200 0.370260 -0.549452
C3    C     C_R   0.496659 0.499377 0.329133 0.896685
C4    C     C_R   0.502618 0.500158 0.670864 0.885727
Cu1   Cu    Cu3+1 0.500000 0.640660 0.500000 1.167836
Cu2   Cu    Cu3+1 0.500000 0.359340 0.500000 1.174783
C5    C     C_R   0.612545 0.526126 0.818121 0.297608
C6    C     C_R   0.389594 0.468064 0.181357 0.305518
C7    C     C_R   0.504059 0.496704 0.767641 -0.210049
C8    C     C_R   0.497895 0.495948 0.232504 -0.214533
C9    C     C_R   0.399177 0.448497 0.807699 0.293024
C10   C     C_R   0.609631 0.515182 0.192507 0.289223
C11   C     C_R   0.399350 0.435687 0.901341 -0.096628
C12   C     C_R   0.615297 0.502899 0.099008 -0.096081
C13   C     C_R   0.507063 0.472162 0.953181 -0.028419
C14   C     C_R   0.506150 0.472826 0.047118 -0.031677
C15   C     C_R   0.616513 0.505484 0.911212 -0.095135
C16   C     C_R   0.395814 0.443427 0.089014 -0.094395
C17   C     C_R   0.297786 0.381159 0.944718 0.248272
C18   C     C_R   0.727620 0.511156 0.056154 0.244200
C19   C     C_R   0.295965 0.384756 0.038005 0.254321
C20   C     C_R   0.728208 0.509524 0.962866 0.250713
C21   C     C_R   0.062925 0.373628 0.501445 0.593319
C22   C     C_R   0.937413 0.626472 0.501400 0.587004
C23   C     C_R   0.936081 0.373808 0.497967 0.583368
C24   C     C_R   0.064269 0.626282 0.504867 0.575904
C25   C     C_R   0.871787 0.500251 0.499348 -0.466055
C26   C     C_R   0.128518 0.499840 0.503219 -0.479367
C27   C     C_R   0.438902 0.072573 0.433432 0.310661
C28   C     C_R   0.560299 0.927428 0.566826 0.314648
C29   C     C_R   0.560753 0.075420 0.566767 0.327948
C30   C     C_R   0.439098 0.924554 0.433277 0.324399
N1    N     N_R   0.500000 0.852070 0.500000 -0.315069
N2    N     N_R   0.500000 0.147930 0.500000 -0.314586
N3    N     N_R   0.715704 0.584209 0.775284 0.166019
O9    O     O_R   0.761650 0.520535 0.707936 -0.312053
O10   O     O_R   0.766217 0.699301 0.805422 -0.189735
N4    N     N_R   0.272775 0.485440 0.220388 0.156912
O11   O     O_R   0.248810 0.425373 0.294706 -0.295338
O12   O     O_R   0.192174 0.569093 0.183774 -0.203024
N5    N     N_R   0.290534 0.423668 0.752270 0.128038
O13   O     O_R   0.220731 0.527841 0.729173 -0.290741
O14   O     O_R   0.275213 0.304600 0.711157 -0.237437
N6    N     N_R   0.714331 0.557672 0.247480 0.137166
O15   O     O_R   0.745656 0.688378 0.252101 -0.228254
O16   O     O_R   0.767509 0.469516 0.301662 -0.323171
N7    N     N_R   0.203073 0.305598 0.895821 0.183439
O17   O     O_R   0.103960 0.368915 0.867842 -0.151983
O18   O     O_R   0.209237 0.170744 0.889267 -0.204222
N8    N     N_R   0.842250 0.500029 0.105966 0.185447
O19   O     O_R   0.916125 0.606415 0.114150 -0.166869
O20   O     O_R   0.872751 0.382695 0.143118 -0.189758
N9    N     N_R   0.199375 0.312811 0.080514 0.185034
O21   O     O_R   0.085595 0.332116 0.054536 -0.170695
O22   O     O_R   0.225831 0.216480 0.138474 -0.191486
N10   N     N_R   0.841899 0.485372 0.921631 0.185017
O23   O     O_R   0.933728 0.571020 0.934558 -0.177376
O24   O     O_R   0.854167 0.374613 0.872478 -0.193502
F1    F     F_    0.120497 0.248879 0.503870 -0.489993
F2    F     F_    0.879888 0.751238 0.498710 -0.494159
F3    F     F_    0.877260 0.249175 0.491548 -0.496829
F4    F     F_    0.123153 0.750923 0.510932 -0.497657
N11   N     N_R   0.371979 0.141825 0.363150 0.183280
O25   O     O_R   0.254066 0.153705 0.367595 -0.156662
O26   O     O_R   0.419304 0.149334 0.285566 -0.262937
N12   N     N_R   0.623564 0.857968 0.638547 0.176521
O27   O     O_R   0.739838 0.833515 0.633683 -0.170524
O28   O     O_R   0.575709 0.857033 0.716116 -0.260102
N13   N     N_R   0.625363 0.147821 0.638267 0.175613
O29   O     O_R   0.740029 0.179886 0.631088 -0.187336
O30   O     O_R   0.580451 0.149334 0.716868 -0.263558
N14   N     N_R   0.374725 0.852106 0.361692 0.174300
O31   O     O_R   0.260983 0.816509 0.369582 -0.191809
O32   O     O_R   0.418487 0.853199 0.282729 -0.260188

loop_
_geom_bond_atom_site_label_1
_geom_bond_atom_site_label_2
_geom_bond_distance
_ccdc_geom_bond_type
N7    O17   1.299049 A    
C3    C8    1.453096 S    
C20   N10   1.434532 S    
C17   C19   1.403304 A    
O3    C2    1.303171 A    
Cu1   N1    2.031885 S    
C27   N11   1.427028 S    
N13   O29   1.299080 A    
C21   F1    1.356792 S    
N12   O28   1.301088 A    
O1    C1    1.301015 A    
C29   N13   1.429765 S    
C9    C11   1.413876 A    
C14   C16   1.416110 A    
C27   C30   1.422622 A    
C28   C29   1.422355 A    
C17   N7    1.430753 S    
C5    C15   1.413620 A    
N8    O20   1.300830 A    
C1    C26   1.464963 S    
C2    C25   1.465734 S    
C27   N2    1.373836 A    
N9    O22   1.301180 A    
O7    Cu1   1.963238 S    
C23   C25   1.407298 A    
N5    O14   1.301499 A    
C4    C7    1.454544 S    
C13   C14   1.412329 A    
C30   N14   1.429731 S    
C24   F4    1.357268 S    
C24   C26   1.407185 A    
O3    Cu1   1.983668 S    
C23   F3    1.357090 S    
C22   F2    1.356748 S    
C11   C17   1.415588 A    
C12   C18   1.416344 A    
Cu1   Cu2   2.703798 S    
O2    C2    1.301238 A    
N6    O16   1.300206 A    
C29   N2    1.373412 A    
N4    O12   1.301287 A    
N13   O30   1.301320 A    
C11   C13   1.420185 A    
C6    C16   1.410694 A    
C19   N9    1.438191 S    
N12   O27   1.299061 A    
C22   C25   1.405613 A    
C28   N1    1.372680 A    
N14   O32   1.301264 A    
O8    Cu2   1.963238 S    
C6    N4    1.440881 S    
N11   O26   1.301117 A    
N14   O31   1.299163 A    
N8    O19   1.300915 A    
C22   C24   1.385034 A    
O5    C3    1.297935 A    
N3    O9    1.300909 A    
C9    N5    1.434434 S    
O6    C4    1.294012 A    
C21   C23   1.384902 A    
N3    O10   1.301354 A    
C30   N1    1.373539 A    
C10   C12   1.413504 A    
N7    O18   1.301228 A    
C12   C14   1.419920 A    
O1    Cu1   1.981608 S    
N6    O15   1.300743 A    
C28   N12   1.425166 S    
C15   C20   1.414494 A    
C5    C7    1.402185 A    
N4    O11   1.299642 A    
O6    Cu2   1.959241 S    
O4    C1    1.303362 A    
C18   N8    1.432737 S    
Cu2   N2    2.031886 S    
N10   O23   1.300972 A    
C18   C20   1.402364 A    
C5    N3    1.438549 S    
N11   O25   1.299369 A    
C10   N6    1.433665 S    
C7    C9    1.399711 A    
C8    C10   1.399680 A    
C13   C15   1.416252 A    
O4    Cu2   1.983669 S    
N9    O21   1.299848 A    
O2    Cu2   1.981607 S    
O7    C4    1.301985 A    
O8    C3    1.298124 A    
O5    Cu1   1.959241 S    
C16   C19   1.414401 A    
C6    C8    1.402788 A    
N5    O13   1.301270 A    
C21   C26   1.405399 A    
N10   O24   1.301162 A    
