data_mof_unit_36075.cif
_audit_creation_date              2013-03-05T15:49:57-0500
_audit_creation_method            fapswitch 2.2
_symmetry_space_group_name_H-M    P1
_symmetry_Int_Tables_number       1
_space_group_crystal_system       triclinic
_cell_length_a                    13.552624
_cell_length_b                    13.60572
_cell_length_c                    27.674863
_cell_angle_alpha                 90.484563
_cell_angle_beta                  90.377403
_cell_angle_gamma                 119.97352
_cell_volume                      4420.05309546

loop_
_atom_site_label
_atom_site_type_symbol
_atom_site_description
_atom_site_fract_x
_atom_site_fract_y
_atom_site_fract_z
_atom_type_partial_charge
O1    O     O_R   0.302900 0.805360 0.446400 -0.501475
O2    O     O_R   0.522090 0.841370 0.450730 -0.492522
C1    C     C_R   0.619582 0.898093 0.431453 0.548687
O3    O     O_R   0.693280 0.995650 0.447220 -0.502325
O4    O     O_R   0.657260 0.178740 0.451050 -0.496922
C2    C     C_R   0.599723 0.218679 0.431362 0.551739
O5    O     O_R   0.502640 0.195380 0.446850 -0.491375
O6    O     O_R   0.319630 0.976590 0.450330 -0.483273
C3    C     C_R   0.279105 0.878625 0.430639 0.562424
O7    O     O_R   0.303680 0.807790 0.552740 -0.517103
O8    O     O_R   0.522820 0.843620 0.549310 -0.502157
C4    C     C_R   0.621976 0.900878 0.568900 0.543907
O9    O     O_R   0.694060 0.998080 0.553560 -0.509932
O10   O     O_R   0.657980 0.180990 0.549630 -0.510437
C5    C     C_R   0.603901 0.226929 0.567244 0.571178
O11   O     O_R   0.503420 0.197810 0.553190 -0.467926
O12   O     O_R   0.320350 0.978840 0.548910 -0.468573
C6    C     C_R   0.279655 0.881489 0.568010 0.598676
Cr1   Cr    Cr6+3 0.417720 0.831920 0.499820 1.044867
Cr2   Cr    Cr6+3 0.668190 0.085770 0.500360 1.047919
Cr3   Cr    Cr6+3 0.414060 0.082260 0.499840 1.098575
O13   O     O_3   0.499990 0.999990 0.500010 -0.272543
C7    C     C_1   0.630880 0.265610 0.383968 -0.001608
C8    C     C_R   0.766178 0.380394 0.270351 -0.131140
C9    C     C_R   0.775535 0.393858 0.220247 -0.133850
C10   C     C_R   0.570059 0.270083 0.210977 0.295051
C11   C     C_R   0.562171 0.258274 0.261228 0.001026
C12   C     C_R   0.659383 0.312793 0.290923 -0.006940
C13   C     C_R   0.678490 0.339081 0.190205 0.046296
C14   C     C_1   0.691135 0.363229 0.139205 -0.033322
C15   C     C_1   0.648091 0.292469 0.342123 -0.052846
C16   C     C_1   0.701321 0.390575 0.097396 0.017118
H1    H     H_    0.842050 0.422511 0.292956 0.124936
H2    H     H_    0.858635 0.448104 0.204900 0.123799
H3    H     H_    0.479479 0.205158 0.277152 0.132750
C17   C     C_1   0.230107 0.861660 0.383108 -0.000880
C18   C     C_R   0.261584 0.923216 0.259256 -0.077242
C19   C     C_R   0.243669 0.913000 0.209190 -0.073933
C20   C     C_R   0.057222 0.747848 0.220794 -0.103316
C21   C     C_R   0.075254 0.757930 0.270841 -0.108579
C22   C     C_R   0.177724 0.845463 0.290168 0.030048
C23   C     C_R   0.141635 0.824863 0.189849 0.029344
C24   C     C_1   0.121797 0.811799 0.138437 -0.037116
C25   C     C_1   0.201224 0.852468 0.341259 -0.052198
C26   C     C_1   0.095843 0.793705 0.096216 0.011276
H4    H     H_    0.341419 0.990741 0.273883 0.148319
H5    H     H_    0.309440 0.972943 0.185665 0.171880
H6    H     H_    0.977901 0.679363 0.206172 0.129328
H7    H     H_    0.010186 0.696818 0.294298 0.109289
C27   C     C_1   0.634462 0.865402 0.383950 -0.005517
C28   C     C_R   0.684605 0.757026 0.274198 -0.139962
C29   C     C_R   0.693546 0.740900 0.224598 0.036291
C30   C     C_R   0.625466 0.872752 0.207536 -0.098678
C31   C     C_R   0.616433 0.888553 0.257173 0.036921
C32   C     C_R   0.647194 0.830244 0.290645 -0.005646
C33   C     C_R   0.664050 0.800563 0.191004 0.020731
C34   C     C_1   0.677534 0.793660 0.139654 0.015170
C35   C     C_1   0.641929 0.845998 0.341992 -0.062744
C36   C     C_1   0.694347 0.785977 0.097466 0.042633
H8    H     H_    0.707616 0.712698 0.300349 0.108224
H9    H     H_    0.603527 0.917894 0.181391 0.161709
C37   C     C_R   0.650624 0.298773 0.610589 0.031528
C38   C     C_R   0.739015 0.295159 0.635918 -0.127947
C39   C     C_R   0.761185 0.329251 0.683969 -0.111116
C40   C     C_R   0.693160 0.364368 0.707803 0.021735
C41   C     C_R   0.613043 0.379355 0.681076 -0.126697
C42   C     C_R   0.595834 0.353228 0.631974 0.013809
C43   C     C_R   0.674559 0.458818 0.781152 -0.115106
C44   C     C_R   0.668894 0.466413 0.830503 -0.101530
C45   C     C_R   0.730021 0.328147 0.841131 -0.106292
C46   C     C_R   0.728946 0.315039 0.791001 -0.112701
C47   C     C_R   0.701484 0.381017 0.760575 0.020507
C48   C     C_R   0.697696 0.402543 0.860757 0.053364
H10   H     H_    0.786021 0.258486 0.619749 0.184856
H11   H     H_    0.657522 0.514380 0.759394 0.170713
H12   H     H_    0.645987 0.526124 0.845227 0.142221
H13   H     H_    0.827590 0.322443 0.702927 0.139991
H14   H     H_    0.748288 0.252702 0.776334 0.144973
H15   H     H_    0.754623 0.280122 0.864347 0.131183
H16   H     H_    0.560699 0.408490 0.698320 0.120234
C49   C     C_R   0.231699 0.866159 0.616215 0.000601
C50   C     C_R   0.150413 0.897915 0.629441 0.050819
C51   C     C_R   0.121060 0.893675 0.678577 0.230380
C52   C     C_R   0.173734 0.857862 0.713285 0.016262
C53   C     C_R   0.254002 0.828100 0.699262 -0.148773
C54   C     C_R   0.282180 0.831625 0.651419 -0.158995
C55   C     C_R   0.076691 0.720992 0.777148 -0.118925
C56   C     C_R   0.048223 0.693168 0.825410 0.231641
C57   C     C_R   0.140857 0.895162 0.845756 -0.167601
C58   C     C_R   0.169630 0.921599 0.797462 -0.134980
C59   C     C_R   0.136863 0.834215 0.763273 -0.017107
C60   C     C_R   0.081509 0.781384 0.860102 0.058824
H17   H     H_    0.052235 0.654331 0.750136 0.116408
H18   H     H_    0.217592 0.009527 0.786746 0.142291
H19   H     H_    0.164632 0.963224 0.871927 0.135070
H20   H     H_    0.293638 0.799743 0.725626 0.163513
H21   H     H_    0.346540 0.809825 0.642036 0.145581
C61   C     C_R   0.645605 0.862940 0.615318 -0.028910
C62   C     C_R   0.559017 0.761749 0.634618 -0.178643
C63   C     C_R   0.562229 0.733632 0.682604 0.021126
C64   C     C_R   0.652188 0.812144 0.712846 0.120909
C65   C     C_R   0.743784 0.912465 0.693624 0.046235
C66   C     C_R   0.743599 0.934478 0.643911 -0.017663
C67   C     C_R   0.737896 0.759358 0.778998 0.203220
C68   C     C_R   0.754484 0.752287 0.828128 -0.180749
C69   C     C_R   0.606459 0.797631 0.847854 0.229528
C70   C     C_R   0.587425 0.803354 0.797673 0.267504
C71   C     C_R   0.656540 0.787888 0.764080 0.168479
C72   C     C_R   0.690013 0.771587 0.862077 0.026531
H22   H     H_    0.486217 0.704837 0.612279 0.128350
H23   H     H_    0.818746 0.732309 0.840187 0.114760
O14   O     O_R   0.819150 0.845650 0.033320 -0.503224
O15   O     O_R   0.006060 0.815720 0.028680 -0.490981
C73   C     C_R   0.049280 0.761087 0.048282 0.549857
O16   O     O_R   0.028100 0.664460 0.032550 -0.504587
O17   O     O_R   0.811290 0.477490 0.029660 -0.497463
C74   C     C_R   0.714531 0.436148 0.049811 0.556593
O18   O     O_R   0.638120 0.455970 0.034270 -0.493573
O19   O     O_R   0.667540 0.672320 0.030160 -0.480232
C75   C     C_R   0.723698 0.770729 0.049498 0.563401
O20   O     O_R   0.814460 0.840990 0.926980 -0.501511
O21   O     O_R   0.001710 0.811400 0.930110 -0.521883
C76   C     C_R   0.039949 0.753154 0.909504 0.563930
O22   O     O_R   0.023410 0.659800 0.926210 -0.441930
O23   O     O_R   0.806940 0.473170 0.931090 -0.471616
C77   C     C_R   0.708321 0.430927 0.911719 0.533809
O24   O     O_R   0.633420 0.451310 0.927930 -0.521775
O25   O     O_R   0.663190 0.668000 0.931580 -0.496323
C78   C     C_R   0.716700 0.765176 0.912216 0.604701
Cr4   Cr    Cr6+3 0.908000 0.821090 0.979770 1.050126
Cr5   Cr    Cr6+3 0.912420 0.571130 0.979880 1.075032
Cr6   Cr    Cr6+3 0.657970 0.566940 0.980940 1.066072
O26   O     O_3   0.826130 0.653050 0.980200 -0.271460
C79   C     C_2   0.734782 0.661903 0.210409 0.223719
H24   H     H_    0.758995 0.621877 0.238232 0.092776
O27   O     O_2   0.741908 0.639600 0.168226 -0.514466
C80   C     C_2   0.575860 0.966702 0.273373 0.219096
H25   H     H_    0.567067 0.979418 0.311489 0.108599
O28   O     O_2   0.551597 0.018248 0.244138 -0.532981
C81   C     C_2   0.520279 0.384169 0.605163 0.254154
H26   H     H_    0.456421 0.394560 0.624390 0.098194
O29   O     O_2   0.532863 0.405016 0.562085 -0.474093
C82   C     C_2   0.091857 0.931754 0.593067 0.265626
H27   H     H_    0.048901 0.977125 0.604446 0.150249
O30   O     O_2   0.087504 0.906614 0.550349 -0.507047
O31   O     O_3   0.984488 0.580993 0.838946 -0.670949
H28   H     H_    0.967349 0.530991 0.810119 0.321986
O32   O     O_3   0.038123 0.920239 0.690688 -0.730696
H29   H     H_    0.027435 0.916536 0.726038 0.347518
O33   O     O_3   0.470131 0.213651 0.184217 -0.706477
H30   H     H_    0.487030 0.223261 0.149313 0.330995
O34   O     O_3   0.801672 0.741728 0.744844 -0.700866
H31   H     H_    0.854810 0.722528 0.761444 0.329109
C83   C     C_2   0.468690 0.621916 0.699062 0.234019
H32   H     H_    0.394684 0.573114 0.675835 0.103885
O35   O     O_2   0.473467 0.581218 0.737539 -0.518883
O36   O     O_3   0.504482 0.824931 0.780239 -0.710756
H33   H     H_    0.440958 0.795315 0.803413 0.332826
O37   O     O_3   0.549987 0.821441 0.883338 -0.699966
H34   H     H_    0.524323 0.872316 0.870020 0.336486
C84   C     C_2   0.840785 0.994014 0.725164 0.294550
H35   H     H_    0.927121 0.035716 0.711756 0.175937
O38   O     O_2   0.824836 0.017959 0.765896 -0.514969
C85   C     C_2   0.844775 0.031958 0.621964 0.234619
H36   H     H_    0.877090 0.020008 0.587956 0.135563
O39   O     O_2   0.889731 0.126545 0.640470 -0.532157

loop_
_geom_bond_atom_site_label_1
_geom_bond_atom_site_label_2
_geom_bond_distance
_ccdc_geom_bond_type
C55   C56   1.394813 A    
O36   H33   0.989883 S    
C55   C59   1.394440 A    
C29   C79   1.489190 S    
C39   H13   1.082431 S    
O20   Cr4   2.034710 S    
O25   C78   1.272882 A    
C73   O16   1.269629 A    
C58   C59   1.397811 A    
C76   O22   1.266536 A    
O4    Cr2   1.923019 S    
O16   Cr5   2.035789 S    
C53   C54   1.375023 A    
C33   C34   1.442229 S    
C43   H11   1.080574 S    
C80   O28   1.221098 D    
O8    Cr1   1.916800 S    
C66   C85   1.488483 S    
C77   O24   1.262459 A    
C37   C42   1.413738 A    
O19   Cr6   1.925308 S    
C85   H36   1.085355 S    
C18   C19   1.398819 A    
C81   O29   1.221025 D    
C19   C23   1.399715 A    
O4    C2    1.273970 A    
C53   H20   1.084640 S    
C82   H27   1.085065 S    
C34   C36   1.204683 T    
C31   C80   1.487708 S    
C69   C70   1.420706 A    
C2    C7    1.434711 S    
C61   C66   1.420851 A    
C61   C62   1.401515 A    
C6    C49   1.458204 S    
O17   C74   1.274718 A    
C44   H12   1.081915 S    
C54   H21   1.084612 S    
O24   Cr6   2.041933 S    
C70   O36   1.381145 S    
C43   C44   1.374348 A    
C30   H9    1.084570 S    
C52   C53   1.393206 A    
C51   C52   1.419891 A    
O6    C3    1.275739 A    
C3    C17   1.433427 S    
C70   C71   1.411062 A    
C8    C9    1.398492 A    
C44   C48   1.398389 A    
C45   C46   1.396312 A    
C52   C59   1.457063 S    
C13   C14   1.443684 S    
C16   C74   1.434147 S    
C4    C61   1.479918 S    
C49   C54   1.399345 A    
C9    H2    1.083765 S    
C64   C71   1.465973 S    
C41   C42   1.390008 A    
C68   H23   1.085363 S    
Cr3   O13   1.977808 S    
O25   Cr6   1.922890 S    
C67   C68   1.388643 A    
C84   O38   1.221036 D    
C1    C27   1.431775 S    
C58   H18   1.083146 S    
C20   C23   1.403724 A    
C36   C75   1.431182 S    
C9    C13   1.404327 A    
O1    Cr1   2.033837 S    
O15   Cr4   1.917988 S    
C28   C29   1.403830 A    
C27   C35   1.204712 T    
C64   C65   1.419501 A    
O10   Cr2   1.925756 S    
C10   O33   1.382117 S    
Cr1   O13   1.981007 S    
O1    C3    1.270672 A    
C81   H26   1.085881 S    
O15   C73   1.275773 A    
C60   C76   1.461793 S    
C20   C21   1.398472 A    
O14   C75   1.269159 A    
Cr6   O26   1.974846 S    
C79   O27   1.220258 D    
C11   H3    1.084004 S    
C26   C73   1.433223 S    
C62   H22   1.084306 S    
C49   C50   1.418621 A    
C51   O32   1.383909 S    
O22   Cr5   2.042233 S    
C7    C15   1.206071 T    
C57   H19   1.083225 S    
C37   C38   1.406119 A    
O23   Cr5   1.919244 S    
O37   H34   0.989513 S    
O7    Cr1   2.042634 S    
C43   C47   1.398714 A    
C45   C48   1.395851 A    
C19   H5    1.083403 S    
O12   C6    1.274257 A    
C10   C11   1.399947 A    
C56   C60   1.414091 A    
O32   H29   0.987923 S    
C57   C60   1.404093 A    
C42   C81   1.484006 S    
C24   C26   1.205330 T    
C83   H32   1.085771 S    
C2    O5    1.268208 A    
C21   C22   1.399975 A    
Cr2   O13   1.974778 S    
C40   C41   1.407423 A    
C72   C78   1.445930 S    
O23   C77   1.273530 A    
C22   C25   1.439159 S    
C17   C25   1.205354 T    
Cr4   O26   1.980992 S    
C23   C24   1.439176 S    
C1    O3    1.268700 A    
C57   C58   1.393763 A    
C67   C71   1.400430 A    
O34   H31   0.991756 S    
O31   H28   0.991819 S    
C30   C33   1.398640 A    
C63   C83   1.489575 S    
C82   O30   1.220738 D    
C68   C72   1.396788 A    
C31   C32   1.413901 A    
O9    Cr2   2.038364 S    
O2    Cr1   1.926016 S    
O33   H30   0.988827 S    
C83   O35   1.220488 D    
C12   C15   1.440437 S    
C8    C12   1.398028 A    
O20   C78   1.267487 A    
C50   C82   1.489118 S    
Cr5   O26   1.977972 S    
O6    Cr3   1.920250 S    
O19   C75   1.273847 A    
O11   Cr3   2.037882 S    
C30   C31   1.404189 A    
C79   H24   1.086034 S    
C38   H10   1.082871 S    
C40   C47   1.470957 S    
C41   H16   1.081839 S    
C80   H25   1.084465 S    
C8    H1    1.083404 S    
C62   C63   1.391532 A    
C39   C40   1.398608 A    
C67   O34   1.382776 S    
C85   O39   1.221056 D    
C48   C77   1.446230 S    
O21   C76   1.276084 A    
C46   C47   1.412744 A    
O5    Cr3   2.043464 S    
C74   O18   1.266996 A    
C14   C16   1.205952 T    
C21   H7    1.083724 S    
C45   H15   1.083005 S    
O17   Cr5   1.925978 S    
C84   H35   1.083792 S    
O7    C6    1.269223 A    
C65   C84   1.494066 S    
C5    O11   1.270436 A    
C55   H17   1.084528 S    
C63   C64   1.413528 A    
C5    C37   1.465319 S    
O2    C1    1.274113 A    
C28   C32   1.398807 A    
C18   C22   1.403366 A    
C65   C66   1.410747 A    
O12   Cr3   1.925222 S    
O18   Cr6   2.041396 S    
C38   C39   1.385247 A    
O3    Cr2   2.043171 S    
C29   C33   1.419585 A    
C4    O9    1.267928 A    
C10   C13   1.418833 A    
C50   C51   1.412886 A    
C32   C35   1.442857 S    
C11   C12   1.400087 A    
C56   O31   1.382916 S    
O10   C5    1.273861 A    
C28   H8    1.084936 S    
O14   Cr4   2.043310 S    
C18   H4    1.083187 S    
O21   Cr4   1.925188 S    
C46   H14   1.081918 S    
C69   O37   1.381052 S    
O8    C4    1.282155 A    
C20   H6    1.083801 S    
C69   C72   1.400082 A    
