data_mof_unit_49663.cif
_audit_creation_date              2013-03-05T15:40:34-0500
_audit_creation_method            fapswitch 2.2
_symmetry_space_group_name_H-M    P1
_symmetry_Int_Tables_number       1
_space_group_crystal_system       triclinic
_cell_length_a                    15.08967
_cell_length_b                    8.776564
_cell_length_c                    7.514543
_cell_angle_alpha                 103.293124
_cell_angle_beta                  93.498888
_cell_angle_gamma                 93.247219
_cell_volume                      964.159662373

loop_
_atom_site_label
_atom_site_type_symbol
_atom_site_description
_atom_site_fract_x
_atom_site_fract_y
_atom_site_fract_z
_atom_type_partial_charge
O1    O     O_R   0.506510 0.286130 0.619770 -0.579800
O2    O     O_R   0.493490 0.713870 0.380230 -0.579757
O3    O     O_R   0.489600 0.256770 0.308360 -0.548557
O4    O     O_R   0.510400 0.743230 0.691640 -0.548617
C1    C     C_R   0.496051 0.200406 0.453840 0.863092
C2    C     C_R   0.503943 0.799593 0.546160 0.863128
O5    O     O_R   0.378710 0.514640 0.655720 -0.548086
O6    O     O_R   0.621290 0.485360 0.344280 -0.548091
O7    O     O_R   0.361800 0.485290 0.344300 -0.551705
O8    O     O_R   0.638200 0.514710 0.655700 -0.551727
C3    C     C_R   0.329370 0.499763 0.503187 0.882604
C4    C     C_R   0.670630 0.500229 0.496811 0.882636
Cu1   Cu    Cu3+1 0.510010 0.517380 0.684380 1.173388
Cu2   Cu    Cu3+1 0.489990 0.482620 0.315620 1.173407
C5    C     C_R   0.820772 0.630235 0.606120 -0.099098
C6    C     C_R   0.179229 0.369746 0.393887 -0.099038
C7    C     C_R   0.767295 0.504114 0.491609 -0.195514
C8    C     C_R   0.232704 0.495875 0.508385 -0.195508
C9    C     C_R   0.805963 0.378946 0.378113 0.326606
C10   C     C_R   0.194034 0.621049 0.621858 0.326628
C11   C     C_R   0.898930 0.375096 0.385094 0.005021
C12   C     C_R   0.101068 0.624901 0.614869 0.005015
C13   C     C_R   0.953155 0.501292 0.498148 0.042673
C14   C     C_R   0.046844 0.498704 0.501818 0.042660
C15   C     C_R   0.914108 0.630190 0.607075 0.045176
C16   C     C_R   0.085891 0.369801 0.392903 0.045169
C17   C     C_R   0.938761 0.245027 0.284861 -0.114596
C18   C     C_R   0.061238 0.754974 0.715095 -0.114581
C19   C     C_R   0.030471 0.242384 0.288564 -0.155686
C20   C     C_R   0.969528 0.757613 0.711400 -0.155679
H1    H     H_    0.899636 0.142572 0.204186 0.202652
H2    H     H_    0.100364 0.857432 0.795762 0.202662
H3    H     H_    0.057025 0.138194 0.209706 0.175425
H4    H     H_    0.942976 0.861806 0.790254 0.175421
C21   C     C_2   0.482863 0.033416 0.433529 -0.234114
C22   C     C_2   0.517118 0.966583 0.566471 -0.234099
N1    N     N_2   0.474890 0.456420 0.038520 0.008099
N2    N     N_2   0.525110 0.543580 0.961480 0.008082
C23   C     C_2   0.778379 0.764011 0.719368 0.888934
O9    O     O_2   0.727670 0.838142 0.645184 -0.575936
O10   O     O_R   0.795900 0.803671 0.909868 -0.705887
H5    H     H_    0.762705 0.896352 0.971335 0.384946
C24   C     C_2   0.221626 0.235942 0.280710 0.888829
O11   O     O_2   0.272296 0.161800 0.354963 -0.575938
O12   O     O_R   0.204151 0.196268 0.090202 -0.705849
H6    H     H_    0.237347 0.103572 0.028789 0.384947
N3    N     N_R   0.750725 0.255104 0.256767 0.102258
O13   O     O_R   0.759048 0.226295 0.081093 -0.343245
O14   O     O_R   0.697447 0.163701 0.322513 -0.349154
N4    N     N_R   0.249270 0.744887 0.743210 0.102257
O15   O     O_R   0.240945 0.773684 0.918881 -0.343283
O16   O     O_R   0.302536 0.836312 0.677469 -0.349144
C25   C     C_2   0.420662 0.948053 0.275962 0.982857
O17   O     O_2   0.355622 0.868004 0.301036 -0.491403
O18   O     O_R   0.436497 0.962072 0.099471 -0.661200
H7    H     H_    0.393993 0.892041 0.001807 0.393984
C26   C     C_2   0.579315 0.051957 0.724032 0.982880
O19   O     O_2   0.644403 0.131879 0.698922 -0.491391
O20   O     O_R   0.563405 0.038146 0.900557 -0.661178
H8    H     H_    0.605927 0.108168 0.998195 0.393966
N5    N     N_R   0.391928 0.405523 0.948856 0.258778
O21   O     O_R   0.325184 0.491598 0.987915 -0.274262
O22   O     O_R   0.375850 0.257975 0.867813 -0.308201
N6    N     N_R   0.608071 0.594478 0.051144 0.258752
O23   O     O_R   0.674815 0.508404 0.012088 -0.274309
O24   O     O_R   0.624149 0.742025 0.132186 -0.308298

loop_
_geom_bond_atom_site_label_1
_geom_bond_atom_site_label_2
_geom_bond_distance
_ccdc_geom_bond_type
C4    C7    1.460232 S    
N4    O16   1.300618 A    
O7    Cu2   1.960198 S    
C3    C8    1.460235 S    
C25   O17   1.223787 D    
N1    N2    1.298505 D    
C21   C25   1.490286 S    
C24   O12   1.398030 S    
O10   H5    1.013667 S    
C8    C10   1.406090 A    
C21   C22   1.360153 D    
O6    C4    1.304289 A    
C13   C14   1.413890 A    
N6    O23   1.300567 A    
O3    C1    1.300183 A    
O18   H7    1.009050 S    
C18   C20   1.384069 A    
N4    O15   1.301039 A    
C11   C17   1.403317 A    
O20   H8    1.009065 S    
C23   O10   1.398048 S    
C12   C18   1.403311 A    
Cu1   Cu2   2.713254 S    
Cu2   N1    2.038785 S    
O5    C3    1.304292 A    
O7    C3    1.299909 A    
C6    C24   1.484550 S    
C5    C23   1.484584 S    
C26   O19   1.223799 D    
O2    C2    1.294911 A    
O3    Cu2   1.970022 S    
O8    C4    1.299913 A    
O1    C1    1.294914 A    
C1    C21   1.439188 S    
C18   H2    1.081724 S    
O4    C2    1.300183 A    
C9    C11   1.403230 A    
C2    C22   1.439170 S    
N2    N6    1.384182 S    
C25   O18   1.393394 S    
C24   O11   1.220914 D    
C6    C16   1.408031 A    
N5    O21   1.300575 A    
O2    Cu2   1.972128 S    
C12   C14   1.413407 A    
C5    C15   1.408023 A    
C26   O20   1.393360 S    
C20   H4    1.081284 S    
C17   H1    1.081723 S    
C23   O9    1.220929 D    
C19   H3    1.081285 S    
O5    Cu1   1.978015 S    
C13   C15   1.416159 A    
O1    Cu1   1.972128 S    
C17   C19   1.384081 A    
C16   C19   1.405516 A    
C6    C8    1.411695 A    
C22   C26   1.490260 S    
C9    N3    1.434030 S    
O4    Cu1   1.970022 S    
C5    C7    1.411705 A    
C15   C20   1.405514 A    
C10   N4    1.434007 S    
N1    N5    1.384187 S    
O6    Cu2   1.978015 S    
C7    C9    1.406111 A    
O12   H6    1.013655 S    
C11   C13   1.413410 A    
N5    O22   1.300147 A    
N3    O14   1.300622 A    
Cu1   N2    2.038784 S    
N3    O13   1.301054 A    
C10   C12   1.403216 A    
C14   C16   1.416156 A    
O8    Cu1   1.960198 S    
N6    O24   1.300138 A    
