data_mof_unit_68279.cif
_audit_creation_date              2012-12-11T19:52:00-0500
_audit_creation_method            fapswitch 2.2
_symmetry_space_group_name_H-M    P1
_symmetry_Int_Tables_number       1
_space_group_crystal_system       triclinic
_cell_length_a                    16.900905
_cell_length_b                    28.086558
_cell_length_c                    8.360119
_cell_angle_alpha                 90.111663
_cell_angle_beta                  104.293062
_cell_angle_gamma                 91.063881
_cell_volume                      3844.85905704

loop_
_atom_site_label
_atom_site_type_symbol
_atom_type_description
_atom_site_fract_x
_atom_site_fract_y
_atom_site_fract_z
_atom_type_partial_charge
Ba1   Ba    Ba6+2 0.000400 0.534870 0.845190 1.655064
Ba2   Ba    Ba6+2 0.000400 0.465130 0.345190 1.686192
Ba3   Ba    Ba6+2 0.500400 0.034870 0.845190 1.655106
Ba4   Ba    Ba6+2 0.500400 0.965130 0.345190 1.686216
C1    C     C_3   0.942158 0.761129 0.594692 0.224314
C2    C     C_2   0.758103 0.642509 0.418412 0.328572
C3    C     C_3   0.665822 0.660271 0.759055 -0.286774
C4    C     C_3   0.103337 0.881311 0.885637 0.305998
C5    C     C_3   0.055416 0.913236 0.973024 -0.286600
C6    C     C_3   0.195710 0.174429 0.607377 0.330487
C7    C     C_3   0.165790 0.160364 0.759064 -0.286866
C8    C     C_3   0.001181 0.800201 0.255958 0.286933
C9    C     C_3   0.949929 0.844228 0.252648 -0.303345
C10   C     C_3   0.979771 0.149247 0.388752 0.270637
C11   C     C_3   0.921415 0.116377 0.268935 -0.330612
C12   C     C_3   0.501034 0.300264 0.255810 0.286704
C13   C     C_2   0.237707 0.865747 0.887455 0.335901
C14   C     C_3   0.449200 0.344080 0.251724 -0.303030
C15   C     C_3   0.479763 0.649239 0.388894 0.270353
C16   C     C_3   0.421369 0.616365 0.269163 -0.330784
C17   C     C_2   0.258121 0.142522 0.418485 0.328588
C18   C     C_2   0.812402 0.390907 0.910006 0.055573
C19   C     C_2   0.818094 0.609629 0.408780 0.036511
C20   C     C_2   0.312382 0.890910 0.909986 0.055612
C21   C     C_2   0.318092 0.109632 0.408806 0.036499
C22   C     C_2   0.846184 0.344374 0.691684 -0.041615
C23   C     C_2   0.851058 0.655758 0.183456 0.007685
C24   C     C_2   0.346181 0.844373 0.691695 -0.041666
C25   C     C_3   0.944931 0.236717 0.028958 0.281376
C26   C     C_2   0.351051 0.155756 0.183472 0.007715
C27   C     C_3   0.785273 0.309831 0.713138 -0.095001
C28   C     C_3   0.804513 0.694553 0.226530 -0.097359
C29   C     C_3   0.285264 0.809833 0.713132 -0.095068
C30   C     C_3   0.304517 0.194555 0.226548 -0.097249
C31   C     C_3   0.715351 0.330722 0.757216 -0.082749
C32   C     C_3   0.735760 0.677881 0.290779 -0.085032
C33   C     C_3   0.215329 0.830729 0.757142 -0.082812
C34   C     C_3   0.235771 0.177889 0.290835 -0.085140
C35   C     C_2   0.756964 0.274307 0.576298 -0.069726
C36   C     C_3   0.442147 0.261120 0.594688 0.224332
C37   C     C_2   0.778582 0.732386 0.095569 -0.065024
C38   C     C_2   0.256979 0.774299 0.576315 -0.069624
C39   C     C_2   0.278573 0.232379 0.095558 -0.064986
C40   C     C_2   0.239815 0.729849 0.614720 -0.090427
C41   C     C_2   0.246364 0.273467 0.129993 -0.096274
C42   C     C_2   0.739782 0.229859 0.614685 -0.090459
C43   C     C_2   0.746419 0.773484 0.130061 -0.096067
C44   C     C_R   0.244646 0.688905 0.343809 0.112128
C45   C     C_R   0.259749 0.317735 0.867866 0.023403
C46   C     C_R   0.744636 0.188912 0.343788 0.112053
C47   C     C_3   0.444876 0.736768 0.029117 0.281167
C48   C     C_R   0.759872 0.817781 0.868050 0.024007
C49   C     C_R   0.210823 0.692531 0.489267 -0.089329
C50   C     C_R   0.220317 0.311474 0.005642 -0.041648
C51   C     C_R   0.710802 0.192539 0.489232 -0.089351
C52   C     C_R   0.720388 0.811498 0.005738 -0.041592
C53   C     C_3   0.037924 0.709852 0.109226 0.437772
C54   C     C_3   0.958359 0.265148 0.574193 0.522651
C55   C     C_3   0.537888 0.209859 0.109219 0.438265
C56   C     C_3   0.458415 0.765164 0.574249 0.522307
C57   C     C_R   0.228680 0.645448 0.241422 -0.170882
C58   C     C_R   0.142662 0.613881 0.414006 -0.268036
C59   C     C_R   0.241194 0.359584 0.759440 -0.123385
C60   C     C_R   0.728693 0.145449 0.241425 -0.170756
C61   C     C_R   0.741277 0.859615 0.759559 -0.123579
C62   C     C_R   0.183154 0.609311 0.277171 0.040802
C63   C     C_R   0.184698 0.390813 0.777016 0.064393
C64   C     C_R   0.683157 0.109313 0.277163 0.040729
C65   C     C_R   0.684721 0.890817 0.777035 0.064371
C66   C     C_R   0.156846 0.653586 0.518825 0.042302
C67   C     C_R   0.158250 0.346721 0.020701 -0.019527
C68   C     C_R   0.656834 0.153590 0.518800 0.042260
C69   C     C_R   0.138758 0.383185 0.904389 -0.283165
C70   C     C_R   0.658273 0.846724 0.020717 -0.019662
C71   C     C_3   0.080658 0.758762 0.114116 0.367117
C72   C     C_3   0.997682 0.223037 0.513572 0.443786
C73   C     C_3   0.580570 0.258789 0.114217 0.367366
C74   C     C_3   0.497716 0.723047 0.513607 0.443678
C75   C     C_3   0.764622 0.527085 0.063656 0.317578
C76   C     C_3   0.763154 0.470813 0.546681 0.319805
C77   C     C_3   0.264630 0.027089 0.063655 0.317615
C78   C     C_3   0.263153 0.970808 0.546623 0.319781
C79   C     C_3   0.686659 0.554860 0.048341 -0.403989
C80   C     C_R   0.642653 0.113886 0.413980 -0.267996
C81   C     C_3   0.687553 0.438802 0.495075 -0.379485
C82   C     C_3   0.186672 0.054873 0.048283 -0.403922
C83   C     C_3   0.187564 0.938791 0.494908 -0.379466
C84   C     C_3   0.237652 0.472275 0.130137 0.376463
C85   C     C_3   0.247940 0.530890 0.685898 0.271600
C86   C     C_3   0.737645 0.972276 0.130086 0.376598
C87   C     C_3   0.747946 0.030892 0.685879 0.271696
C88   C     C_3   0.315826 0.443939 0.155188 0.287207
C89   C     C_3   0.318646 0.554662 0.812200 0.247693
C90   C     C_3   0.815826 0.943950 0.154996 0.287281
C91   C     C_R   0.638759 0.883176 0.904360 -0.283237
C92   C     C_3   0.818701 0.054665 0.812064 0.247470
C93   C     C_3   0.978759 0.711674 0.595911 0.438502
C94   C     C_3   0.004994 0.277668 0.024935 0.379547
C95   C     C_3   0.478739 0.211660 0.595995 0.438243
C96   C     C_3   0.504976 0.777690 0.024994 0.379580
C97   C     C_2   0.865536 0.380830 0.798905 -0.331491
C98   C     C_2   0.864498 0.617115 0.282028 -0.342567
C99   C     C_2   0.365535 0.880825 0.798931 -0.331508
C100  C     C_2   0.364488 0.117114 0.282039 -0.342546
C101  C     C_3   0.417993 0.466126 0.387157 0.304672
C102  C     C_2   0.737759 0.365721 0.887576 0.335883
C103  C     C_3   0.452856 0.455429 0.568691 -0.355295
C104  C     C_3   0.373044 0.623013 0.718658 0.273622
C105  C     C_3   0.460077 0.622660 0.828970 -0.407585
C106  C     C_3   0.918153 0.966221 0.386561 0.304552
C107  C     C_3   0.953020 0.955703 0.568218 -0.355279
C108  C     C_3   0.872966 0.123075 0.718572 0.273759
C109  C     C_3   0.960110 0.122563 0.828467 -0.407504
C110  C     C_3   0.603440 0.381312 0.886006 0.305875
C111  C     C_3   0.555595 0.413190 0.973714 -0.286454
C112  C     C_3   0.695694 0.674377 0.607353 0.330423
H1    H     H_    0.938087 0.685277 0.636540 0.052588
H2    H     H_    0.703316 0.401436 0.528314 0.068045
H3    H     H_    0.966610 0.959802 0.320234 0.010755
H4    H     H_    0.970337 0.917744 0.583136 0.114795
H5    H     H_    0.007809 0.978658 0.618058 0.057792
H6    H     H_    0.906888 0.962763 0.638983 0.150783
H7    H     H_    0.857708 0.160561 0.686350 0.098865
H8    H     H_    0.869094 0.103876 0.600466 0.020365
H9    H     H_    0.960156 0.122397 0.960561 0.128816
H10   H     H_    0.992396 0.090610 0.801403 0.088848
H11   H     H_    0.994167 0.154876 0.806394 0.086990
H12   H     H_    0.866289 0.754380 0.732740 0.300862
H13   H     H_    0.201371 0.091788 0.094022 0.051801
H14   H     H_    0.848487 0.271168 0.042063 0.293712
H15   H     H_    0.366367 0.254433 0.732947 0.300932
H16   H     H_    0.348409 0.771254 0.041835 0.293637
H17   H     H_    0.574544 0.345183 0.870000 0.117077
H18   H     H_    0.600297 0.396980 0.762308 -0.017268
H19   H     H_    0.575693 0.450890 0.968047 0.112659
H20   H     H_    0.489254 0.409872 0.914357 0.064573
H21   H     H_    0.566682 0.402780 0.104874 0.136024
H22   H     H_    0.649581 0.695793 0.523341 -0.002649
H23   H     H_    0.751551 0.697290 0.646986 0.029310
H24   H     H_    0.203330 0.901424 0.528125 0.068141
H25   H     H_    0.611197 0.636810 0.721985 0.100405
H26   H     H_    0.711812 0.639715 0.847454 0.134339
H27   H     H_    0.651429 0.692402 0.823107 0.048483
H28   H     H_    0.074494 0.845168 0.869889 0.117092
H29   H     H_    0.100198 0.896899 0.761827 -0.017356
H30   H     H_    0.075523 0.950929 0.967227 0.112727
H31   H     H_    0.989094 0.909905 0.913509 0.064524
H32   H     H_    0.066406 0.902882 0.104215 0.136049
H33   H     H_    0.149610 0.195832 0.523278 -0.002716
H34   H     H_    0.251569 0.197341 0.647016 0.029324
H35   H     H_    0.651914 0.556149 0.917026 0.121011
H36   H     H_    0.111111 0.136944 0.721994 0.100470
H37   H     H_    0.211735 0.139789 0.847500 0.134355
H38   H     H_    0.151447 0.192518 0.823067 0.048488
H39   H     H_    0.054503 0.802702 0.365126 0.008870
H40   H     H_    0.961877 0.768963 0.267667 0.042196
H41   H     H_    0.904417 0.846677 0.132138 0.146832
H42   H     H_    0.917101 0.842484 0.352291 0.091721
H43   H     H_    0.989700 0.876523 0.273012 0.095085
H44   H     H_    0.003414 0.128941 0.503667 0.042502
H45   H     H_    0.031225 0.158609 0.332415 0.040043
H46   H     H_    0.662508 0.440597 0.359332 0.135181
H47   H     H_    0.891349 0.136403 0.157163 0.155311
H48   H     H_    0.955621 0.086508 0.232669 0.054197
H49   H     H_    0.874680 0.101075 0.327301 0.097669
H50   H     H_    0.554389 0.303097 0.364828 0.009180
H51   H     H_    0.462142 0.268899 0.268218 0.041641
H52   H     H_    0.403502 0.346159 0.131340 0.146791
H53   H     H_    0.416575 0.342364 0.351696 0.091722
H54   H     H_    0.488507 0.376564 0.271039 0.095408
H55   H     H_    0.503440 0.628939 0.503806 0.042579
H56   H     H_    0.531187 0.658594 0.332464 0.040063
H57   H     H_    0.151956 0.056173 0.916950 0.121069
H58   H     H_    0.391208 0.636402 0.157502 0.155139
H59   H     H_    0.455560 0.586520 0.232692 0.054589
H60   H     H_    0.374701 0.601036 0.327650 0.097647
H61   H     H_    0.162548 0.940596 0.359157 0.135272
H62   H     H_    0.210190 0.475480 0.996051 -0.120792
H63   H     H_    0.249048 0.543061 0.560353 -0.021091
H64   H     H_    0.710132 0.975483 0.996021 -0.120759
H65   H     H_    0.969874 0.308361 0.962432 -0.050954
H66   H     H_    0.748992 0.043058 0.560298 -0.021196
H67   H     H_    0.194411 0.453172 0.189627 0.047048
H68   H     H_    0.189652 0.541359 0.712635 0.067317
H69   H     H_    0.694445 0.953162 0.189652 0.046924
H70   H     H_    0.689685 0.041361 0.712742 0.067387
H71   H     H_    0.300441 0.408795 0.094299 -0.032054
H72   H     H_    0.377449 0.539712 0.799146 0.004991
H73   H     H_    0.800421 0.908781 0.094307 -0.032058
H74   H     H_    0.877488 0.039747 0.798774 0.005067
H75   H     H_    0.358622 0.461949 0.090929 -0.036229
H76   H     H_    0.438086 0.185279 0.636757 0.052684
H77   H     H_    0.313742 0.544634 0.937641 0.069113
H78   H     H_    0.858537 0.961936 0.090479 -0.036375
H79   H     H_    0.813901 0.044600 0.937542 0.068976
H80   H     H_    0.981537 0.702844 0.467892 -0.192039
H81   H     H_    0.048263 0.265898 0.952614 -0.113579
H82   H     H_    0.481473 0.202795 0.467974 -0.191655
H83   H     H_    0.548209 0.765893 0.952628 -0.113694
H84   H     H_    0.887990 0.764057 0.487966 -0.050222
H85   H     H_    0.913340 0.225388 0.901557 -0.058524
H86   H     H_    0.387935 0.264021 0.488041 -0.050204
H87   H     H_    0.469883 0.808393 0.962500 -0.050867
H88   H     H_    0.413336 0.725380 0.901747 -0.058284
H89   H     H_    0.133533 0.761834 0.223267 -0.082509
H90   H     H_    0.034301 0.206127 0.625550 -0.183549
H91   H     H_    0.633366 0.261886 0.223523 -0.082873
H92   H     H_    0.534396 0.706155 0.625562 -0.183584
H93   H     H_    0.256127 0.642710 0.138441 0.142232
H94   H     H_    0.276068 0.365538 0.668495 0.115538
H95   H     H_    0.756170 0.142705 0.138484 0.142271
H96   H     H_    0.776172 0.865583 0.668661 0.115500
H97   H     H_    0.912516 0.406752 0.789071 0.074917
H98   H     H_    0.647952 0.537433 0.121928 0.127038
H99   H     H_    0.904958 0.589410 0.262145 0.081488
H100  H     H_    0.412525 0.906742 0.789121 0.074900
H101  H     H_    0.404940 0.089405 0.262144 0.081458
H102  H     H_    0.102739 0.585270 0.434928 0.069780
H103  H     H_    0.092104 0.408256 0.912775 0.066166
H104  H     H_    0.602732 0.085274 0.434903 0.069780
H105  H     H_    0.592074 0.908232 0.912692 0.066180
H106  H     H_    0.746307 0.285033 0.448266 0.119588
H107  H     H_    0.784384 0.726250 0.971037 0.092080
H108  H     H_    0.246308 0.785024 0.448279 0.119608
H109  H     H_    0.640338 0.450414 0.557581 0.103927
H110  H     H_    0.284417 0.226249 0.971053 0.092122
H111  H     H_    0.245875 0.720945 0.743564 0.116988
H112  H     H_    0.237670 0.278731 0.253077 0.102934
H113  H     H_    0.745834 0.220953 0.743526 0.116994
H114  H     H_    0.737744 0.778748 0.253160 0.102886
H115  H     H_    0.988097 0.788475 0.580940 0.060261
H116  H     H_    0.979194 0.205848 0.090832 0.065573
H117  H     H_    0.488065 0.288454 0.580733 0.060181
H118  H     H_    0.479114 0.705928 0.091254 0.065679
H119  H     H_    0.074651 0.683121 0.063020 0.008363
H120  H     H_    0.147936 0.037447 0.121810 0.126996
H121  H     H_    0.007757 0.286444 0.658813 -0.224929
H122  H     H_    0.574646 0.183153 0.062980 0.008269
H123  H     H_    0.507831 0.786474 0.658769 -0.224399
H124  H     H_    0.035181 0.700098 0.236490 -0.182881
H125  H     H_    0.914263 0.251714 0.642386 -0.084812
H126  H     H_    0.535148 0.200076 0.236461 -0.183150
H127  H     H_    0.414359 0.751738 0.642555 -0.084822
H128  H     H_    0.106251 0.761464 0.004151 0.073498
H129  H     H_    0.037502 0.237006 0.436044 0.056589
H130  H     H_    0.606273 0.261500 0.004396 0.073332
H131  H     H_    0.140326 0.950389 0.557373 0.103899
H132  H     H_    0.537487 0.737005 0.435961 0.056611
H133  H     H_    0.796230 0.524208 0.195899 0.002214
H134  H     H_    0.785359 0.470570 0.682888 -0.019081
H135  H     H_    0.296218 0.024211 0.195907 0.002168
H136  H     H_    0.285332 0.970550 0.682834 -0.019125
H137  H     H_    0.804287 0.546400 0.996358 0.054194
H138  H     H_    0.810404 0.456332 0.489552 0.071249
H139  H     H_    0.304314 0.046397 0.996381 0.054209
H140  H     H_    0.310424 0.956340 0.489524 0.071276
H141  H     H_    0.400899 0.504236 0.375704 0.066384
H142  H     H_    0.701353 0.591779 0.094044 0.051850
H143  H     H_    0.466477 0.459825 0.320792 0.010599
H144  H     H_    0.470207 0.417467 0.583151 0.114750
H145  H     H_    0.507627 0.478374 0.618818 0.057699
H146  H     H_    0.406717 0.462371 0.639544 0.150883
H147  H     H_    0.357712 0.660458 0.685894 0.099064
H148  H     H_    0.369417 0.603691 0.600882 0.020152
H149  H     H_    0.459904 0.623157 0.960887 0.128720
H150  H     H_    0.492307 0.590465 0.803807 0.089184
H151  H     H_    0.494349 0.654712 0.805426 0.087071
H152  H     H_    0.901095 0.004332 0.374650 0.066327
O1    O     O_2   0.163830 0.569270 0.980510 -0.464517
O2    O     O_3   0.919076 0.292200 0.438750 -0.535604
O3    O     O_3   0.459426 0.211969 0.003516 -0.551051
O4    O     O_3   0.419077 0.792196 0.438798 -0.535503
O5    O     O_3   0.904940 0.476110 0.001150 -0.518135
O6    O     O_3   0.904940 0.523890 0.501150 -0.520953
O7    O     O_3   0.404940 0.976110 0.001150 -0.518150
O8    O     O_3   0.404940 0.023890 0.501150 -0.520965
O9    O     O_3   0.095420 0.524330 0.188510 -0.496178
O10   O     O_3   0.095420 0.475670 0.688510 -0.507581
O11   O     O_3   0.595420 0.024330 0.188510 -0.496187
O12   O     O_2   0.163830 0.430730 0.480510 -0.433096
O13   O     O_3   0.595420 0.975670 0.688510 -0.507593
O14   O     O_3   0.028940 0.612400 0.656050 -0.495427
O15   O     O_3   0.028940 0.387600 0.156050 -0.471844
O16   O     O_3   0.528940 0.112400 0.656050 -0.495457
O17   O     O_3   0.528940 0.887600 0.156050 -0.471832
O18   O     O_2   0.162355 0.649799 0.854091 -0.464208
O19   O     O_2   0.157589 0.348609 0.357839 -0.475617
O20   O     O_2   0.662362 0.149798 0.854082 -0.464166
O21   O     O_2   0.657607 0.848622 0.357853 -0.475612
O22   O     O_3   0.257847 0.517330 0.201058 -0.661304
O23   O     O_2   0.663830 0.069270 0.980510 -0.464469
O24   O     O_3   0.261666 0.481797 0.694842 -0.674157
O25   O     O_3   0.757845 0.017329 0.201024 -0.661190
O26   O     O_3   0.761667 0.981798 0.694824 -0.674084
O27   O     O_3   0.057371 0.711854 0.702817 -0.611959
O28   O     O_3   0.048342 0.289245 0.186956 -0.579436
O29   O     O_3   0.557373 0.211854 0.702819 -0.611914
O30   O     O_3   0.548375 0.789254 0.186991 -0.579510
O31   O     O_2   0.837400 0.570350 0.710350 -0.436318
O32   O     O_2   0.837400 0.429650 0.210350 -0.432670
O33   O     O_2   0.337400 0.070350 0.710350 -0.436256
O34   O     O_2   0.663830 0.930730 0.480510 -0.433115
O35   O     O_2   0.337400 0.929650 0.210350 -0.432733
O36   O     O_3   0.972820 0.612580 0.035550 -0.483618
O37   O     O_3   0.972820 0.387420 0.535550 -0.473471
O38   O     O_3   0.472820 0.112580 0.035550 -0.483622
O39   O     O_3   0.472820 0.887420 0.535550 -0.473498
O40   O     O_2   0.849542 0.652382 0.843167 -0.500063
O41   O     O_2   0.821909 0.361626 0.366288 -0.450134
O42   O     O_2   0.349507 0.152367 0.843187 -0.500030
O43   O     O_2   0.321913 0.861621 0.366287 -0.450136
O44   O     O_3   0.349227 0.436023 0.325560 -0.629459
O45   O     O_3   0.741949 0.517088 0.492395 -0.614694
O46   O     O_3   0.315296 0.604863 0.800921 -0.655062
O47   O     O_3   0.849365 0.936104 0.325358 -0.629381
O48   O     O_3   0.815300 0.104869 0.800945 -0.655078
O49   O     O_3   0.920080 0.770406 0.742186 -0.666454
O50   O     O_3   0.887509 0.249922 0.115598 -0.649994
O51   O     O_3   0.420155 0.270446 0.742238 -0.666395
O52   O     O_3   0.387411 0.750040 0.115560 -0.650059
O53   O     O_3   0.684587 0.378641 0.982741 -0.622120
O54   O     O_3   0.709049 0.632624 0.525186 -0.636566
O55   O     O_3   0.184481 0.878715 0.982453 -0.622095
O56   O     O_3   0.743234 0.481898 0.994530 -0.615709
O57   O     O_3   0.209097 0.132656 0.525343 -0.636505
O58   O     O_3   0.026428 0.796981 0.107561 -0.598533
O59   O     O_3   0.938964 0.190359 0.422139 -0.624782
O60   O     O_3   0.526249 0.296974 0.107396 -0.598403
O61   O     O_3   0.438976 0.690356 0.422319 -0.624943
O62   O     O_3   0.241948 0.017088 0.492396 -0.614727
O63   O     O_3   0.243238 0.981901 0.994536 -0.615594
O64   O     O_3   0.959460 0.711975 0.003547 -0.550985
P1    P     P_3+3 0.171820 0.553000 0.158080 0.977796
P2    P     P_3+3 0.891221 0.345930 0.511944 0.998245
P3    P     P_3+3 0.405986 0.158958 0.016787 0.952530
P4    P     P_3+3 0.391222 0.845930 0.511959 0.998251
P5    P     P_3+3 0.101242 0.343083 0.182155 0.985627
P6    P     P_3+3 0.102945 0.657233 0.683947 0.974877
P7    P     P_3+3 0.601263 0.843093 0.182168 0.985601
P8    P     P_3+3 0.602945 0.157232 0.683944 0.974870
P9    P     P_3+3 0.171820 0.447000 0.658080 0.989048
P10   P     P_3+3 0.671820 0.053000 0.158080 0.977858
P11   P     P_3+3 0.671820 0.947000 0.658080 0.989083
P12   P     P_3+3 0.829210 0.554130 0.532500 1.026284
P13   P     P_3+3 0.829210 0.445870 0.032500 1.031446
P14   P     P_3+3 0.329210 0.054130 0.532500 1.026259
P15   P     P_3+3 0.329210 0.945870 0.032500 1.031520
P16   P     P_3+3 0.906004 0.658968 0.016786 0.952569

loop_
_geom_bond_atom_site_label_1
_geom_bond_atom_site_label_2
_ccdc_geom_bond_type
Ba2   P13   S    
O16   P8    S    
C4    H29   S    
Ba2   O9    S    
C110  C111  S    
C88   H71   S    
C1    O49   S    
Ba3   O8    S    
C76   H138  S    
C84   O22   S    
C26   P3    S    
C11   H47   S    
C108  H8    S    
C19   P12   S    
C101  O44   S    
C16   H59   S    
C111  H20   S    
C78   C83   S    
O13   P11   S    
C104  C105  S    
C69   H103  S    
C8    O58   S    
C106  C107  S    
C7    H38   S    
C87   C92   S    
C40   C49   S    
C15   C16   S    
C97   H97   S    
C42   C51   S    
C1    H115  S    
C77   C82   S    
O14   P6    S    
C81   H46   S    
C38   C40   D    
C77   H135  S    
C53   H119  S    
C72   H90   S    
C1    H84   S    
C14   H54   S    
O1    P1    D    
O30   P7    S    
C67   C69   A    
C58   C62   S    
O8    P14   S    
C67   P5    S    
Ba4   O35   S    
Ba2   O6    S    
C64   P10   S    
C85   O24   S    
O56   P13   S    
C75   H137  S    
C103  H145  S    
C83   H131  S    
C68   C80   A    
C36   O51   S    
C87   H70   S    
C36   H86   S    
C24   C29   A    
C42   H113  S    
O40   P16   D    
O31   P12   D    
C59   H94   S    
C47   H88   S    
C56   H127  S    
C90   H78   S    
O28   P5    S    
C25   H116  S    
C36   H117  S    
C65   C91   S    
O17   P7    S    
O24   P9    S    
C54   O2    S    
Ba4   O17   S    
O19   P5    D    
O45   P12   S    
C94   H65   S    
O22   P1    S    
C71   H89   S    
C10   H45   S    
C104  H148  S    
O2    P2    S    
C93   H1    S    
C40   H111  S    
C100  H101  S    
O7    P15   S    
C87   H66   S    
O9    P1    S    
C107  H4    S    
C99   H100  S    
C48   C61   S    
Ba2   O37   S    
C83   H24   S    
C26   C30   A    
C3    H27   S    
C54   C72   S    
C23   P16   S    
C90   O47   S    
C101  C103  S    
C58   C66   A    
C29   C38   S    
C60   C64   D    
C78   H136  S    
C73   H91   S    
C6    H33   S    
Ba2   O12   S    
C95   H76   S    
C96   H87   S    
Ba1   O1    S    
C20   P15   S    
C5    H30   S    
O37   P2    S    
C79   H142  S    
C92   H74   S    
C80   H104  S    
C25   O50   S    
C92   H79   S    
C16   H58   S    
C17   C34   A    
C111  H21   S    
C74   H132  S    
C28   C37   S    
C35   H106  S    
C88   H75   S    
C76   H134  S    
C107  H6    S    
C8    H40   S    
C38   H108  S    
C9    H41   S    
C87   O26   S    
C37   C43   D    
C44   C49   S    
C24   P4    S    
C86   H64   S    
C47   O52   S    
O15   P5    S    
C15   H56   S    
C105  H149  S    
C109  H10   S    
C82   H120  S    
C3    C112  S    
O18   P6    D    
C95   O29   S    
Ba1   P1    S    
C110  H18   S    
Ba4   O34   S    
C77   H139  S    
C39   C41   D    
Ba1   O6    S    
O64   P16   S    
Ba3   O16   S    
C1    C93   S    
C106  O47   S    
C81   H109  S    
Ba3   Ba4   S    
C3    H25   S    
C79   H98   S    
O42   P3    D    
C47   C96   S    
C17   C21   A    
C94   H81   S    
Ba4   O7    S    
C30   C39   S    
C106  H3    S    
C21   C100  S    
Ba3   O7    S    
C23   C98   D    
C20   C99   S    
C53   C71   S    
O43   P4    D    
C16   H60   S    
C111  H19   S    
C95   H82   S    
C104  O46   S    
C2    C32   A    
C85   C89   S    
C74   H92   S    
C13   O55   S    
C6    C7    S    
C7    H37   S    
C89   H72   S    
C15   O61   S    
C8    C9    S    
C89   H77   S    
C10   C11   S    
C11   H49   S    
C9    H43   S    
C43   C52   S    
H15   O51   S    
H16   O52   S    
C72   H129  S    
C105  H151  S    
O38   P3    S    
C106  H152  S    
C43   H114  S    
C91   H105  S    
C18   C97   S    
C25   C94   S    
C55   H126  S    
O23   P10   D    
C12   H51   S    
C73   H130  S    
O10   P9    S    
C78   O62   S    
O39   P4    S    
C61   H96   S    
C71   H128  S    
O3    P3    S    
C50   C67   S    
Ba1   O36   S    
C63   C69   S    
C110  O53   S    
C54   H121  S    
O12   P9    D    
C92   O48   S    
C39   H110  S    
C112  H23   S    
C77   O63   S    
C78   H140  S    
C49   C66   S    
C86   C90   S    
C79   H35   S    
C86   O25   S    
C66   P6    S    
C52   C70   S    
C64   C80   S    
C6    O57   S    
O25   P10   S    
C2    O54   S    
C55   H122  S    
O5    P13   S    
C108  H7    S    
O29   P8    S    
C29   C33   A    
O4    P4    S    
C76   O45   S    
C76   C81   S    
C10   O59   S    
C11   H48   S    
C70   P7    S    
C56   C74   S    
C56   H123  S    
C57   H93   S    
C84   H62   S    
O33   P14   D    
O21   P7    D    
C21   P14   S    
C22   P2    S    
Ba3   P14   S    
C53   O64   S    
C102  O53   S    
C73   O60   S    
C27   C31   A    
C96   O30   S    
C28   C32   A    
O34   P11   D    
C14   H53   S    
C101  H141  S    
C5    H32   S    
C23   C28   A    
C93   O27   S    
Ba1   O31   S    
C94   O28   S    
C75   O56   S    
O27   P6    S    
Ba2   O32   S    
C86   H69   S    
C74   O61   S    
C82   H57   S    
O41   P2    D    
C90   H73   S    
Ba1   O10   S    
C6    H34   S    
Ba2   O5    S    
C75   C79   S    
C24   C99   D    
O62   P14   S    
C61   C65   D    
Ba3   O38   S    
C103  H146  S    
C81   H2    S    
C109  H9    S    
O36   P16   S    
C71   O58   S    
Ba4   O11   S    
C108  O48   S    
C45   C59   S    
C107  H5    S    
C46   C60   S    
Ba3   O23   S    
C112  O54   S    
C55   C73   S    
C36   C95   S    
C68   P8    S    
C47   H118  S    
C58   H102  S    
C93   H80   S    
C15   H55   S    
C22   C97   D    
Ba1   O14   S    
C19   C98   S    
C83   H61   S    
C45   C50   S    
C104  H147  S    
Ba1   Ba2   S    
C62   P1    S    
C57   C62   D    
H14   O50   S    
C12   H50   S    
C4    C5    S    
O11   P10   S    
C60   H95   S    
Ba1   O5    S    
C51   C68   S    
O63   P15   S    
C22   C27   A    
C101  H143  S    
C75   H133  S    
C108  C109  S    
C18   P13   S    
C112  H22   S    
O20   P8    D    
C59   C63   D    
C13   C20   A    
C63   P9    S    
Ba4   O8    S    
C85   H68   S    
C84   C88   S    
C4    O55   S    
Ba4   P11   S    
C14   H52   S    
C84   H67   S    
C18   C102  A    
C5    H31   S    
O6    P12   S    
C10   H44   S    
C103  H144  S    
C41   H112  S    
C54   H125  S    
C7    H36   S    
C12   O60   S    
C89   O46   S    
C55   O3    S    
C4    H28   S    
C13   C33   A    
C56   O4    S    
C37   H107  S    
C35   C42   D    
C41   C50   S    
C8    H39   S    
C9    H42   S    
Ba2   P9    S    
C88   O44   S    
C30   C34   A    
O35   P15   D    
C70   C91   A    
C105  H150  S    
C82   H13   S    
Ba2   O15   S    
C109  H11   S    
C46   C51   S    
C65   P11   S    
O26   P11   S    
Ba4   P15   S    
Ba1   P12   S    
C31   C102  A    
Ba3   P10   S    
C25   H85   S    
C44   C57   S    
C2    C19   A    
C110  H17   S    
C27   C35   S    
C85   H63   S    
C53   H124  S    
Ba4   O39   S    
C96   H83   S    
C98   H99   S    
Ba3   O13   S    
C12   C14   S    
H12   O49   S    
C26   C100  D    
Ba3   O33   S    
C3    H26   S    
O32   P13   D    
C48   C52   S    
C17   O57   S    
C72   O59   S    
