data_mof_unit_29595.cif
_audit_creation_date              2012-12-10T18:57:38-0500
_audit_creation_method            fapswitch 2.2
_symmetry_space_group_name_H-M    P1
_symmetry_Int_Tables_number       1
_space_group_crystal_system       triclinic
_cell_length_a                    10.918572
_cell_length_b                    10.838683
_cell_length_c                    9.550186
_cell_angle_alpha                 89.570177
_cell_angle_beta                  89.528336
_cell_angle_gamma                 90.635875
_cell_volume                      1130.05661709

loop_
_atom_site_label
_atom_site_type_symbol
_atom_type_description
_atom_site_fract_x
_atom_site_fract_y
_atom_site_fract_z
_atom_type_partial_charge
C1    C     C_R   0.502311 0.262360 0.500482 0.795158
C2    C     C_R   0.513477 0.129334 0.501067 -0.133795
C3    C     C_R   0.529702 0.065746 0.374533 -0.212875
C4    C     C_R   0.527183 0.937254 0.373622 -0.227177
C5    C     C_R   0.508330 0.871014 0.499044 -0.099292
C6    C     C_R   0.505281 0.935064 0.625055 0.092981
C7    C     C_3   0.412366 0.928359 0.740952 -0.469229
C8    C     C_3   0.422465 0.068335 0.747618 -0.060181
C9    C     C_R   0.600276 0.542721 0.071957 0.211491
C10   C     C_R   0.406068 0.448401 0.075701 -0.081550
C11   C     C_R   0.405583 0.449393 0.927053 -0.112818
C12   C     C_R   0.265259 0.496626 0.500678 0.849205
C13   C     C_R   0.599759 0.541755 0.924520 0.236233
C14   C     C_3   0.655371 0.666667 0.911720 -0.548555
C15   C     C_3   0.655409 0.671199 0.071307 -0.100890
C16   C     C_R   0.499927 0.737680 0.499555 0.795140
C17   C     C_R   0.734705 0.499749 0.499698 0.840874
C18   C     C_2   0.933213 0.465875 0.391522 -0.161772
C19   C     C_2   0.866867 0.505282 0.500525 -0.310866
C20   C     C_2   0.067134 0.475223 0.388006 -0.160548
C21   C     C_2   0.133121 0.486269 0.504890 -0.328138
C22   C     C_R   0.510874 0.062362 0.626824 0.140683
Cu1   Cu    Cu3+1 0.499990 0.499980 0.640670 0.932328
Cu2   Cu    Cu3+1 0.500010 0.500020 0.359330 0.935424
H1    H     H_    0.888402 0.427897 0.300136 0.149669
H2    H     H_    0.329379 0.407503 0.132105 0.136942
H3    H     H_    0.328511 0.409267 0.872723 0.136140
H4    H     H_    0.746817 0.662858 0.859995 0.187004
H5    H     H_    0.592731 0.734285 0.863878 0.202638
H6    H     H_    0.590747 0.740978 0.112196 0.177762
H7    H     H_    0.908389 0.544707 0.592807 0.139166
H8    H     H_    0.111947 0.470267 0.286248 0.157399
H9    H     H_    0.091106 0.482675 0.608022 0.144516
H10   H     H_    0.538588 0.114692 0.275612 0.168172
H11   H     H_    0.534584 0.890665 0.274337 0.160651
H12   H     H_    0.321463 0.895634 0.703710 0.170069
H13   H     H_    0.444650 0.878928 0.835328 0.197049
H14   H     H_    0.335552 0.114610 0.719119 0.125515
N1    N     N_R   0.500780 0.500930 0.147930 -0.192547
N2    N     N_R   0.500780 0.500890 0.852020 -0.178660
O1    O     O_R   0.500000 0.319640 0.618810 -0.586498
O2    O     O_R   0.500010 0.319680 0.381230 -0.585135
O3    O     O_R   0.321940 0.499980 0.618760 -0.591561
O4    O     O_R   0.321950 0.500020 0.381180 -0.581979
O5    O     O_R   0.499990 0.680320 0.618770 -0.576295
O6    O     O_R   0.500000 0.680360 0.381190 -0.587534
O7    O     O_R   0.678050 0.499980 0.618820 -0.582142
O8    O     O_R   0.678060 0.500020 0.381240 -0.576478
C23   C     C_3   0.478041 0.118963 0.884544 -0.347625
C24   C     C_3   0.607000 0.073870 0.919746 -0.815214
H15   H     H_    0.608125 0.972574 0.936556 0.241489
H16   H     H_    0.673073 0.099710 0.835264 0.252823
H17   H     H_    0.637898 0.118329 0.017896 0.225527
H18   H     H_    0.482480 0.220734 0.876092 0.220747
H19   H     H_    0.415212 0.095407 0.973121 0.191012
C25   C     C_3   0.786329 0.679704 0.131568 -0.336607
C26   C     C_3   0.793174 0.765089 0.257625 -0.814976
H20   H     H_    0.768269 0.860429 0.226367 0.239096
H21   H     H_    0.730817 0.732866 0.342399 0.265647
H22   H     H_    0.888061 0.766645 0.298595 0.238636
H23   H     H_    0.819433 0.586992 0.161159 0.206124
H24   H     H_    0.851827 0.717486 0.052059 0.197626

loop_
_geom_bond_atom_site_label_1
_geom_bond_atom_site_label_2
_ccdc_geom_bond_type
C16   O5    A    
C2    C22   A    
C8    C22   S    
Cu1   Cu2   S    
C6    C7    S    
Cu1   O5    S    
Cu2   O2    S    
C7    H12   S    
C24   H16   S    
Cu1   O1    S    
C17   O8    A    
C11   H3    S    
Cu2   O6    S    
C15   C25   S    
C10   H2    S    
C24   H15   S    
C7    H13   S    
C4    H11   S    
C19   H7    S    
C7    C8    S    
C12   O4    A    
C23   H19   S    
C13   C14   S    
C25   C26   S    
C26   H20   S    
C11   N2    A    
C18   H1    S    
C8    H14   S    
C4    C5    A    
C12   C21   S    
C1    O1    A    
C17   C19   S    
C2    C3    A    
C12   O3    A    
C18   C20   S    
C9    C15   S    
C5    C6    A    
Cu2   O4    S    
C25   H24   S    
C26   H21   S    
C24   H17   S    
Cu1   O7    S    
C10   C11   A    
C13   N2    A    
C14   H5    S    
Cu1   N2    S    
Cu2   O8    S    
C17   O7    A    
C1    O2    A    
C9    N1    A    
Cu2   N1    S    
C21   H9    S    
C20   C21   D    
C15   H6    S    
C1    C2    S    
C20   H8    S    
C16   O6    A    
C23   C24   S    
C9    C13   A    
C14   C15   S    
C18   C19   D    
C26   H22   S    
C3    H10   S    
C14   H4    S    
C25   H23   S    
Cu1   O3    S    
C8    C23   S    
C3    C4    A    
C23   H18   S    
C10   N1    A    
C5    C16   S    
C6    C22   A    
