data_mof_unit_32240.cif
_audit_creation_date              2012-12-11T17:07:36-0500
_audit_creation_method            fapswitch 2.2
_symmetry_space_group_name_H-M    P1
_symmetry_Int_Tables_number       1
_space_group_crystal_system       triclinic
_cell_length_a                    6.990829
_cell_length_b                    14.443086
_cell_length_c                    16.167156
_cell_angle_alpha                 89.941742
_cell_angle_beta                  90.495769
_cell_angle_gamma                 89.875803
_cell_volume                      1632.31809076

loop_
_atom_site_label
_atom_site_type_symbol
_atom_type_description
_atom_site_fract_x
_atom_site_fract_y
_atom_site_fract_z
_atom_type_partial_charge
O1    O     O_R   0.505720 0.583900 0.413310 -0.526961
O2    O     O_R   0.175940 0.594920 0.586080 -0.547407
O3    O     O_R   0.005640 0.416100 0.586690 -0.535988
C1    C     C_R   0.345056 0.617312 0.614414 0.689544
O4    O     O_R   0.176000 0.594930 0.413930 -0.555180
O5    O     O_R   0.005700 0.416110 0.413310 -0.541928
C2    C     C_R   0.343423 0.616198 0.384494 0.723335
O6    O     O_R   0.505660 0.583890 0.586690 -0.537922
O7    O     O_3   0.339200 0.441330 0.500000 -0.364698
V1    V     V_3+5 0.064350 0.510880 0.500000 1.386624
O8    O     O_R   0.675980 0.405080 0.413920 -0.534858
C3    C     C_R   0.844900 0.383742 0.385085 0.709939
O9    O     O_R   0.675920 0.405070 0.586070 -0.535429
C4    C     C_R   0.845647 0.381769 0.613429 0.695202
V2    V     V_3+5 0.564340 0.489120 0.500000 1.433797
O10   O     O_3   0.839360 0.558670 0.500000 -0.377495
C5    C     C_R   0.009348 0.431932 0.772412 -0.148948
C6    C     C_R   0.095873 0.457517 0.846804 -0.119214
C7    C     C_R   0.112140 0.394009 0.910969 -0.112870
C8    C     C_R   0.038590 0.305015 0.901847 -0.138881
C9    C     C_R   0.953257 0.276235 0.826362 0.065716
C10   C     C_R   0.940329 0.340750 0.759765 0.074604
C11   C     C_R   0.876641 0.185869 0.817243 -0.162483
C12   C     C_R   0.790677 0.159676 0.740956 0.079729
C13   C     C_R   0.790249 0.221571 0.672501 0.002794
C14   C     C_R   0.858306 0.313681 0.682696 -0.163086
C15   C     C_R   0.708162 0.071187 0.730670 -0.222395
C16   C     C_R   0.636366 0.042396 0.654942 -0.244135
C17   C     C_R   0.661949 0.096954 0.583823 0.485548
C18   C     C_R   0.729824 0.187784 0.594162 -0.189927
H1    H     H_    0.997600 0.484824 0.725361 0.112721
H2    H     H_    0.149712 0.527217 0.854789 0.132193
H3    H     H_    0.179287 0.414301 0.968726 0.131980
H4    H     H_    0.048352 0.259793 0.955029 0.116781
H5    H     H_    0.700058 0.021307 0.780141 0.137037
H6    H     H_    0.568858 0.975254 0.653110 0.115749
H7    H     H_    0.741334 0.230517 0.539372 0.116195
C19   C     C_R   0.755708 0.173410 0.250733 0.079447
C20   C     C_R   0.881018 0.184800 0.184071 -0.099356
C21   C     C_R   0.006493 0.260793 0.188805 -0.120565
H8    H     H_    0.101822 0.274964 0.138172 0.175438
C22   C     C_R   0.000609 0.323413 0.255935 -0.190273
H9    H     H_    0.098293 0.381501 0.256507 0.131717
C23   C     C_R   0.859821 0.315162 0.317697 -0.093820
C24   C     C_R   0.745553 0.236387 0.315018 -0.001750
C25   C     C_3   0.537448 0.221515 0.327294 -0.467776
C26   C     C_3   0.548270 0.150938 0.256748 0.689152
H10   H     H_    0.451040 0.284112 0.312146 0.177750
H11   H     H_    0.508294 0.190682 0.388804 0.197099
C27   C     C_R   0.510743 0.685553 0.738969 0.113530
C28   C     C_R   0.353704 0.683434 0.684595 -0.117558
C29   C     C_R   0.200573 0.743999 0.701303 -0.194100
H12   H     H_    0.076676 0.745256 0.660930 0.139456
C30   C     C_R   0.211330 0.808014 0.766965 -0.171344
H13   H     H_    0.094796 0.856337 0.775369 0.129306
C31   C     C_R   0.375956 0.813753 0.817727 -0.104485
C32   C     C_R   0.521891 0.749233 0.803667 0.124697
C33   C     C_3   0.729403 0.765634 0.789662 -0.416572
C34   C     C_3   0.717372 0.696039 0.719524 -0.411747
H14   H     H_    0.819255 0.741476 0.842524 0.198356
H15   H     H_    0.758156 0.837385 0.768196 0.156055
H16   H     H_    0.799688 0.631558 0.731997 0.171978
H17   H     H_    0.739783 0.727279 0.657468 0.174725
C35   C     C_R   0.522164 0.729848 0.298534 0.020603
C36   C     C_R   0.350491 0.684893 0.315857 -0.101445
C37   C     C_R   0.205418 0.690497 0.255136 -0.212127
H18   H     H_    0.088334 0.642648 0.257678 0.117175
C38   C     C_R   0.224727 0.748722 0.185377 0.357320
C39   C     C_R   0.380431 0.810024 0.179742 -0.161835
C40   C     C_R   0.534627 0.795846 0.234400 -0.040066
C41   C     C_3   0.717569 0.754921 0.206002 -0.371558
C42   C     C_3   0.694094 0.678524 0.269052 0.281147
H19   H     H_    0.838799 0.802061 0.220276 0.161336
H20   H     H_    0.707293 0.731717 0.140582 0.226707
H21   H     H_    0.806218 0.672644 0.317902 0.068019
O11   O     O_R   0.229140 0.916090 0.913340 -0.535185
O12   O     O_R   0.558860 0.905090 0.086080 -0.532814
O13   O     O_R   0.729100 0.083920 0.086690 -0.506602
C43   C     C_R   0.390586 0.880585 0.112758 0.766060
O14   O     O_R   0.558860 0.905090 0.913930 -0.550018
O15   O     O_R   0.729100 0.083920 0.913310 -0.542742
C44   C     C_R   0.389595 0.883545 0.884904 0.695468
O16   O     O_R   0.229140 0.916080 0.086720 -0.520661
O17   O     O_3   0.395570 0.058660 0.000020 -0.344753
V3    V     V_3+5 0.670450 0.989140 0.000000 1.511717
O18   O     O_R   0.058810 0.094980 0.913910 -0.545232
C45   C     C_R   0.889135 0.117791 0.886322 0.666210
O19   O     O_R   0.058810 0.094980 0.086060 -0.530079
C46   C     C_R   0.889966 0.117501 0.114471 0.716381
V4    V     V_3+5 0.170450 0.010950 0.999970 1.516426
O20   O     O_3   0.895460 0.941370 0.999990 -0.356495
O21   O     O_3   0.625349 0.067157 0.503014 -0.588769
C47   C     C_3   0.600057 0.970149 0.493069 0.069090
H22   H     H_    0.564776 0.958972 0.426779 0.188176
H23   H     H_    0.472962 0.944665 0.526976 0.095898
C48   C     C_3   0.781942 0.913186 0.513985 -0.351902
H24   H     H_    0.911744 0.952615 0.497235 0.212609
H25   H     H_    0.792161 0.898637 0.581178 0.177371
C49   C     C_3   0.782573 0.820113 0.469308 -0.827112
H26   H     H_    0.653417 0.779553 0.485705 0.226010
H27   H     H_    0.911705 0.779917 0.487770 0.227473
H28   H     H_    0.785505 0.830947 0.401374 0.226567
Cl1   Cl    Cl    0.426041 0.186230 0.164092 -0.740252
O22   O     O_3   0.527991 0.058030 0.283761 -0.587580
C50   C     C_3   0.338995 0.024229 0.276827 0.090785
H29   H     H_    0.346231 0.949318 0.291092 0.124360
H30   H     H_    0.281852 0.029763 0.212918 0.170204
C51   C     C_3   0.200898 0.067658 0.338672 -0.372580
H31   H     H_    0.264484 0.065901 0.401856 0.212317
H32   H     H_    0.171185 0.140690 0.321449 0.224342
C52   C     C_3   0.013306 0.013973 0.338795 -0.802107
H33   H     H_    0.952904 0.008722 0.275257 0.231982
H34   H     H_    0.908473 0.049873 0.378716 0.272742
H35   H     H_    0.038408 0.942773 0.362405 0.223136
Cl2   Cl    Cl    0.083971 0.727981 0.096459 -0.742508
O23   O     O_3   0.631661 0.593304 0.234531 -0.555315
C53   C     C_3   0.779694 0.545794 0.194290 0.074664
H36   H     H_    0.879491 0.515315 0.240689 0.092380
H37   H     H_    0.859988 0.592095 0.152702 0.189149
C54   C     C_3   0.690349 0.468499 0.142035 -0.261858
H38   H     H_    0.655568 0.408624 0.182366 0.205939
H39   H     H_    0.554519 0.493364 0.113250 0.219401
C55   C     C_3   0.823273 0.437569 0.073002 -0.807397
H40   H     H_    0.831045 0.492187 0.024712 0.248524
H41   H     H_    0.767642 0.373083 0.044295 0.238887
H42   H     H_    0.969533 0.424681 0.097512 0.223367

loop_
_geom_bond_atom_site_label_1
_geom_bond_atom_site_label_2
_ccdc_geom_bond_type
C37   C38   A    
C47   H22   S    
C52   H33   S    
C12   C15   A    
C1    O6    A    
V3    O20   S    
C55   H40   S    
C24   C25   S    
O23   C53   S    
C50   H30   S    
C25   H11   S    
O14   V3    S    
O17   V4    S    
C27   C34   S    
C16   C17   A    
C53   H37   S    
O5    C3    A    
C19   C20   A    
C55   H41   S    
C33   H14   S    
V2    O10   S    
C48   C49   S    
C51   H31   S    
C6    C7    A    
C19   C24   A    
C30   H13   S    
O8    V2    S    
C7    C8    A    
C54   H39   S    
C38   C39   A    
C48   H25   S    
C11   C12   A    
C40   C41   S    
O1    V2    S    
C35   C40   A    
O7    V1    S    
C54   C55   S    
C8    H4    S    
C33   H15   S    
C21   C22   A    
C37   H18   S    
O12   V3    S    
C47   H23   S    
C11   C45   S    
O9    C4    A    
C22   C23   A    
C42   H21   S    
O22   C50   S    
C29   C30   A    
C27   C28   A    
C25   H10   S    
O12   C43   A    
O13   C46   A    
C50   C51   S    
C30   C31   A    
C26   Cl1   S    
C1    C28   S    
C28   C29   A    
C12   C13   A    
O14   C44   A    
O18   V4    S    
C53   C54   S    
O11   C44   A    
C20   C21   A    
O4    C2    A    
O18   C45   A    
C55   H42   S    
C15   H5    S    
C13   C14   A    
C4    C14   S    
C18   H7    S    
O2    C1    A    
C17   C18   A    
C2    C36   S    
C49   H26   S    
C48   H24   S    
C8    C9    A    
C5    C6    A    
C52   H34   S    
C29   H12   S    
O17   V3    S    
C19   C26   S    
O15   C45   A    
O3    C4    A    
O13   V3    S    
C21   H8    S    
C49   H27   S    
O19   V4    S    
C47   C48   S    
C9    C11   A    
C7    H3    S    
C5    H1    S    
C39   C43   S    
C6    H2    S    
C22   H9    S    
V4    O20   S    
O2    V1    S    
C23   C24   A    
C41   H19   S    
C13   C18   A    
C31   C32   A    
O16   V4    S    
C25   C26   S    
C34   H16   S    
C26   O22   S    
O1    C2    A    
C27   C32   A    
O5    V1    S    
C41   H20   S    
O8    C3    A    
C31   C44   S    
O6    V2    S    
C50   H29   S    
C42   O23   S    
C34   H17   S    
C5    C10   A    
C51   C52   S    
C35   C36   A    
O9    V2    S    
C33   C34   S    
C41   C42   S    
C3    C23   S    
O3    V1    S    
V1    O10   S    
C53   H36   S    
C43   O16   A    
C32   C33   S    
O21   C47   S    
C51   H32   S    
C52   H35   S    
C35   C42   S    
O7    V2    S    
C39   C40   A    
C38   Cl2   S    
O4    V1    S    
C49   H28   S    
O19   C46   A    
C16   H6    S    
C36   C37   A    
C10   C14   A    
C15   C16   A    
C54   H38   S    
C9    C10   A    
C20   C46   S    
C17   O21   S    
O15   V3    S    
O11   V4    S    
