data_mof_unit_43244.cif
_audit_creation_date              2012-12-11T15:42:36-0500
_audit_creation_method            fapswitch 2.2
_symmetry_space_group_name_H-M    P1
_symmetry_Int_Tables_number       1
_space_group_crystal_system       triclinic
_cell_length_a                    6.958397
_cell_length_b                    14.547751
_cell_length_c                    16.236429
_cell_angle_alpha                 90.610397
_cell_angle_beta                  90.266001
_cell_angle_gamma                 89.947483
_cell_volume                      1643.48630874

loop_
_atom_site_label
_atom_site_type_symbol
_atom_type_description
_atom_site_fract_x
_atom_site_fract_y
_atom_site_fract_z
_atom_type_partial_charge
O1    O     O_R   0.505810 0.583360 0.413880 -0.544101
O2    O     O_R   0.175870 0.595480 0.585520 -0.542907
O3    O     O_R   0.005540 0.416640 0.586120 -0.546829
C1    C     C_R   0.345139 0.617478 0.614419 0.691372
O4    O     O_R   0.176100 0.594390 0.414490 -0.496642
O5    O     O_R   0.005770 0.415540 0.413870 -0.543675
C2    C     C_R   0.344295 0.616548 0.386257 0.754499
O6    O     O_R   0.505580 0.584460 0.586130 -0.542442
O7    O     O_3   0.339190 0.441320 0.500000 -0.383837
V1    V     V_3+5 0.064350 0.510890 0.500000 1.487970
O8    O     O_R   0.676050 0.404520 0.414480 -0.548161
C3    C     C_R   0.844926 0.382114 0.385800 0.687256
O9    O     O_R   0.675830 0.405610 0.585510 -0.542829
C4    C     C_R   0.845326 0.383771 0.613684 0.733474
V2    V     V_3+5 0.564340 0.489110 0.500000 1.431852
O10   O     O_3   0.839370 0.558680 0.500000 -0.353938
C5    C     C_2   0.721257 0.209084 0.785713 -0.126646
C6    C     C_2   0.885532 0.181522 0.822532 -0.306100
H1    H     H_    0.585539 0.180827 0.806344 0.134626
H2    H     H_    0.022838 0.209052 0.803796 0.128956
C7    C     C_2   0.709423 0.277396 0.717724 -0.126284
C8    C     C_2   0.862257 0.315751 0.680632 -0.299703
H3    H     H_    0.565872 0.296121 0.697368 0.134976
H4    H     H_    0.006984 0.297794 0.699219 0.129346
C9    C     C_R   0.046864 0.222809 0.219871 -0.147171
H5    H     H_    0.187228 0.204161 0.196490 0.115335
C10   C     C_R   0.035363 0.286831 0.284672 -0.142444
H6    H     H_    0.167564 0.315672 0.309025 0.117331
C11   C     C_R   0.856183 0.313279 0.317403 -0.045714
C12   C     C_R   0.688839 0.273913 0.283457 -0.151622
H7    H     H_    0.548474 0.292559 0.306839 0.116018
C13   C     C_R   0.700341 0.209891 0.218656 -0.136748
H8    H     H_    0.568142 0.181047 0.194303 0.118337
C14   C     C_R   0.879517 0.183469 0.185907 -0.042024
C15   C     C_R   0.205828 0.689179 0.741754 -0.189785
H9    H     H_    0.082026 0.644542 0.734338 0.122226
C16   C     C_R   0.214644 0.749734 0.809693 0.006002
C17   C     C_R   0.376406 0.808531 0.820940 -0.118305
C18   C     C_R   0.526991 0.802018 0.763515 -0.129218
H10   H     H_    0.651248 0.846353 0.769230 0.159227
C19   C     C_R   0.517893 0.740022 0.696859 -0.149550
H11   H     H_    0.636538 0.737187 0.653954 0.129358
C20   C     C_R   0.355909 0.683865 0.684624 -0.057688
C21   C     C_R   0.185671 0.728098 0.288787 0.558238
C22   C     C_R   0.195028 0.786900 0.220831 -0.088914
C23   C     C_R   0.373053 0.807886 0.183459 -0.200253
C24   C     C_R   0.534090 0.759457 0.210801 -0.103632
H12   H     H_    0.664839 0.764435 0.178453 0.173535
C25   C     C_R   0.525704 0.699078 0.276864 -0.192925
H13   H     H_    0.655087 0.662770 0.294458 0.212044
C26   C     C_R   0.352156 0.683576 0.317823 -0.191685
O11   O     O_R   0.230120 0.912300 0.917180 -0.523749
O12   O     O_R   0.559740 0.902430 0.088770 -0.541181
O13   O     O_R   0.729930 0.081310 0.089370 -0.542024
C27   C     C_R   0.389716 0.878022 0.115959 0.731169
O14   O     O_R   0.559840 0.901330 0.917750 -0.525170
O15   O     O_R   0.730030 0.080210 0.917120 -0.542112
C28   C     C_R   0.389859 0.877597 0.889886 0.690511
O16   O     O_R   0.230020 0.913400 0.089430 -0.529880
O17   O     O_3   0.396460 0.055470 0.003290 -0.386427
V3    V     V_3+5 0.671360 0.985960 0.003250 1.491295
O18   O     O_R   0.059740 0.091300 0.917690 -0.548127
C29   C     C_R   0.890782 0.113113 0.889513 0.740125
O19   O     O_R   0.059640 0.092400 0.088720 -0.548577
C30   C     C_R   0.890774 0.114704 0.117464 0.707525
V4    V     V_3+5 0.171350 0.007820 0.003190 1.477995
O20   O     O_3   0.896380 0.938200 0.003220 -0.345808
C31   C     C_2   0.056018 0.744947 0.869275 0.747001
O21   O     O_2   0.933553 0.805080 0.870972 -0.553683
O22   O     O_R   0.041007 0.668609 0.920297 -0.656836
H14   H     H_    0.922687 0.671199 0.956435 0.307566
F1    F     F_    0.011931 0.711634 0.323507 -0.695789
C32   C     C_2   0.015345 0.811850 0.180349 0.824537
O23   O     O_2   0.915525 0.873821 0.208333 -0.552369
O24   O     O_R   0.970893 0.768238 0.105369 -0.671434
H15   H     H_    0.853997 0.794180 0.076761 0.295233

loop_
_geom_bond_atom_site_label_1
_geom_bond_atom_site_label_2
_ccdc_geom_bond_type
C27   O16   A    
C3    C11   S    
C10   C11   A    
C32   O24   S    
C32   O23   D    
C15   H9    S    
C1    O6    A    
C18   C19   A    
O13   C30   A    
C22   C23   A    
O18   C29   A    
C15   C16   A    
C16   C17   A    
O16   V4    S    
O5    C3    A    
C17   C18   A    
C6    C29   S    
V2    O10   S    
C16   C31   S    
C22   C32   S    
C19   H11   S    
C17   C28   S    
O8    V2    S    
C31   O21   D    
C25   C26   A    
C23   C27   S    
O22   H14   S    
O1    V2    S    
C15   C20   A    
O7    V1    S    
C9    C14   A    
V4    O20   S    
O17   V4    S    
O9    C4    A    
C19   C20   A    
O12   V3    S    
C14   C30   S    
O15   C29   A    
O12   C27   A    
O18   V4    S    
C24   C25   A    
C18   H10   S    
O4    C2    A    
C9    H5    S    
C5    C7    S    
O17   V3    S    
C13   C14   A    
O2    C1    A    
O24   H15   S    
C11   C12   A    
V3    O20   S    
C24   H12   S    
C5    C6    D    
O3    C4    A    
O11   C28   A    
C21   C26   A    
C1    C20   S    
O6    V2    S    
O9    V2    S    
C8    H4    S    
O2    V1    S    
O11   V4    S    
C21   C22   A    
C23   C24   A    
O1    C2    A    
O5    V1    S    
O8    C3    A    
O15   V3    S    
O13   V3    S    
C9    C10   A    
C13   H8    S    
C4    C8    S    
C7    H3    S    
O7    V2    S    
C2    C26   S    
O4    V1    S    
O3    V1    S    
V1    O10   S    
O19   C30   A    
C12   C13   A    
C12   H7    S    
C5    H1    S    
O14   C28   A    
C21   F1    S    
C6    H2    S    
C31   O22   S    
C25   H13   S    
C10   H6    S    
O14   V3    S    
C7    C8    D    
O19   V4    S    
