data_mof_unit_59152.cif
_audit_creation_date              2012-12-10T20:45:35-0500
_audit_creation_method            fapswitch 2.2
_symmetry_space_group_name_H-M    P1
_symmetry_Int_Tables_number       1
_space_group_crystal_system       triclinic
_cell_length_a                    10.750488
_cell_length_b                    10.72126
_cell_length_c                    9.841023
_cell_angle_alpha                 90.028676
_cell_angle_beta                  90.502924
_cell_angle_gamma                 89.843525
_cell_volume                      1134.21622073

loop_
_atom_site_label
_atom_site_type_symbol
_atom_type_description
_atom_site_fract_x
_atom_site_fract_y
_atom_site_fract_z
_atom_type_partial_charge
C1    C     C_R   0.498263 0.260018 0.499921 0.877070
C2    C     C_R   0.214187 0.729636 0.032682 -0.094604
C3    C     C_R   0.931904 0.547575 0.388764 -0.228245
C4    C     C_R   0.872670 0.501200 0.503908 -0.067080
C5    C     C_R   0.941095 0.462045 0.619234 -0.004415
C6    C     C_R   0.068341 0.465247 0.613683 -0.248315
C7    C     C_R   0.127729 0.510121 0.498187 -0.079618
C8    C     C_R   0.059686 0.555029 0.385070 -0.003426
C9    C     C_R   0.862856 0.503216 0.852973 -0.103852
C10   C     C_R   0.817844 0.461278 0.977624 -0.157864
C11   C     C_R   0.796085 0.334320 0.998166 -0.129289
C12   C     C_R   0.260133 0.504862 0.499138 0.863434
C13   C     C_R   0.819810 0.248977 0.894097 -0.143418
C14   C     C_R   0.864481 0.290534 0.768902 -0.158392
C15   C     C_R   0.885732 0.418036 0.747644 0.135766
C16   C     C_R   0.484809 0.064024 0.622310 0.058205
C17   C     C_R   0.485606 0.128425 0.499618 -0.059793
C18   C     C_R   0.472465 0.064168 0.376391 -0.220423
C19   C     C_R   0.474800 0.935639 0.376445 -0.233233
C20   C     C_R   0.489188 0.871783 0.499739 -0.051132
C21   C     C_R   0.487759 0.936584 0.622453 0.054013
C22   C     C_3   0.575895 0.932308 0.741440 0.092592
C23   C     C_R   0.499498 0.739992 0.499957 0.915077
C24   C     C_3   0.572905 0.073537 0.740002 -0.491468
C25   C     C_R   0.469203 0.394468 0.070964 0.211195
C26   C     C_R   0.540806 0.600504 0.072473 -0.140017
C27   C     C_R   0.541515 0.600121 0.928487 -0.125137
C28   C     C_R   0.467794 0.395081 0.928189 0.242102
C29   C     C_3   0.345240 0.330480 0.922339 -0.517953
C30   C     C_3   0.348372 0.326985 0.076437 -0.508028
C31   C     C_R   0.740104 0.498674 0.501151 0.900395
C32   C     C_R   0.231261 0.783606 0.160736 -0.139596
C33   C     C_R   0.183330 0.725807 0.276428 -0.085332
C34   C     C_R   0.116459 0.613892 0.264103 0.141220
C35   C     C_R   0.097659 0.561599 0.134645 -0.196283
C36   C     C_R   0.147222 0.618814 0.019620 -0.125837
H1    H     H_    0.252005 0.774213 0.943492 0.125009
H2    H     H_    0.761514 0.302073 0.094931 0.138741
H3    H     H_    0.804274 0.150504 0.910819 0.160662
H4    H     H_    0.883756 0.223595 0.689305 0.141212
H5    H     H_    0.468478 0.112258 0.279890 0.157967
H6    H     H_    0.472899 0.887209 0.279962 0.158975
H7    H     H_    0.532259 0.892426 0.833568 0.111037
H8    H     H_    0.528966 0.113931 0.831733 0.171304
H9    H     H_    0.662047 0.117539 0.710641 0.229094
H10   H     H_    0.572510 0.682177 0.126999 0.150530
H11   H     H_    0.280354 0.871066 0.169820 0.119287
H12   H     H_    0.574895 0.680704 0.874619 0.173278
H13   H     H_    0.270098 0.390911 0.880703 0.209280
H14   H     H_    0.351135 0.236628 0.875160 0.199052
H15   H     H_    0.273906 0.382653 0.124750 0.232585
H16   H     H_    0.358975 0.231059 0.117249 0.187975
H17   H     H_    0.196842 0.768846 0.375049 0.109022
H18   H     H_    0.046209 0.475525 0.123323 0.143693
H19   H     H_    0.133225 0.577596 0.920306 0.133126
H20   H     H_    0.878382 0.582201 0.302662 0.159975
H21   H     H_    0.121080 0.430950 0.700390 0.154982
H22   H     H_    0.880776 0.601692 0.838721 0.162412
H23   H     H_    0.800960 0.527134 0.058759 0.140873
N1    N     N_R   0.499160 0.499140 0.142800 -0.102838
N2    N     N_R   0.499160 0.499180 0.857150 -0.104769
O1    O     O_R   0.500020 0.316790 0.614690 -0.616201
O2    O     O_R   0.500000 0.316760 0.385350 -0.629451
O3    O     O_R   0.316770 0.500030 0.614670 -0.632052
O4    O     O_R   0.316750 0.499990 0.385330 -0.612282
O5    O     O_R   0.500000 0.683240 0.614650 -0.614599
O6    O     O_R   0.499980 0.683210 0.385310 -0.635666
O7    O     O_R   0.683250 0.500010 0.614670 -0.593493
O8    O     O_R   0.683230 0.499970 0.385330 -0.634274
Zn1   Zn    Zn3+2 0.500010 0.500020 0.653130 0.964858
Zn2   Zn    Zn3+2 0.499990 0.499980 0.346870 0.946668
Br1   Br    Br    0.740064 0.865512 0.699738 -0.584290

loop_
_geom_bond_atom_site_label_1
_geom_bond_atom_site_label_2
_ccdc_geom_bond_type
N2    Zn1   S    
C27   H12   S    
C11   H2    S    
C30   H15   S    
C19   H6    S    
C16   C21   A    
C25   N1    A    
O3    Zn1   S    
C3    H20   S    
O5    Zn1   S    
C1    C17   S    
C35   C36   A    
C2    H1    S    
C20   C23   S    
C10   H23   S    
C28   N2    A    
C19   C20   A    
C33   C34   A    
C9    C15   A    
C7    C8    A    
C16   C24   S    
C36   H19   S    
C29   H13   S    
C21   C22   S    
C32   C33   A    
C35   H18   S    
C33   H17   S    
C11   C13   A    
C6    H21   S    
C26   C27   A    
C29   C30   S    
C12   O3    A    
C24   H9    S    
C1    O2    A    
C23   O5    A    
C22   Br1   S    
C28   C29   S    
O2    Zn2   S    
C9    H22   S    
C6    C7    A    
O6    Zn2   S    
C29   H14   S    
C3    C8    A    
C17   C18   A    
C5    C6    A    
C24   H8    S    
C32   H11   S    
C22   C24   S    
C7    C12   S    
C5    C15   S    
C4    C31   S    
C13   H3    S    
C10   C11   A    
C26   H10   S    
C14   H4    S    
C3    C4    A    
C9    C10   A    
C31   O8    A    
C2    C36   A    
C20   C21   A    
O1    Zn1   S    
C1    O1    A    
O7    Zn1   S    
C34   C35   A    
C12   O4    A    
C18   H5    S    
C23   O6    A    
C25   C30   S    
O8    Zn2   S    
C18   C19   A    
C30   H16   S    
C14   C15   A    
C2    C32   A    
C8    C34   S    
C27   N2    A    
N1    Zn2   S    
O4    Zn2   S    
C26   N1    A    
C31   O7    A    
C22   H7    S    
C16   C17   A    
C4    C5    A    
C25   C28   A    
C13   C14   A    
