data_mof_unit_51254.cif
_audit_creation_date              2012-12-10T17:03:55-0500
_audit_creation_method            fapswitch 2.2
_symmetry_space_group_name_H-M    P1
_symmetry_Int_Tables_number       1
_space_group_crystal_system       triclinic
_cell_length_a                    9.807669
_cell_length_b                    11.046465
_cell_length_c                    15.839276
_cell_angle_alpha                 94.684051
_cell_angle_beta                  79.182954
_cell_angle_gamma                 111.263396
_cell_volume                      1570.61747827

loop_
_atom_site_label
_atom_site_type_symbol
_atom_type_description
_atom_site_fract_x
_atom_site_fract_y
_atom_site_fract_z
_atom_type_partial_charge
C1    C     C_R   0.556110 0.745389 0.506187 0.867339
C2    C     C_R   0.443871 0.254609 0.493845 0.866193
C3    C     C_R   0.326986 0.384062 0.068619 -0.249492
C4    C     C_R   0.680088 0.556582 0.923761 -0.247947
C5    C     C_R   0.224750 0.350878 0.013224 -0.210982
C6    C     C_R   0.782311 0.588269 0.979123 -0.211022
C7    C     C_2   0.587721 0.884513 0.509594 -0.351767
C8    C     C_2   0.412220 0.115484 0.490513 -0.349836
C9    C     C_2   0.484267 0.930543 0.498513 -0.148469
C10   C     C_2   0.515614 0.069450 0.501700 -0.150278
C11   C     C_2   0.923211 0.490226 0.492534 -0.074914
C12   C     C_2   0.076770 0.509746 0.507479 -0.075177
C13   C     C_R   0.410999 0.485333 0.662719 0.827614
C14   C     C_R   0.588764 0.513371 0.337202 0.830545
C15   C     C_R   0.355998 0.464461 0.755201 -0.119290
C16   C     C_R   0.642553 0.523742 0.244029 -0.126732
C17   C     C_R   0.160020 0.360778 0.873584 0.495484
C18   C     C_R   0.841620 0.597816 0.122419 0.496335
C19   C     C_R   0.207098 0.394035 0.786230 -0.289998
C20   C     C_R   0.793749 0.579226 0.210885 -0.274535
C21   C     C_R   0.458489 0.504401 0.811378 -0.247748
C22   C     C_R   0.539129 0.483061 0.188144 -0.250040
C23   C     C_R   0.418982 0.464865 0.897398 0.024947
C24   C     C_R   0.582966 0.499094 0.098771 0.026289
C25   C     C_R   0.267365 0.392112 0.928169 0.055582
C26   C     C_R   0.736252 0.561708 0.066531 0.058075
C27   C     C_R   0.526095 0.494942 0.953280 0.106475
C28   C     C_R   0.477970 0.459654 0.041281 0.102798
Cu1   Cu    Cu3+1 0.362980 0.479380 0.485080 0.938892
Cu2   Cu    Cu3+1 0.637020 0.520620 0.514920 0.939253
H1    H     H_    0.110665 0.292813 0.038094 0.194208
H2    H     H_    0.898714 0.635432 0.952815 0.188158
H3    H     H_    0.423771 0.443915 0.216641 0.163336
H4    H     H_    0.569620 0.565317 0.785316 0.159778
H5    H     H_    0.874752 0.612382 0.253617 0.173149
H6    H     H_    0.128942 0.360908 0.741902 0.164019
H7    H     H_    0.283961 0.345141 0.132277 0.146604
H8    H     H_    0.727195 0.579398 0.857438 0.143335
H9    H     H_    0.624395 0.134439 0.513303 0.180454
H10   H     H_    0.375462 0.865552 0.486951 0.181707
H11   H     H_    0.303649 0.050210 0.478888 0.151892
H12   H     H_    0.696316 0.949789 0.521180 0.151015
H13   H     H_    0.122116 0.577503 0.557414 0.158730
H14   H     H_    0.877858 0.422462 0.442604 0.158606
H15   H     H_    0.111523 0.384732 0.415551 0.190252
H16   H     H_    0.888480 0.615268 0.584448 0.190342
N1    N     N_2   0.842890 0.551600 0.537350 -0.286547
N2    N     N_2   0.157110 0.448400 0.462650 -0.286423
O1    O     O_R   0.426810 0.668300 0.492040 -0.577198
O2    O     O_R   0.573190 0.331700 0.507960 -0.578239
O3    O     O_R   0.658240 0.703130 0.517240 -0.573711
O4    O     O_R   0.341760 0.296870 0.482760 -0.574558
O5    O     O_R   0.319390 0.472820 0.610170 -0.582708
O6    O     O_R   0.680610 0.527180 0.389830 -0.581893
O7    O     O_R   0.550820 0.507640 0.635370 -0.576344
O8    O     O_R   0.449180 0.492360 0.364630 -0.576637
O9    O     O_3   0.013162 0.286798 0.905498 -0.590772
C29   C     C_3   0.913412 0.335731 0.879199 -0.334359
H17   H     H_    0.886960 0.293954 0.815522 0.177011
H18   H     H_    0.955670 0.443859 0.877658 0.150372
H19   H     H_    0.808194 0.304864 0.926072 0.204706
O10   O     O_3   0.990602 0.661737 0.091600 -0.582589
C30   C     C_3   0.063478 0.571439 0.083761 -0.332912
H20   H     H_    0.013661 0.488240 0.041001 0.176364
H21   H     H_    0.062289 0.535907 0.147734 0.164713
H22   H     H_    0.181195 0.620371 0.054127 0.208544

loop_
_geom_bond_atom_site_label_1
_geom_bond_atom_site_label_2
_ccdc_geom_bond_type
C5    H1    S    
C6    H2    S    
Cu2   O3    S    
C30   H21   S    
Cu1   Cu2   S    
Cu1   O8    S    
C23   C27   A    
Cu2   O6    S    
Cu2   O7    S    
C14   O8    A    
C18   C26   A    
C13   C15   S    
C12   N2    D    
C16   C20   A    
C17   C25   A    
C29   H19   S    
C23   C25   A    
Cu2   O2    S    
C30   H22   S    
C11   H14   S    
Cu1   O1    S    
C15   C19   A    
C1    O3    A    
O9    C29   S    
C6    C26   A    
C2    O4    A    
C5    C25   A    
C8    C10   D    
C3    C28   A    
C14   O6    A    
C24   C26   A    
C12   H13   S    
C13   O5    A    
C19   H6    S    
C21   C23   A    
C22   C24   A    
H15   N2    S    
Cu1   N2    S    
C29   H18   S    
C30   H20   S    
C3    C5    A    
Cu2   N1    S    
C15   C21   A    
C4    C27   A    
C8    H11   S    
C3    H7    S    
C18   C20   A    
C4    C6    A    
C9    C10   S    
C7    H12   S    
C17   O9    S    
C27   C28   A    
C7    C9    D    
C22   H3    S    
H16   N1    S    
C18   O10   S    
C1    C7    S    
C16   C22   A    
C21   H4    S    
C2    O2    A    
C17   C19   A    
C14   C16   S    
C4    H8    S    
C29   H17   S    
C11   N1    D    
C20   H5    S    
C9    H10   S    
C2    C8    S    
O10   C30   S    
C24   C28   A    
C11   C12   S    
C13   O7    A    
C10   H9    S    
Cu1   O5    S    
Cu1   O4    S    
C1    O1    A    
