data_mof_unit_9252.cif
_audit_creation_date              2013-03-05T16:48:14-0500
_audit_creation_method            fapswitch 2.2
_symmetry_space_group_name_H-M    P1
_symmetry_Int_Tables_number       1
_space_group_crystal_system       triclinic
_cell_length_a                    23.53189
_cell_length_b                    8.927834
_cell_length_c                    8.090031
_cell_angle_alpha                 90.078133
_cell_angle_beta                  90.007957
_cell_angle_gamma                 90.069402
_cell_volume                      1699.62212247

loop_
_atom_site_label
_atom_site_type_symbol
_atom_site_description
_atom_site_fract_x
_atom_site_fract_y
_atom_site_fract_z
_atom_type_partial_charge
O1    O     O_R   0.500000 0.285350 0.636850 -0.592157
O2    O     O_R   0.500000 0.714650 0.363150 -0.628884
O3    O     O_R   0.500000 0.714650 0.636850 -0.591399
O4    O     O_R   0.500000 0.285350 0.363150 -0.629837
H1    H     H_    0.948143 0.125670 0.456358 0.191549
H2    H     H_    0.052937 0.872743 0.591177 0.193955
H3    H     H_    0.949732 0.875093 0.581623 0.190365
H4    H     H_    0.051332 0.125804 0.445938 0.193159
C1    C     C_R   0.500088 0.217940 0.499923 0.969392
C2    C     C_R   0.499965 0.782058 0.500071 0.950119
O5    O     O_R   0.416160 0.500000 0.636910 -0.593109
O6    O     O_R   0.583840 0.500000 0.363090 -0.648086
O7    O     O_R   0.583840 0.500000 0.636910 -0.589222
O8    O     O_R   0.416160 0.500000 0.363090 -0.639694
C3    C     C_R   0.208385 0.498831 0.509888 0.007283
C4    C     C_R   0.792626 0.503009 0.510063 -0.003392
C5    C     C_R   0.389139 0.499586 0.500017 0.968041
C6    C     C_R   0.611097 0.500983 0.500043 0.956287
Zn1   Zn    Zn3+2 0.500000 0.500000 0.682780 1.061721
Zn2   Zn    Zn3+2 0.500000 0.500000 0.317220 1.008227
C7    C     C_R   0.296247 0.588789 0.388413 -0.237577
C8    C     C_R   0.704958 0.439328 0.368476 -0.230479
C9    C     C_R   0.297638 0.405277 0.615847 -0.171406
C10   C     C_R   0.703109 0.571459 0.635921 -0.167859
C11   C     C_R   0.326999 0.497161 0.500575 -0.296355
C12   C     C_R   0.673638 0.504479 0.500880 -0.305838
C13   C     C_R   0.882031 0.634915 0.529968 0.635680
C14   C     C_R   0.119148 0.367891 0.484534 0.634520
C15   C     C_R   0.881419 0.367964 0.503326 0.633604
C16   C     C_R   0.119778 0.629974 0.547080 0.630939
N1    N     N_R   0.853369 0.501910 0.515053 -0.323134
N2    N     N_R   0.147726 0.498875 0.514247 -0.324043
C17   C     C_R   0.940705 0.364928 0.498792 -0.040571
C18   C     C_R   0.060478 0.633852 0.545536 -0.041602
C19   C     C_R   0.941286 0.636143 0.538227 -0.042913
C20   C     C_R   0.059883 0.364700 0.490458 -0.043638
C21   C     C_R   0.970754 0.500160 0.518835 -0.011087
C22   C     C_R   0.030428 0.499526 0.518573 -0.010742
C23   C     C_R   0.970444 0.230596 0.473977 -0.128610
C24   C     C_R   0.030701 0.768244 0.569745 -0.126487
C25   C     C_R   0.971587 0.769658 0.564060 -0.131179
C26   C     C_R   0.029549 0.230751 0.467771 -0.129613
C27   C     C_1   0.500034 0.065186 0.499894 -0.135203
C28   C     C_1   0.499989 0.934809 0.500103 -0.142557
C29   C     C_R   0.236812 0.583594 0.390650 0.678368
C30   C     C_R   0.764323 0.446903 0.371309 0.674281
C31   C     C_R   0.238584 0.413037 0.623978 0.574357
C32   C     C_R   0.762104 0.560974 0.643401 0.589815
N3    N     N_1   0.500000 0.500000 0.073640 -0.025926
N4    N     N_1   0.500000 0.500000 0.926360 -0.015926
O9    O     O_2   0.853215 0.765509 0.535189 -0.481173
O10   O     O_2   0.148112 0.241597 0.448280 -0.476886
O11   O     O_2   0.851922 0.238303 0.496390 -0.481743
O12   O     O_2   0.149411 0.755854 0.581214 -0.476623
F1    F     F_    0.205882 0.664845 0.280828 -0.570771
F2    F     F_    0.795288 0.393524 0.242176 -0.567410
F3    F     F_    0.209772 0.332419 0.739344 -0.618502
F4    F     F_    0.790504 0.613380 0.778080 -0.605795
C33   C     C_2   0.325345 0.696084 0.275454 0.575851
H5    H     H_    0.367683 0.736844 0.303349 0.035713
O13   O     O_2   0.302218 0.741677 0.150110 -0.465900
C34   C     C_2   0.677099 0.355015 0.231734 0.573025
H6    H     H_    0.638016 0.293681 0.253383 0.048487
O14   O     O_2   0.697853 0.351470 0.093402 -0.492920
C35   C     C_2   0.326286 0.295196 0.725459 0.560733
H7    H     H_    0.307894 0.267962 0.844748 0.128006
O15   O     O_2   0.368624 0.227577 0.680510 -0.575148
C36   C     C_2   0.674894 0.659763 0.768158 0.584667
H8    H     H_    0.690717 0.654517 0.894074 0.129705
O16   O     O_2   0.636290 0.746294 0.736189 -0.566452

loop_
_geom_bond_atom_site_label_1
_geom_bond_atom_site_label_2
_geom_bond_distance
_ccdc_geom_bond_type
C16   N2    1.368972 A    
C27   C28   1.163985 T    
O3    Zn1   1.952547 S    
C21   C22   1.404262 A    
O8    Zn2   2.007563 S    
C8    C34   1.488786 S    
C10   C36   1.485246 S    
C14   O10   1.350142 S    
C10   C32   1.392854 A    
C20   C26   1.403789 A    
C6    C12   1.472030 S    
C3    C31   1.395230 A    
C14   C20   1.395721 A    
C5    C11   1.462427 S    
C13   C19   1.396002 A    
C9    C35   1.486788 S    
C34   H6    1.084188 S    
O6    C6    1.280154 A    
C33   H5    1.083886 S    
C15   N1    1.369797 A    
O3    C2    1.260333 A    
C17   C23   1.403484 A    
C4    N1    1.430001 S    
C32   F4    1.360256 S    
C16   O12   1.350091 S    
O8    C5    1.277344 A    
O6    Zn2   2.007459 S    
Zn2   N3    1.970570 S    
C15   O11   1.350126 S    
O7    C6    1.279729 A    
C18   C24   1.403705 A    
C14   N2    1.369240 A    
C20   C22   1.407971 A    
C24   C25   1.391877 A    
C8    C30   1.398729 A    
H4    C26   1.082855 S    
C17   C21   1.407596 A    
C7    C33   1.490820 S    
C23   C26   1.391767 A    
C7    C29   1.399446 A    
C9    C11   1.421568 A    
C13   N1    1.370090 A    
C4    C30   1.397147 A    
C19   C25   1.403634 A    
Zn1   N4    1.970570 S    
C1    C27   1.363763 S    
C9    C31   1.393016 A    
C16   C18   1.395955 A    
C2    C28   1.363733 S    
O4    Zn2   1.952548 S    
C15   C17   1.395891 A    
C3    N2    1.427857 S    
H2    C24   1.082873 S    
O1    C1    1.259952 A    
C4    C32   1.395303 A    
C29   F1    1.359478 S    
C36   O16   1.221119 D    
C35   H7    1.085472 S    
C8    C12   1.424227 A    
C33   O13   1.221328 D    
C30   F2    1.359820 S    
C31   F3    1.360004 S    
N3    N4    1.191499 T    
H1    C23   1.082434 S    
C7    C11   1.421086 A    
O5    Zn1   2.007462 S    
O7    Zn1   2.007561 S    
C34   O14   1.221486 D    
C19   C21   1.407441 A    
O4    C1    1.260296 A    
C18   C22   1.408181 A    
O1    Zn1   1.951553 S    
O2    Zn2   1.951553 S    
O5    C5    1.276943 A    
C10   C12   1.424446 A    
H3    C25   1.082391 S    
C13   O9    1.350107 S    
C36   H8    1.085625 S    
C35   O15   1.220741 D    
C3    C29   1.397002 A    
O2    C2    1.259901 A    
