data_mof_unit_7061.cif
_audit_creation_date              2012-12-10T19:09:34-0500
_audit_creation_method            fapswitch 2.2
_symmetry_space_group_name_H-M    P1
_symmetry_Int_Tables_number       1
_space_group_crystal_system       triclinic
_cell_length_a                    15.0233
_cell_length_b                    15.04555
_cell_length_c                    9.693286
_cell_angle_alpha                 89.999802
_cell_angle_beta                  90.008092
_cell_angle_gamma                 89.999709
_cell_volume                      2191.01035685

loop_
_atom_site_label
_atom_site_type_symbol
_atom_type_description
_atom_site_fract_x
_atom_site_fract_y
_atom_site_fract_z
_atom_type_partial_charge
C1    C     C_R   0.120556 0.378137 0.499767 0.906319
C2    C     C_R   0.120553 0.621867 0.499766 0.906459
C3    C     C_R   0.620558 0.878138 0.499767 0.906319
C4    C     C_R   0.620551 0.121869 0.499766 0.906470
C5    C     C_3   0.906891 0.501832 0.081330 -0.244357
C6    C     C_3   0.906890 0.501851 0.918630 -0.238294
C7    C     C_3   0.406883 0.001392 0.081328 -0.244351
C8    C     C_3   0.406882 0.001410 0.918632 -0.238274
C9    C     C_R   0.877952 0.379554 0.499710 0.896902
C10   C     C_R   0.877959 0.620454 0.499710 0.897078
C11   C     C_R   0.377954 0.879552 0.499710 0.896914
C12   C     C_R   0.377959 0.120453 0.499710 0.897064
C13   C     C_3   0.848088 0.224864 0.559342 -0.464043
C14   C     C_3   0.777382 0.294319 0.348729 -0.445580
C15   C     C_3   0.777498 0.705800 0.348709 -0.445860
C16   C     C_3   0.848058 0.775107 0.559552 -0.464143
C17   C     C_3   0.348084 0.724869 0.559380 -0.464011
C18   C     C_3   0.277405 0.794296 0.348726 -0.445627
C19   C     C_3   0.277488 0.205790 0.348711 -0.445810
C20   C     C_3   0.348060 0.275110 0.559534 -0.464166
C21   C     C_3   0.276384 0.652119 0.558086 0.436453
C22   C     C_3   0.205167 0.723534 0.348672 0.415340
C23   C     C_3   0.205268 0.276568 0.348651 0.415270
C24   C     C_3   0.276351 0.347853 0.558279 0.436671
C25   C     C_3   0.776385 0.152117 0.558059 0.436471
C26   C     C_3   0.705150 0.223551 0.348676 0.415309
C27   C     C_3   0.705275 0.776575 0.348650 0.415311
C28   C     C_3   0.776351 0.847852 0.558289 0.436658
C29   C     C_3   0.729095 0.343037 0.586646 -0.406116
C30   C     C_3   0.729048 0.656915 0.586464 -0.406136
C31   C     C_3   0.229087 0.843045 0.586612 -0.406130
C32   C     C_3   0.229052 0.156919 0.586480 -0.406125
C33   C     C_3   0.809455 0.311862 0.498685 0.017299
C34   C     C_3   0.809467 0.688151 0.498687 0.017336
C35   C     C_3   0.309458 0.811859 0.498685 0.017305
C36   C     C_3   0.309465 0.188150 0.498687 0.017327
C37   C     C_3   0.188253 0.690598 0.498938 -0.065818
C38   C     C_3   0.188259 0.309409 0.498940 -0.065879
C39   C     C_3   0.688250 0.190602 0.498938 -0.065814
C40   C     C_3   0.688261 0.809410 0.498940 -0.065885
C41   C     C_3   0.157330 0.770455 0.588152 -0.341814
C42   C     C_3   0.157281 0.229497 0.587989 -0.341854
C43   C     C_3   0.657334 0.270451 0.588175 -0.341832
C44   C     C_3   0.657280 0.729496 0.587980 -0.341844
C45   C     C_3   0.042963 0.419673 0.081222 -0.208816
C46   C     C_3   0.042950 0.419657 0.918758 -0.235999
C47   C     C_3   0.046188 0.578472 0.918763 -0.232820
C48   C     C_3   0.046166 0.578476 0.081217 -0.211896
C49   C     C_3   0.543353 0.919888 0.081220 -0.209151
C50   C     C_3   0.543342 0.919873 0.918760 -0.235623
C51   C     C_3   0.545807 0.078703 0.918763 -0.233223
C52   C     C_3   0.545787 0.078706 0.081216 -0.211530
H1    H     H_    0.871768 0.236182 0.666790 0.224511
H2    H     H_    0.751256 0.356781 0.302099 0.220185
H3    H     H_    0.751393 0.643374 0.301937 0.220185
H4    H     H_    0.871671 0.763714 0.667016 0.224583
H5    H     H_    0.371744 0.736200 0.666836 0.224525
H6    H     H_    0.251291 0.856752 0.302063 0.220190
H7    H     H_    0.251377 0.143361 0.301955 0.220183
H8    H     H_    0.371683 0.263722 0.666994 0.224576
H9    H     H_    0.906498 0.202690 0.497533 0.140296
H10   H     H_    0.833866 0.271212 0.283404 0.154063
H11   H     H_    0.834030 0.728944 0.283516 0.154186
H12   H     H_    0.906506 0.797327 0.497868 0.140378
H13   H     H_    0.406506 0.702691 0.497603 0.140284
H14   H     H_    0.333897 0.771175 0.283429 0.154068
H15   H     H_    0.334016 0.228926 0.283503 0.154191
H16   H     H_    0.406501 0.297328 0.497834 0.140389
H17   H     H_    0.299283 0.595796 0.492545 0.049055
H18   H     H_    0.227463 0.667194 0.282574 0.067822
H19   H     H_    0.227624 0.332951 0.282687 0.067750
H20   H     H_    0.299281 0.404230 0.492877 0.049167
H21   H     H_    0.799275 0.095795 0.492508 0.049039
H22   H     H_    0.727447 0.167217 0.282564 0.067817
H23   H     H_    0.727630 0.832961 0.282691 0.067749
H24   H     H_    0.799285 0.904229 0.492889 0.049185
H25   H     H_    0.750257 0.357224 0.694507 0.187887
H26   H     H_    0.700904 0.405526 0.543288 0.169674
H27   H     H_    0.700892 0.594453 0.542963 0.169703
H28   H     H_    0.750136 0.642661 0.694338 0.187734
H29   H     H_    0.250236 0.857252 0.694472 0.187854
H30   H     H_    0.200897 0.905524 0.543219 0.169695
H31   H     H_    0.200896 0.094452 0.542996 0.169688
H32   H     H_    0.250146 0.142675 0.694354 0.187760
H33   H     H_    0.145191 0.749144 0.696516 0.205749
H34   H     H_    0.093567 0.797825 0.547899 0.194168
H35   H     H_    0.093554 0.202142 0.547578 0.194173
H36   H     H_    0.145053 0.250744 0.696360 0.205672
H37   H     H_    0.645199 0.249130 0.696536 0.205744
H38   H     H_    0.593571 0.297827 0.547936 0.194168
H39   H     H_    0.593552 0.702144 0.547567 0.194170
H40   H     H_    0.645052 0.750739 0.696353 0.205676
H41   H     H_    0.009058 0.358879 0.120069 0.190763
H42   H     H_    0.009017 0.358868 0.879919 0.149334
H43   H     H_    0.014755 0.640589 0.879926 0.149305
H44   H     H_    0.014685 0.640579 0.119975 0.193720
H45   H     H_    0.509743 0.858929 0.120058 0.191125
H46   H     H_    0.509709 0.858917 0.879926 0.149315
H47   H     H_    0.514078 0.140669 0.879926 0.149292
H48   H     H_    0.514016 0.140659 0.119981 0.193368
H49   H     H_    0.112837 0.416237 0.118692 0.169178
H50   H     H_    0.112810 0.416141 0.881210 0.211226
H51   H     H_    0.116131 0.579132 0.881184 0.213366
H52   H     H_    0.116103 0.579131 0.118803 0.166182
H53   H     H_    0.613241 0.916786 0.118697 0.168820
H54   H     H_    0.613218 0.916695 0.881211 0.211506
H55   H     H_    0.615747 0.079705 0.881195 0.213088
H56   H     H_    0.615722 0.079697 0.118785 0.166499
H57   H     H_    0.868780 0.443449 0.119551 0.154519
H58   H     H_    0.868756 0.443491 0.880353 0.152487
H59   H     H_    0.871177 0.561753 0.880501 0.153077
H60   H     H_    0.871161 0.561714 0.119463 0.155215
H61   H     H_    0.369053 0.942824 0.119534 0.154590
H62   H     H_    0.369029 0.942864 0.880371 0.152547
H63   H     H_    0.370875 0.061134 0.880492 0.152999
H64   H     H_    0.370860 0.061096 0.119473 0.155127
N1    N     N_3   0.998760 0.500000 0.138610 -0.059328
N2    N     N_3   0.998760 0.500000 0.861390 -0.049919
N3    N     N_3   0.498760 0.000000 0.138610 -0.059317
N4    N     N_3   0.498760 0.000000 0.861390 -0.049899
O1    O     O_R   0.092530 0.407440 0.616040 -0.582452
O2    O     O_R   0.092530 0.407440 0.383960 -0.623329
O3    O     O_R   0.092530 0.592560 0.383960 -0.623386
O4    O     O_R   0.092530 0.592560 0.616040 -0.582749
O5    O     O_R   0.592530 0.907440 0.616040 -0.582474
O6    O     O_R   0.592530 0.907440 0.383960 -0.623317
O7    O     O_R   0.592530 0.092560 0.383960 -0.623401
O8    O     O_R   0.592530 0.092560 0.616040 -0.582728
O9    O     O_R   0.907330 0.407420 0.616040 -0.644363
O10   O     O_R   0.907330 0.407420 0.383960 -0.629108
O11   O     O_R   0.907330 0.592580 0.383960 -0.629080
O12   O     O_R   0.907330 0.592580 0.616040 -0.644566
O13   O     O_R   0.407330 0.907420 0.616040 -0.644385
O14   O     O_R   0.407330 0.907420 0.383960 -0.629106
O15   O     O_R   0.407330 0.092580 0.383960 -0.629078
O16   O     O_R   0.407330 0.092580 0.616040 -0.644539
Zn1   Zn    Zn3+2 0.999890 0.500000 0.654960 0.940526
Zn2   Zn    Zn3+2 0.999890 0.500000 0.345040 0.929967
Zn3   Zn    Zn3+2 0.499890 1.000000 0.654960 0.940534
Zn4   Zn    Zn3+2 0.499890 0.000000 0.345040 0.929972
F1    F     F_    0.264315 0.620017 0.691006 -0.636461
F2    F     F_    0.127832 0.758373 0.291691 -0.670432
F3    F     F_    0.127966 0.241786 0.291477 -0.670327
F4    F     F_    0.264202 0.379848 0.691246 -0.636015
F5    F     F_    0.764328 0.120010 0.690980 -0.636402
F6    F     F_    0.627808 0.258386 0.291712 -0.670423
F7    F     F_    0.627976 0.741790 0.291469 -0.670338
F8    F     F_    0.764198 0.879848 0.691254 -0.636068

loop_
_geom_bond_atom_site_label_1
_geom_bond_atom_site_label_2
_ccdc_geom_bond_type
C16   C28   S    
C32   H31   S    
C29   H25   S    
C6    H59   S    
N1    Zn2   S    
C45   H41   S    
C47   H43   S    
C14   C33   S    
C3    O6    A    
C7    C8    S    
C45   C46   S    
O5    Zn3   S    
C41   H34   S    
C46   H50   S    
O3    Zn2   S    
O6    Zn4   S    
C43   H37   S    
C31   H30   S    
C50   N4    S    
N3    Zn4   S    
C32   C36   S    
C17   C35   S    
O8    Zn3   S    
C38   C42   S    
C19   C36   S    
C11   O13   A    
O14   Zn4   S    
C5    C6    S    
C26   C39   S    
C14   H10   S    
C28   C40   S    
C48   H52   S    
C29   C33   S    
C46   N2    S    
O1    Zn1   S    
C26   F6    S    
C1    O2    A    
C8    H63   S    
C16   C34   S    
C10   O11   A    
C18   H6    S    
C47   N2    S    
C29   H26   S    
C20   C24   S    
C12   O15   A    
C24   C38   S    
C19   H15   S    
C12   C36   S    
N2    Zn1   S    
C48   H44   S    
C18   C35   S    
C15   C34   S    
C44   H40   S    
C8    H62   S    
C30   H28   S    
C29   C43   S    
C9    C33   S    
C6    H58   S    
C30   C44   S    
O16   Zn3   S    
C27   H23   S    
O9    Zn1   S    
C13   H1    S    
C51   H47   S    
O15   Zn4   S    
C32   H32   S    
C23   F3    S    
C43   H38   S    
C28   F8    S    
C30   C34   S    
C51   C52   S    
C7    N3    S    
O4    Zn1   S    
C47   H51   S    
O2    Zn2   S    
C11   O14   A    
C4    O8    A    
C49   H53   S    
C10   O12   A    
C19   H7    S    
O12   Zn1   S    
C9    O10   A    
C22   C37   S    
C52   H48   S    
C17   C21   S    
C21   H17   S    
C15   H3    S    
C7    H64   S    
C19   C23   S    
C16   H4    S    
C13   C33   S    
C23   H19   S    
C15   C27   S    
C47   C48   S    
C46   H42   S    
C4    C39   S    
C27   C40   S    
C22   F2    S    
C51   N4    S    
C13   H9    S    
C10   C34   S    
N4    Zn3   S    
C14   C26   S    
C44   H39   S    
C45   H49   S    
C1    C38   S    
C30   H27   S    
C27   F7    S    
C14   H2    S    
C3    C40   S    
O13   Zn3   S    
C2    O4    A    
C31   C35   S    
C42   H36   S    
O7    Zn4   S    
O10   Zn2   S    
C24   H20   S    
C50   H46   S    
C45   N1    S    
C8    N4    S    
C15   H11   S    
C31   C41   S    
C4    O7    A    
C18   C22   S    
C20   H16   S    
C13   C25   S    
C39   C43   S    
C3    O5    A    
C48   N1    S    
C5    H60   S    
C9    O9    A    
C18   H14   S    
C23   C38   S    
C41   H33   S    
C17   H13   S    
C31   H29   S    
C7    H61   S    
C11   C35   S    
C21   F1    S    
O11   Zn2   S    
C25   C39   S    
C2    C37   S    
C49   N3    S    
C5    H57   S    
C24   F4    S    
C26   H22   S    
C22   H18   S    
C25   H21   S    
C37   C41   S    
C1    O1    A    
C49   H45   S    
C20   C36   S    
C52   N3    S    
C40   C44   S    
C21   C37   S    
C52   H56   S    
C51   H55   S    
C49   C50   S    
C12   O16   A    
C5    N1    S    
C50   H54   S    
C32   C42   S    
C25   F5    S    
C42   H35   S    
C16   H12   S    
C20   H8    S    
C6    N2    S    
C2    O3    A    
C17   H5    S    
C28   H24   S    
