data_mof_unit_22421.cif
_audit_creation_date              2012-12-11T14:21:21-0500
_audit_creation_method            fapswitch 2.2
_symmetry_space_group_name_H-M    P1
_symmetry_Int_Tables_number       1
_space_group_crystal_system       triclinic
_cell_length_a                    21.98706
_cell_length_b                    7.209184
_cell_length_c                    15.044764
_cell_angle_alpha                 89.999974
_cell_angle_beta                  107.466113
_cell_angle_gamma                 89.99761
_cell_volume                      2274.77819298

loop_
_atom_site_label
_atom_site_type_symbol
_atom_type_description
_atom_site_fract_x
_atom_site_fract_y
_atom_site_fract_z
_atom_type_partial_charge
O1    O     O_R   0.584770 0.505770 0.002090 -0.523581
O2    O     O_R   0.415230 0.005770 0.997910 -0.523565
O3    O     O_R   0.467060 0.173340 0.861950 -0.537713
O4    O     O_R   0.532940 0.673340 0.138050 -0.537699
C1    C     C_R   0.455265 0.344862 0.826264 0.690080
C2    C     C_R   0.544733 0.844860 0.173735 0.690097
O5    O     O_R   0.587510 0.175890 0.993210 -0.546803
O6    O     O_R   0.412490 0.675890 0.006790 -0.546806
O7    O     O_R   0.536540 0.008150 0.130100 -0.535644
O8    O     O_R   0.463460 0.508150 0.869900 -0.535653
C3    C     C_R   0.613748 0.344692 0.002379 0.694189
C4    C     C_R   0.386251 0.844702 0.997618 0.694184
O9    O     O_3   0.483140 0.340040 0.044760 -0.376330
O10   O     O_3   0.516860 0.840040 0.955240 -0.376356
V1    V     V_3+5 0.503130 0.064190 0.991700 1.472752
V2    V     V_3+5 0.496870 0.564190 0.008300 1.472756
C5    C     C_2   0.211807 0.733105 0.989522 -0.096880
C6    C     C_2   0.788172 0.233072 0.010365 -0.096794
C7    C     C_2   0.181602 0.886363 0.005071 -0.284793
C8    C     C_2   0.818401 0.386408 0.994955 -0.284804
H1    H     H_    0.185593 0.603954 0.972152 0.155868
H2    H     H_    0.814364 0.103831 0.027600 0.155804
H3    H     H_    0.208889 0.011859 0.026877 0.167067
H4    H     H_    0.791136 0.512017 0.973281 0.167113
C9    C     C_2   0.282016 0.726561 0.005525 -0.169708
C10   C     C_2   0.717964 0.226581 0.994369 -0.169697
C11   C     C_2   0.316240 0.859776 0.979048 0.029969
C12   C     C_2   0.683758 0.359723 0.020959 0.029998
H5    H     H_    0.306400 0.602939 0.039507 0.128723
H6    H     H_    0.693562 0.103053 0.960283 0.128621
C13   C     C_R   0.928216 0.877506 0.723839 -0.046166
C14   C     C_R   0.071780 0.377481 0.276161 -0.046197
C15   C     C_R   0.571513 0.858573 0.274704 -0.030407
C16   C     C_R   0.428487 0.358582 0.725293 -0.030432
C17   C     C_R   0.927342 0.713326 0.584252 -0.166149
C18   C     C_R   0.072670 0.213172 0.415723 -0.166146
C19   C     C_R   0.958574 0.763529 0.675491 -0.157748
C20   C     C_R   0.041429 0.263460 0.324498 -0.157722
C21   C     C_R   0.866507 0.942844 0.679307 -0.217602
C22   C     C_R   0.133489 0.442795 0.320695 -0.217649
C23   C     C_R   0.829238 0.867398 0.592943 0.071238
C24   C     C_R   0.170767 0.367277 0.407041 0.071250
C25   C     C_R   0.863111 0.761018 0.543399 0.134463
C26   C     C_R   0.136903 0.260833 0.456573 0.134469
C27   C     C_R   0.760626 0.889226 0.553844 0.023323
C28   C     C_R   0.239378 0.389108 0.446136 0.023310
C29   C     C_R   0.731976 0.831758 0.458405 0.028135
C30   C     C_R   0.268036 0.331573 0.541567 0.028138
C31   C     C_R   0.769351 0.735586 0.411784 -0.162760
C32   C     C_R   0.230673 0.235297 0.588172 -0.162770
C33   C     C_R   0.832871 0.698066 0.454098 -0.189601
C34   C     C_R   0.167154 0.197787 0.545858 -0.189613
C35   C     C_R   0.717835 0.950938 0.604804 0.078799
C36   C     C_R   0.282162 0.450913 0.395181 0.078820
C37   C     C_R   0.652807 0.974281 0.557692 -0.232524
C38   C     C_R   0.347189 0.474325 0.442302 -0.232516
C39   C     C_R   0.626854 0.933364 0.464076 0.116123
C40   C     C_R   0.373145 0.433393 0.535918 0.116122
C41   C     C_R   0.665767 0.862738 0.412640 0.077542
C42   C     C_R   0.334239 0.362624 0.587342 0.077523
C43   C     C_R   0.561236 0.961248 0.421785 -0.155154
C44   C     C_R   0.438758 0.461431 0.578221 -0.155134
C45   C     C_R   0.533805 0.924298 0.327605 -0.175251
C46   C     C_R   0.466190 0.424485 0.672402 -0.175231
C47   C     C_R   0.636731 0.829025 0.316221 -0.195520
C48   C     C_R   0.363274 0.328882 0.683763 -0.195561
H7    H     H_    0.858663 0.617619 0.416205 0.137258
H8    H     H_    0.141370 0.117279 0.583741 0.137233
H9    H     H_    0.663718 0.789954 0.270055 0.129843
H10   H     H_    0.336288 0.289692 0.729926 0.129845
H11   H     H_    0.483483 0.951136 0.295438 0.102833
H12   H     H_    0.516506 0.451458 0.704579 0.102841
H13   H     H_    0.620753 0.023840 0.595057 0.116306
H14   H     H_    0.379239 0.523987 0.404947 0.116301
H15   H     H_    0.952447 0.628421 0.547156 0.121184
H16   H     H_    0.047571 0.128225 0.452810 0.121181
H17   H     H_    0.006237 0.711707 0.708931 0.121933
H18   H     H_    0.993766 0.211654 0.291056 0.121947
H19   H     H_    0.849061 0.046089 0.715812 0.129686
H20   H     H_    0.150928 0.546068 0.284199 0.129704
H21   H     H_    0.750003 0.676633 0.343380 0.156598
H22   H     H_    0.250030 0.176265 0.656561 0.156531
H23   H     H_    0.531174 0.014264 0.461440 0.116225
H24   H     H_    0.468814 0.514582 0.538576 0.116208
O11   O     O_R   0.036450 0.233070 0.130130 -0.537897
O12   O     O_R   0.963550 0.733070 0.869870 -0.537903
O13   O     O_R   0.912470 0.560570 0.006790 -0.542111
O14   O     O_R   0.087530 0.060570 0.993210 -0.542084
C49   C     C_R   0.886912 0.391823 0.001577 0.723036
C50   C     C_R   0.113088 0.891814 0.998428 0.723056
O15   O     O_R   0.032920 0.562940 0.138050 -0.541991
O16   O     O_R   0.967080 0.062940 0.861950 -0.541989
O17   O     O_R   0.084790 0.730500 0.002090 -0.541439
O18   O     O_R   0.915210 0.230500 0.997910 -0.541426
C51   C     C_R   0.044631 0.393881 0.174619 0.694069
C52   C     C_R   0.955366 0.893886 0.825381 0.694054
O19   O     O_3   0.016820 0.396170 0.955260 -0.376254
O20   O     O_3   0.983180 0.896170 0.044740 -0.376254
V3    V     V_3+5 0.996880 0.672090 0.008300 1.417466
V4    V     V_3+5 0.003120 0.172090 0.991700 1.417506
C53   C     C_3   0.734382 0.980947 0.709607 -0.335938
C54   C     C_3   0.760899 0.805582 0.765880 -0.320323
C55   C     C_3   0.796205 0.855187 0.866447 -0.741255
H25   H     H_    0.828042 0.976514 0.870572 0.224474
H26   H     H_    0.761532 0.884568 0.905058 0.225904
H27   H     H_    0.826473 0.737538 0.899320 0.226685
H28   H     H_    0.720952 0.709862 0.764472 0.189672
H29   H     H_    0.793403 0.727116 0.736059 0.203115
H30   H     H_    0.763396 0.107493 0.731019 0.156177
H31   H     H_    0.691486 0.018443 0.730465 0.160391
C56   C     C_3   0.265606 0.481040 0.290380 -0.335939
C57   C     C_3   0.239088 0.305745 0.234044 -0.320409
C58   C     C_3   0.203802 0.355510 0.133485 -0.741082
H32   H     H_    0.171928 0.476744 0.129401 0.224502
H33   H     H_    0.238495 0.385132 0.094940 0.225942
H34   H     H_    0.173577 0.237863 0.100508 0.226665
H35   H     H_    0.279034 0.210024 0.235429 0.189694
H36   H     H_    0.206571 0.227233 0.263821 0.203109
H37   H     H_    0.236589 0.607605 0.269009 0.156176
H38   H     H_    0.308499 0.518585 0.269524 0.160409
I1    I     I_    0.272748 0.088570 0.891869 -0.483641
I2    I     I_    0.727270 0.588285 0.108316 -0.483620

loop_
_geom_bond_atom_site_label_1
_geom_bond_atom_site_label_2
_ccdc_geom_bond_type
C40   C44   A    
C53   C54   S    
C56   C57   S    
C6    C10   S    
C46   H12   S    
O2    C4    A    
C16   C48   A    
C2    O7    A    
C11   I1    S    
C15   C47   A    
C29   C31   A    
O5    C3    A    
C17   H15   S    
O11   V4    S    
C17   C19   A    
C57   H35   S    
C12   I2    S    
C39   C41   A    
C40   C42   A    
C13   C52   S    
O16   C52   A    
C56   H37   S    
C24   C28   A    
C27   C29   A    
C31   H21   S    
C49   O18   A    
C43   C45   A    
C44   C46   A    
C18   H16   S    
C8    H4    S    
C35   C53   S    
C31   C33   A    
O1    C3    A    
C32   C34   A    
C22   H20   S    
C54   H29   S    
C14   C20   A    
C17   C25   A    
O17   V3    S    
C34   H8    S    
C15   C45   A    
C58   H34   S    
C26   C34   A    
C30   C32   A    
C42   C48   A    
O6    V2    S    
C23   C25   A    
C24   C26   A    
C57   C58   S    
C30   C42   A    
O13   V3    S    
C35   C37   A    
C9    H5    S    
C36   C38   A    
C38   H14   S    
C4    C11   S    
C32   H22   S    
O4    C2    A    
C43   H23   S    
O5    V1    S    
C20   H18   S    
C53   H31   S    
C19   H17   S    
C27   C35   A    
C5    H1    S    
C13   C19   A    
C56   H38   S    
C21   H19   S    
O4    V2    S    
C7    H3    S    
O2    V1    S    
O18   V4    S    
O6    C4    A    
C1    C16   S    
C28   C36   A    
C16   C46   A    
C54   H28   S    
C55   H26   S    
O1    V2    S    
C33   H7    S    
O12   V3    S    
O14   V4    S    
O12   C52   A    
O14   C50   A    
C10   H6    S    
C37   C39   A    
C18   C26   A    
O19   V4    S    
O3    V1    S    
O16   V4    S    
C50   O17   A    
C58   H32   S    
C44   H24   S    
C6    H2    S    
C45   H11   S    
O3    C1    A    
C39   C43   A    
C9    C11   D    
C8    C49   S    
C10   C12   D    
C2    C15   S    
C5    C9    S    
C18   C20   A    
O7    V1    S    
C1    O8    A    
C7    C50   S    
O8    V2    S    
C41   C47   A    
C57   H36   S    
O11   C51   A    
C25   C33   A    
C48   H10   S    
C3    C12   S    
C47   H9    S    
C22   C24   A    
C5    C7    D    
C38   C40   A    
C36   C56   S    
C55   H27   S    
C6    C8    D    
C14   C22   A    
C54   C55   S    
C29   C41   A    
C37   H13   S    
C28   C30   A    
C14   C51   S    
C21   C23   A    
O15   C51   A    
O20   V3    S    
O9    V2    S    
C55   H25   S    
C13   C21   A    
O13   C49   A    
C23   C27   A    
O10   V1    S    
O15   V3    S    
C53   H30   S    
C58   H33   S    
