data_mof_unit_66917.cif
_audit_creation_date              2013-03-05T15:57:28-0500
_audit_creation_method            fapswitch 2.2
_symmetry_space_group_name_H-M    P1
_symmetry_Int_Tables_number       1
_space_group_crystal_system       triclinic
_cell_length_a                    17.876269
_cell_length_b                    18.785456
_cell_length_c                    8.560147
_cell_angle_alpha                 90.0
_cell_angle_beta                  101.901749
_cell_angle_gamma                 90.260824
_cell_volume                      2812.78909537

loop_
_atom_site_label
_atom_site_type_symbol
_atom_site_description
_atom_site_fract_x
_atom_site_fract_y
_atom_site_fract_z
_atom_type_partial_charge
P1    P     P_3+3 0.834140 0.419320 0.003900 0.470247
P2    P     P_3+3 0.834140 0.580680 0.503900 0.470024
P3    P     P_3+3 0.334140 0.919320 0.003900 0.466919
P4    P     P_3+3 0.334140 0.080680 0.503900 0.463757
O1    O     O_2   0.841960 0.394640 0.833410 -0.397326
O2    O     O_2   0.841960 0.605360 0.333410 -0.396285
O3    O     O_2   0.341960 0.894640 0.833410 -0.399648
O4    O     O_2   0.341960 0.105360 0.333410 -0.388276
O5    O     O_3   0.907950 0.463080 0.102990 -0.417210
O6    O     O_3   0.907950 0.536920 0.602990 -0.419051
O7    O     O_3   0.407950 0.963080 0.102990 -0.424848
O8    O     O_3   0.407950 0.036920 0.602990 -0.424963
O9    O     O_3   0.972780 0.329600 0.629720 -0.318093
O10   O     O_3   0.972780 0.670400 0.129720 -0.320770
O11   O     O_3   0.472780 0.829600 0.629720 -0.319210
O12   O     O_3   0.472780 0.170400 0.129720 -0.321629
O13   O     O_2   0.846676 0.277386 0.695525 -0.389910
O14   O     O_2   0.851070 0.727367 0.195363 -0.384327
O15   O     O_2   0.350680 0.773421 0.697694 -0.382673
O16   O     O_2   0.349366 0.226254 0.187116 -0.378626
O17   O     O_3   0.753676 0.474269 0.961815 -0.543481
O18   O     O_3   0.752966 0.526009 0.460908 -0.545520
O19   O     O_3   0.259436 0.978556 0.960888 -0.538267
O20   O     O_3   0.252686 0.026367 0.461199 -0.544642
O21   O     O_3   0.934715 0.180118 0.621483 -0.588456
O22   O     O_3   0.946300 0.821413 0.127173 -0.596744
O23   O     O_3   0.444951 0.679583 0.628402 -0.595383
O24   O     O_3   0.447038 0.321207 0.132405 -0.598422
C1    C     C_3   0.014494 0.081032 0.604922 -0.817719
C2    C     C_3   0.022205 0.922014 0.099457 -0.806817
C3    C     C_3   0.521157 0.580008 0.601322 -0.817794
C4    C     C_3   0.523444 0.422065 0.110487 -0.828255
H1    H     H_    0.570006 0.557463 0.556206 0.257127
H2    H     H_    0.573630 0.445260 0.070615 0.259114
H3    H     H_    0.013963 0.065662 0.728594 0.243760
H4    H     H_    0.030902 0.936686 0.226954 0.215099
H5    H     H_    0.967233 0.053238 0.524163 0.301732
H6    H     H_    0.969584 0.947212 0.032115 0.298045
H7    H     H_    0.531587 0.566064 0.729335 0.215062
H8    H     H_    0.530893 0.435868 0.238186 0.212640
P5    P     P_3+3 0.165830 0.418670 0.685610 0.540120
P6    P     P_3+3 0.165830 0.581330 0.185610 0.524964
P7    P     P_3+3 0.665830 0.918670 0.685610 0.526531
P8    P     P_3+3 0.665830 0.081330 0.185610 0.532154
P9    P     P_3+3 0.107878 0.274407 0.121204 0.565596
P10   P     P_3+3 0.108182 0.726914 0.623473 0.539823
P11   P     P_3+3 0.607888 0.773135 0.124040 0.542155
P12   P     P_3+3 0.607208 0.227639 0.623676 0.544456
O25   O     O_2   0.157990 0.394030 0.856030 -0.329209
O26   O     O_2   0.157990 0.605970 0.356030 -0.330136
O27   O     O_2   0.657990 0.894030 0.856030 -0.327207
O28   O     O_2   0.657990 0.105970 0.356030 -0.328644
O29   O     O_3   0.027110 0.329490 0.059550 -0.402703
O30   O     O_3   0.027110 0.670510 0.559550 -0.390735
O31   O     O_3   0.527110 0.829490 0.059550 -0.386308
O32   O     O_3   0.527110 0.170510 0.559550 -0.387074
O33   O     O_2   0.156192 0.276891 0.992405 -0.282211
O34   O     O_2   0.163099 0.715549 0.510709 -0.310372
O35   O     O_2   0.664551 0.787169 0.016262 -0.309984
O36   O     O_2   0.661108 0.217366 0.508736 -0.304787
O37   O     O_3   0.240528 0.478494 0.718944 -0.504202
O38   O     O_3   0.242194 0.524110 0.213348 -0.511115
O39   O     O_3   0.740751 0.977750 0.716014 -0.509408
O40   O     O_3   0.740360 0.022062 0.216812 -0.498920
O41   O     O_3   0.075814 0.187558 0.097379 -0.488821
O42   O     O_3   0.083061 0.814198 0.573839 -0.530333
O43   O     O_3   0.583613 0.686121 0.067169 -0.530716
O44   O     O_3   0.581887 0.315193 0.577729 -0.530995
C5    C     C_3   0.998714 0.186055 0.023330 0.482442
C6    C     C_3   0.005457 0.816386 0.506884 0.403722
C7    C     C_3   0.504972 0.682052 0.011212 0.391383
C8    C     C_3   0.503620 0.319102 0.518262 0.390292
H9    H     H_    0.988613 0.211327 0.904534 0.099808
H10   H     H_    0.994922 0.792130 0.388413 0.115090
H11   H     H_    0.489870 0.706026 0.892711 0.116745
H12   H     H_    0.489803 0.295323 0.398919 0.113390
H13   H     H_    0.963638 0.216894 0.091657 0.118285
H14   H     H_    0.971468 0.784314 0.576037 0.152890
H15   H     H_    0.473274 0.713386 0.085640 0.156147
H16   H     H_    0.470566 0.288140 0.591488 0.147606
C9    C     C_3   0.975000 0.108194 0.008979 -0.123130
C10   C     C_3   0.980276 0.893808 0.498997 -0.144406
C11   C     C_3   0.481179 0.603996 0.007121 -0.144027
C12   C     C_3   0.481586 0.397473 0.513455 -0.152420
H17   H     H_    0.448514 0.590623 0.887167 0.118305
H18   H     H_    0.447770 0.410359 0.394399 0.114719
H19   H     H_    0.940245 0.098981 0.889566 0.096200
H20   H     H_    0.946921 0.905088 0.378772 0.118115
H21   H     H_    0.025274 0.072315 0.023647 0.173849
H22   H     H_    0.029997 0.930837 0.521362 0.161753
H23   H     H_    0.531783 0.568558 0.032398 0.166047
H24   H     H_    0.532902 0.432477 0.534557 0.164192
C13   C     C_3   0.221926 0.459305 0.269422 0.373167
C14   C     C_3   0.216363 0.543171 0.768215 0.361518
C15   C     C_3   0.715892 0.957226 0.266094 0.365690
C16   C     C_3   0.717231 0.042303 0.767020 0.367607
H25   H     H_    0.191115 0.466191 0.368520 0.071724
H26   H     H_    0.179219 0.536571 0.856549 0.071393
H27   H     H_    0.678204 0.963393 0.353493 0.068670
H28   H     H_    0.682337 0.035628 0.859523 0.073098
H29   H     H_    0.187510 0.427538 0.170618 0.119717
H30   H     H_    0.186627 0.574310 0.663864 0.133971
H31   H     H_    0.686589 0.925783 0.161476 0.135533
H32   H     H_    0.685737 0.073383 0.664233 0.133321
C17   C     C_3   0.296518 0.423539 0.332973 -0.721002
C18   C     C_3   0.288429 0.579921 0.847397 -0.718720
C19   C     C_3   0.787515 0.920960 0.346751 -0.720032
C20   C     C_3   0.789913 0.078959 0.840192 -0.734324
H33   H     H_    0.324766 0.455677 0.436641 0.287810
H34   H     H_    0.309832 0.550025 0.958725 0.291670
H35   H     H_    0.807708 0.949700 0.460513 0.289601
H36   H     H_    0.814281 0.047603 0.947634 0.293208
H37   H     H_    0.289065 0.367402 0.364877 0.208878
H38   H     H_    0.279655 0.636710 0.869800 0.202707
H39   H     H_    0.778624 0.863739 0.364975 0.204182
H40   H     H_    0.781506 0.135358 0.867410 0.206590
H41   H     H_    0.333000 0.426028 0.242928 0.298436
H42   H     H_    0.330860 0.575729 0.770327 0.294563
H43   H     H_    0.830739 0.926837 0.271997 0.296739
H44   H     H_    0.829422 0.075543 0.756574 0.298366
Ba1   Ba    Ba6+2 0.000000 0.447380 0.844850 1.648032
Ba2   Ba    Ba6+2 0.000000 0.552620 0.344850 1.644867
Ba3   Ba    Ba6+2 0.500000 0.947380 0.844850 1.639515
Ba4   Ba    Ba6+2 0.500000 0.052620 0.344850 1.642867
C21   C     C_3   0.773380 0.546142 0.951535 0.322553
C22   C     C_3   0.771627 0.453858 0.455209 0.321580
C23   C     C_3   0.291056 0.045175 0.942277 0.300644
C24   C     C_3   0.271280 0.954104 0.455962 0.332416
H45   H     H_    0.771205 0.559195 0.824448 0.096828
H46   H     H_    0.768268 0.438932 0.328742 0.103932
H47   H     H_    0.322398 0.044393 0.843037 0.092504
H48   H     H_    0.267751 0.938885 0.329545 0.105216
H49   H     H_    0.830158 0.561212 0.023330 0.123483
H50   H     H_    0.828578 0.439221 0.525993 0.122993
H51   H     H_    0.328526 0.064162 0.054303 0.157783
H52   H     H_    0.328314 0.939472 0.526391 0.119562
C25   C     C_3   0.714221 0.589933 0.012348 -0.712400
C26   C     C_3   0.712505 0.411697 0.520970 -0.708560
C27   C     C_3   0.226504 0.095496 0.904084 -0.776564
C28   C     C_3   0.212416 0.912023 0.522762 -0.718333
H53   H     H_    0.656489 0.578320 0.940151 0.260309
H54   H     H_    0.654654 0.422776 0.449423 0.256647
H55   H     H_    0.197449 0.086500 0.777704 0.256852
H56   H     H_    0.154465 0.922879 0.451444 0.260883
H57   H     H_    0.727347 0.647513 0.005756 0.242880
H58   H     H_    0.724747 0.353949 0.517611 0.245888
H59   H     H_    0.246136 0.151175 0.922238 0.224618
H60   H     H_    0.224854 0.854256 0.519991 0.245130
H61   H     H_    0.713908 0.575457 0.137784 0.250921
H62   H     H_    0.713231 0.428061 0.645701 0.251370
H63   H     H_    0.187006 0.085017 0.986504 0.296976
H64   H     H_    0.213317 0.928715 0.647427 0.251404
O45   O     O_3   0.092100 0.536880 0.086720 -0.435470
O46   O     O_3   0.092100 0.463120 0.586720 -0.435256
O47   O     O_3   0.592100 0.036880 0.086720 -0.439572
O48   O     O_3   0.592100 0.963120 0.586720 -0.436845
P13   P     P_3+3 0.904833 0.736291 0.076196 0.558519
P14   P     P_3+3 0.900079 0.267235 0.576640 0.549182
P15   P     P_3+3 0.405765 0.236828 0.073973 0.557434
P16   P     P_3+3 0.403764 0.764365 0.577431 0.562245
C29   C     C_3   0.006387 0.162457 0.584373 1.000738
C30   C     C_3   0.016633 0.840408 0.081400 0.992165
C31   C     C_3   0.515380 0.661389 0.582900 1.003160
C32   C     C_3   0.517849 0.340793 0.089358 1.006238
H65   H     H_    0.467992 0.554089 0.537415 0.298453
H66   H     H_    0.471111 0.447323 0.042209 0.301717
H67   H     H_    0.069814 0.061606 0.581740 0.232650
H68   H     H_    0.071752 0.944929 0.056655 0.258307
C33   C     C_R   0.145960 0.673990 0.933115 -0.439281
C34   C     C_R   0.152413 0.330232 0.426386 -0.437790
C35   C     C_R   0.647249 0.172961 0.931305 -0.443537
C36   C     C_R   0.645964 0.825342 0.434115 -0.437512
C37   C     C_R   0.854648 0.327879 0.270643 -0.475661
C38   C     C_R   0.856540 0.674024 0.770178 -0.471627
C39   C     C_R   0.355119 0.827332 0.272115 -0.471829
C40   C     C_R   0.362085 0.177693 0.763109 -0.471738
C41   C     C_R   0.793131 0.214954 0.310118 0.350030
C42   C     C_R   0.795417 0.786768 0.809223 0.341652
C43   C     C_R   0.294610 0.713738 0.310003 0.345268
C44   C     C_R   0.297750 0.287982 0.805795 0.338860
C45   C     C_R   0.842791 0.271546 0.369331 0.154930
C46   C     C_R   0.846037 0.731168 0.868463 0.166397
C47   C     C_R   0.344960 0.769742 0.369779 0.165363
C48   C     C_R   0.350639 0.233968 0.862611 0.151513
C49   C     C_R   0.815280 0.333269 0.111828 0.281094
C50   C     C_R   0.816016 0.667401 0.611941 0.277877
C51   C     C_R   0.314497 0.833708 0.113837 0.278003
C52   C     C_R   0.318056 0.168849 0.608420 0.255293
C53   C     C_R   0.760268 0.277611 0.050152 -0.047796
C54   C     C_R   0.760620 0.722553 0.550775 -0.029462
C55   C     C_R   0.259702 0.777981 0.051926 -0.038172
C56   C     C_R   0.262600 0.224028 0.547051 -0.101685
C57   C     C_R   0.247781 0.717814 0.151662 -0.103193
C58   C     C_R   0.251440 0.284377 0.646978 -0.116924
C59   C     C_R   0.747648 0.217968 0.150690 -0.098903
C60   C     C_R   0.748449 0.782437 0.651174 -0.095147
C61   C     C_R   0.188904 0.665514 0.087083 0.328608
C62   C     C_R   0.194090 0.337670 0.581885 0.353550
C63   C     C_R   0.689516 0.165106 0.085969 0.327873
C64   C     C_R   0.689358 0.834364 0.587424 0.317751
C65   C     C_R   0.162262 0.726854 0.833154 0.290821
C66   C     C_R   0.166759 0.276552 0.327051 0.280577
C67   C     C_R   0.663050 0.226181 0.831655 0.295993
C68   C     C_R   0.661744 0.772508 0.333934 0.291529
C69   C     C_R   0.216911 0.779786 0.892788 -0.098911
C70   C     C_R   0.219306 0.222215 0.387755 -0.079612
C71   C     C_R   0.717475 0.279282 0.891164 -0.086317
C72   C     C_R   0.717112 0.720344 0.392175 -0.094611
H69   H     H_    0.724826 0.322263 0.812514 0.176191
H70   H     H_    0.725120 0.678017 0.312506 0.174227
H71   H     H_    0.224738 0.822515 0.813857 0.174331
H72   H     H_    0.225366 0.178593 0.309345 0.187213
H73   H     H_    0.101297 0.636043 0.885595 0.152255
H74   H     H_    0.108091 0.368195 0.379265 0.145928
H75   H     H_    0.602798 0.134825 0.883680 0.150006
H76   H     H_    0.601299 0.862972 0.387032 0.153729
H77   H     H_    0.895140 0.369082 0.320211 0.170319
H78   H     H_    0.897202 0.633257 0.819392 0.167935
H79   H     H_    0.395748 0.868439 0.321563 0.168987
H80   H     H_    0.404675 0.138294 0.810583 0.175355
N1    N     N_R   0.068005 0.196234 0.696523 0.192570
O49   O     O_R   0.099812 0.163601 0.824510 -0.477635
O50   O     O_R   0.089981 0.260149 0.675188 -0.375883
N2    N     N_R   0.083728 0.810290 0.188391 0.180255
O51   O     O_R   0.148594 0.844603 0.212524 -0.494793
O52   O     O_R   0.085054 0.743878 0.227866 -0.359346
N3    N     N_R   0.582569 0.691648 0.690211 0.180872
O53   O     O_R   0.648129 0.659974 0.704753 -0.493199
O54   O     O_R   0.582689 0.756634 0.739302 -0.350381
N4    N     N_R   0.584118 0.310092 0.196850 0.184244
O55   O     O_R   0.649997 0.341948 0.213994 -0.493613
O56   O     O_R   0.584029 0.243503 0.233679 -0.349796
N5    N     N_R   0.013897 0.180045 0.421759 0.210730
O57   O     O_R   0.003040 0.244909 0.370102 -0.471929
O58   O     O_R   0.060810 0.141276 0.360974 -0.411654
N6    N     N_R   0.019350 0.822155 0.916454 0.218722
O59   O     O_R   0.064002 0.860115 0.846954 -0.403064
O60   O     O_R   0.004397 0.757668 0.865065 -0.482033
N7    N     N_R   0.518238 0.679870 0.418080 0.215826
O61   O     O_R   0.503513 0.744378 0.367499 -0.488706
O62   O     O_R   0.562872 0.642445 0.348174 -0.410379
N8    N     N_R   0.522113 0.323416 0.924652 0.215856
O63   O     O_R   0.567349 0.361977 0.857775 -0.400067
O64   O     O_R   0.509496 0.258620 0.873732 -0.487820
N9    N     N_R   0.433507 0.591978 0.122556 0.281884
O65   O     O_R   0.378765 0.636202 0.127891 -0.454446
O66   O     O_R   0.448927 0.542122 0.229124 -0.374464
N10   N     N_R   0.436277 0.411260 0.632242 0.281301
O67   O     O_R   0.376916 0.371941 0.633087 -0.452675
O68   O     O_R   0.455567 0.459872 0.740864 -0.378684
N11   N     N_R   0.930079 0.092194 0.126760 0.274630
O69   O     O_R   0.872520 0.132535 0.133371 -0.461672
O70   O     O_R   0.947096 0.040010 0.226826 -0.379858
N12   N     N_R   0.932925 0.905671 0.614771 0.282180
O71   O     O_R   0.878224 0.861117 0.620984 -0.458655
O72   O     O_R   0.948926 0.955391 0.721641 -0.367191
N13   N     N_R   0.299791 0.650467 0.406513 0.263438
O73   O     O_R   0.345301 0.599879 0.383879 -0.315186
O74   O     O_R   0.284601 0.654106 0.547700 -0.387528
N14   N     N_R   0.298667 0.348864 0.907674 0.263267
O75   O     O_R   0.343769 0.401981 0.896231 -0.316335
O76   O     O_R   0.278875 0.340635 0.043743 -0.397210
N15   N     N_R   0.797027 0.152466 0.409290 0.266217
O77   O     O_R   0.840446 0.099806 0.388511 -0.309297
O78   O     O_R   0.781674 0.157849 0.549964 -0.386015
N16   N     N_R   0.801195 0.850493 0.904371 0.263343
O79   O     O_R   0.845591 0.901643 0.877439 -0.310634
O80   O     O_R   0.787418 0.847549 0.046830 -0.383572

loop_
_geom_bond_atom_site_label_1
_geom_bond_atom_site_label_2
_geom_bond_distance
_ccdc_geom_bond_type
C12   H18   1.099941 S    
P1    O17   1.750446 S    
O10   Ba2   2.857209 S    
C13   H25   1.110428 S    
C6    H14   1.107969 S    
O27   Ba3   2.984019 S    
C5    H13   1.107008 S    
C20   H44   1.106443 S    
P3    O19   1.722771 S    
N7    O61   1.296592 A    
O26   Ba2   2.975368 S    
P5    O37   1.719489 S    
C20   H40   1.102389 S    
C8    H12   1.095043 S    
O6    Ba1   2.905748 S    
C17   H41   1.108456 S    
N2    O51   1.302742 A    
C28   H60   1.109944 S    
C7    H15   1.106981 S    
C43   N13   1.439881 S    
P7    O39   1.713457 S    
N11   O69   1.291248 A    
Ba3   O47   2.897053 S    
C26   H62   1.108571 S    
P12   C67   1.853115 S    
P9    O33   1.534966 D    
N1    O49   1.282827 A    
O11   Ba3   2.853777 S    
C16   H28   1.111245 S    
C18   H38   1.101533 S    
P1    O1    1.564972 D    
O15   P16   1.547144 D    
O32   Ba4   2.853066 S    
C25   H57   1.109682 S    
C33   H73   1.082559 S    
C23   H51   1.108321 S    
P10   O42   1.731670 S    
P3    O3    1.564972 D    
C14   C18   1.492455 S    
C24   H52   1.107931 S    
C36   H76   1.082625 S    
C43   C57   1.440965 A    
P4    O20   1.749786 S    
C10   H20   1.098916 S    
O18   C22   1.400554 S    
C1    H5    1.104260 S    
C14   H26   1.111013 S    
C15   H27   1.111602 S    
C21   H49   1.108211 S    
P2    C50   1.934601 S    
C23   H47   1.110040 S    
O1    Ba1   2.972058 S    
C8    H16   1.109051 S    
N6    O59   1.300117 A    
P4    Ba4   3.549895 S    
O22   P13   1.775579 S    
C32   N4    1.462624 S    
N13   O73   1.294050 A    
C55   C69   1.418604 A    
C58   C62   1.462031 A    
P5    Ba1   3.552189 S    
C41   N15   1.442168 S    
C36   C68   1.379268 A    
N12   O72   1.296424 A    
N16   O79   1.294148 A    
O23   C31   1.435197 S    
N15   O78   1.293133 A    
C27   H55   1.111809 S    
P5    O25   1.563902 D    
P10   C65   1.854874 S    
C15   C19   1.491114 S    
O20   C24   1.401974 S    
O7    Ba4   2.897064 S    
O21   C29   1.422759 S    
P9    C66   1.857165 S    
C15   H31   1.108589 S    
O16   P15   1.547535 D    
C29   N1    1.447425 S    
C6    H10   1.091786 S    
N8    O64   1.295937 A    
C3    H1    1.110648 S    
C5    H9    1.103234 S    
P7    C64   1.882388 S    
C38   H78   1.082178 S    
P15   C48   1.873928 S    
P4    O8    1.638427 S    
C37   H77   1.082276 S    
N5    O57   1.297954 A    
C28   H64   1.109170 S    
P16   C47   1.872190 S    
C51   C55   1.453540 A    
P10   O30   1.783654 S    
C11   H17   1.099915 S    
P4    O4    1.564596 D    
C16   C20   1.486884 S    
C30   N6    1.463558 S    
P8    O28   1.564280 D    
C35   C63   1.390650 A    
P9    O29   1.770085 S    
C9    H21   1.112069 S    
N1    O50   1.286306 A    
N9    O65   1.294491 A    
P10   O34   1.527707 D    
O12   P15   1.731439 S    
C35   C67   1.379756 A    
Ba2   O46   2.905739 S    
C38   C46   1.400873 A    
P2    O2    1.564596 D    
C39   H79   1.082162 S    
C9    N11   1.443419 S    
C31   N3    1.465689 S    
C24   H48   1.108344 S    
C22   H50   1.107851 S    
C19   H43   1.105383 S    
C40   H80   1.081710 S    
N10   O68   1.297031 A    
C26   H58   1.109183 S    
P12   O36   1.525257 D    
C33   C61   1.391239 A    
C59   C63   1.458116 A    
Ba3   O48   3.029297 S    
P2    Ba2   3.549895 S    
O25   Ba1   2.984019 S    
C3    C31   1.538642 S    
Ba1   O46   3.029297 S    
O10   P13   1.732504 S    
C41   C45   1.407478 A    
C43   C47   1.407192 A    
C1    C29   1.543739 S    
Ba3   Ba4   4.714603 S    
P6    O45   1.637312 S    
C5    C9    1.518901 S    
O40   C15   1.387077 S    
N14   O76   1.294315 A    
C26   H54   1.108430 S    
C13   H29   1.109944 S    
C60   C64   1.461781 A    
C25   H61   1.108778 S    
O37   C14   1.385858 S    
O4    Ba4   2.980620 S    
C33   C65   1.379695 A    
C21   C25   1.516937 S    
O23   P16   1.774050 S    
C42   C60   1.439718 A    
O39   C16   1.385027 S    
O22   C30   1.435536 S    
O24   P15   1.773194 S    
P8    O40   1.718361 S    
C20   H36   1.104388 S    
N2    O52   1.291565 A    
N13   O74   1.294065 A    
N7    O62   1.300385 A    
C56   C58   1.459167 A    
C50   C54   1.457279 A    
C55   C57   1.457623 A    
P2    O18   1.749866 S    
N12   O71   1.293650 A    
C67   C71   1.409929 A    
C21   H45   1.108054 S    
O9    Ba1   2.853777 S    
C19   H35   1.106047 S    
C53   C59   1.457629 A    
N3    O53   1.299700 A    
Ba4   O48   2.905739 S    
O44   C8    1.388975 S    
C37   C49   1.399907 A    
C40   C48   1.399564 A    
C11   N9    1.448866 S    
O38   C13   1.382548 S    
O5    Ba2   2.897064 S    
C25   H53   1.108820 S    
P1    O5    1.632388 S    
P11   O43   1.733100 S    
P6    Ba2   3.548089 S    
C9    H19   1.094487 S    
C10   H22   1.111172 S    
P12   O44   1.731496 S    
N4    O56   1.290095 A    
O13   P14   1.544589 D    
N5    O58   1.300001 A    
C19   H39   1.101696 S    
Ba1   Ba2   4.714603 S    
C8    C12   1.524105 S    
N16   O80   1.294045 A    
C49   C53   1.454478 A    
P6    O26   1.564280 D    
C68   C72   1.412010 A    
C27   H59   1.102494 S    
C54   C72   1.419157 A    
N3    O54   1.290927 A    
N11   O70   1.297104 A    
C30   N2    1.466486 S    
N9    O66   1.297682 A    
P9    O41   1.724876 S    
Ba2   O45   3.030761 S    
C37   C45   1.396516 A    
P13   C46   1.871956 S    
O2    Ba2   2.980620 S    
O17   C21   1.401143 S    
P7    O48   1.643420 S    
P2    O6    1.638427 S    
O31   Ba3   2.856489 S    
P7    Ba3   3.552189 S    
O9    P14   1.735098 S    
C34   C62   1.391541 A    
C57   C61   1.459190 A    
C44   C58   1.439943 A    
N10   O67   1.291391 A    
O24   C32   1.435836 S    
P11   O31   1.787677 S    
P5    O46   1.643420 S    
C18   H34   1.105224 S    
C17   H37   1.103706 S    
P12   O32   1.779071 S    
C16   H32   1.109372 S    
P6    O38   1.719003 S    
C22   C26   1.516233 S    
C40   C52   1.403361 A    
C65   C69   1.410370 A    
C32   N8    1.464503 S    
C41   C59   1.438573 A    
N8    O63   1.300761 A    
C39   C47   1.401120 A    
C56   C70   1.422670 A    
P6    C61   1.876149 S    
C28   H56   1.108405 S    
C31   N7    1.464003 S    
O3    Ba3   2.972058 S    
P5    C62   1.884382 S    
N14   O75   1.296367 A    
P3    C51   1.930443 S    
C42   N16   1.439202 S    
C3    H65   1.104956 S    
C34   H74   1.082777 S    
P1    C49   1.924530 S    
C42   C46   1.409339 A    
C2    C30   1.541487 S    
C11   H23   1.110429 S    
C1    H3    1.099231 S    
O19   C23   1.393465 S    
P8    O47   1.637312 S    
C2    H4    1.104945 S    
C52   C56   1.458685 A    
C1    H67   1.111187 S    
C39   C51   1.404405 A    
N15   O77   1.294861 A    
Ba1   O45   2.897053 S    
C35   H75   1.082619 S    
C71   H69   1.076093 S    
C13   C17   1.494780 S    
O14   P13   1.547663 D    
O29   Ba1   2.856489 S    
C38   C50   1.403372 A    
C7    H11   1.092174 S    
C54   C60   1.459731 A    
O28   Ba4   2.975368 S    
P7    O27   1.563902 D    
O42   C6    1.388261 S    
O8    Ba3   2.905748 S    
C17   H33   1.104255 S    
C53   C71   1.417462 A    
O41   C5    1.393375 S    
C4    C32   1.537776 S    
C27   H63   1.113225 S    
C4    H66   1.104740 S    
N6    O60   1.296544 A    
P11   C68   1.855215 S    
C36   C64   1.389833 A    
O43   C7    1.390263 S    
C4    H8    1.104323 S    
C69   H71   1.076274 S    
O30   Ba2   2.853066 S    
N4    O55   1.299563 A    
C6    C10   1.521818 S    
P14   C45   1.858948 S    
P1    Ba1   3.545885 S    
C34   C66   1.377677 A    
P3    O7    1.632388 S    
C12   N10   1.448689 S    
P11   O35   1.526345 D    
C44   N14   1.436238 S    
C70   H72   1.079140 S    
O11   P16   1.727056 S    
C29   N5    1.463399 S    
C14   H30   1.108891 S    
P8    C63   1.877882 S    
C72   H70   1.076620 S    
P3    Ba3   3.545885 S    
C66   C70   1.414817 A    
Ba4   O47   3.030761 S    
P8    Ba4   3.548089 S    
O21   P14   1.766397 S    
C3    H7    1.104688 S    
C22   H46   1.107803 S    
C10   N12   1.447782 S    
C7    C11   1.523298 S    
C12   H24   1.110262 S    
C2    H6    1.105252 S    
O12   Ba4   2.857209 S    
C23   C27   1.478658 S    
C18   H42   1.106225 S    
P4    C52   1.933116 S    
C44   C48   1.406798 A    
C2    H68   1.111051 S    
C4    H2    1.110837 S    
C24   C28   1.516496 S    
