data_mof_unit_41355.cif
_audit_creation_date              2012-12-10T19:45:45-0500
_audit_creation_method            fapswitch 2.2
_symmetry_space_group_name_H-M    P1
_symmetry_Int_Tables_number       1
_space_group_crystal_system       triclinic
_cell_length_a                    10.832509
_cell_length_b                    14.680923
_cell_length_c                    14.708447
_cell_angle_alpha                 65.219186
_cell_angle_beta                  103.437787
_cell_angle_gamma                 102.943784
_cell_volume                      2044.23772243

loop_
_atom_site_label
_atom_site_type_symbol
_atom_type_description
_atom_site_fract_x
_atom_site_fract_y
_atom_site_fract_z
_atom_type_partial_charge
C1    C     C_R   0.478972 0.119683 0.312234 0.792404
C2    C     C_R   0.601047 0.784922 0.973009 -0.204336
C3    C     C_R   0.452468 0.149447 0.128809 -0.207313
C4    C     C_R   0.582496 0.851216 0.871734 -0.206518
C5    C     C_R   0.497439 0.292052 0.179382 -0.251408
C6    C     C_R   0.521472 0.708237 0.821123 -0.256579
C7    C     C_R   0.506558 0.360731 0.079412 0.088550
C8    C     C_R   0.544664 0.639956 0.922194 0.089291
C9    C     C_R   0.483113 0.321080 0.003107 0.166635
C10   C     C_R   0.581448 0.679807 0.998812 0.168174
C11   C     C_R   0.535907 0.467418 0.053151 0.064063
C12   C     C_R   0.522564 0.880360 0.687780 0.791897
C13   C     C_R   0.528778 0.533342 0.949085 0.064096
C14   C     C_R   0.508493 0.490617 0.875559 -0.222630
C15   C     C_R   0.574492 0.510335 0.127364 -0.222958
C16   C     C_R   0.262849 0.998924 0.502628 0.793512
C17   C     C_R   0.737184 0.000891 0.497576 0.794036
C18   C     C_R   0.486785 0.386520 0.902454 -0.231827
C19   C     C_R   0.597980 0.614498 0.100333 -0.233216
C20   C     C_R   0.708410 0.282502 0.672479 -0.328130
C21   C     C_R   0.290770 0.717064 0.328158 -0.325122
C22   C     C_R   0.677214 0.201738 0.641325 0.078293
C23   C     C_R   0.870651 0.000931 0.495897 -0.081259
C24   C     C_R   0.322402 0.798061 0.358960 0.078507
C25   C     C_R   0.520027 0.285856 0.507970 0.028536
C26   C     C_R   0.479936 0.714122 0.492110 0.030289
C27   C     C_R   0.547848 0.371237 0.535298 -0.023655
C28   C     C_R   0.451618 0.628480 0.465180 -0.022380
C29   C     C_R   0.643762 0.367143 0.620220 0.162212
C30   C     C_R   0.355368 0.632402 0.380491 0.162072
C31   C     C_R   0.483356 0.458945 0.483033 0.063370
C32   C     C_R   0.515898 0.540663 0.517614 0.066212
C33   C     C_R   0.611270 0.531675 0.603450 -0.249513
C34   C     C_R   0.129396 0.998195 0.504991 -0.081872
C35   C     C_R   0.387653 0.467772 0.397420 -0.244401
C36   C     C_R   0.673813 0.446852 0.653211 -0.208297
C37   C     C_R   0.324896 0.552483 0.347807 -0.202467
C38   C     C_R   0.357414 0.074126 0.769709 -0.119738
C39   C     C_R   0.648956 0.918660 0.230639 -0.123982
C40   C     C_R   0.265494 0.030168 0.710174 -0.095124
C41   C     C_R   0.736941 0.964355 0.290679 -0.096389
C42   C     C_R   0.187157 0.090569 0.625539 0.122219
C43   C     C_R   0.813486 0.905427 0.377779 0.124389
C44   C     C_R   0.199861 0.194851 0.603072 -0.156215
C45   C     C_R   0.906648 0.952997 0.442303 -0.003150
C46   C     C_R   0.802043 0.800701 0.402902 -0.153996
C47   C     C_R   0.291577 0.238360 0.663117 -0.132541
C48   C     C_R   0.713955 0.755427 0.342597 -0.136771
C49   C     C_R   0.370962 0.178189 0.745816 -0.113213
C50   C     C_R   0.637038 0.814272 0.256833 -0.120120
C51   C     C_R   0.964169 0.046952 0.553062 -0.236955
C52   C     C_R   0.035939 0.951919 0.448134 -0.237787
C53   C     C_R   0.093452 0.045242 0.559388 -0.001666
C54   C     C_R   0.474167 0.187333 0.204881 -0.052453
C55   C     C_R   0.541678 0.812944 0.795356 -0.051855
C56   C     C_R   0.456259 0.216006 0.028370 -0.202209
Cu1   Cu    Cu3+1 0.466270 0.918260 0.475690 0.940757
Cu2   Cu    Cu3+1 0.533730 0.081740 0.524310 0.940546
H1    H     H_    0.443339 0.212230 0.791114 0.113743
H2    H     H_    0.446005 0.280832 0.446628 0.121380
H3    H     H_    0.273699 0.863974 0.317938 0.121152
H4    H     H_    0.725864 0.135796 0.682365 0.120519
H5    H     H_    0.781927 0.278441 0.737619 0.138119
H6    H     H_    0.216918 0.720942 0.263251 0.137842
H7    H     H_    0.639911 0.589005 0.634781 0.132680
H8    H     H_    0.358745 0.410336 0.366235 0.134409
H9    H     H_    0.256627 0.949563 0.728923 0.103550
H10   H     H_    0.745082 0.045294 0.269735 0.107054
H11   H     H_    0.140382 0.242570 0.538154 0.129618
H12   H     H_    0.568240 0.778996 0.210671 0.121623
H13   H     H_    0.860387 0.754131 0.469647 0.129744
H14   H     H_    0.302202 0.318946 0.644823 0.138618
H15   H     H_    0.704753 0.674610 0.362680 0.138160
H16   H     H_    0.936474 0.081829 0.595927 0.155668
H17   H     H_    0.063653 0.916947 0.405359 0.156230
H18   H     H_    0.471594 0.357193 0.843654 0.142019
H19   H     H_    0.627796 0.644058 0.159590 0.140487
H20   H     H_    0.484395 0.681502 0.760856 0.150871
H21   H     H_    0.506044 0.318258 0.239051 0.147397
H22   H     H_    0.599480 0.932082 0.853338 0.146208
H23   H     H_    0.438701 0.185268 0.970471 0.127233
H24   H     H_    0.432837 0.068664 0.146889 0.147519
H25   H     H_    0.418549 0.027622 0.834096 0.114165
H26   H     H_    0.590164 0.964126 0.163643 0.113651
H27   H     H_    0.630771 0.815824 0.031225 0.130827
H28   H     H_    0.512524 0.535525 0.796366 0.142105
H29   H     H_    0.591402 0.465681 0.207545 0.144483
H30   H     H_    0.746398 0.443476 0.718774 0.145836
H31   H     H_    0.251887 0.555655 0.282528 0.144039
H32   H     H_    0.554299 0.719301 0.553213 0.121570
N1    N     N_R   0.584450 0.204570 0.560790 -0.173614
N2    N     N_R   0.415550 0.795430 0.439210 -0.174269
O1    O     O_R   0.455540 0.022090 0.338120 -0.588220
O2    O     O_R   0.544460 0.977910 0.661880 -0.588629
O3    O     O_R   0.512510 0.160150 0.379180 -0.592618
O4    O     O_R   0.487490 0.839850 0.620820 -0.592694
O5    O     O_R   0.291160 0.930970 0.479480 -0.588905
O6    O     O_R   0.708840 0.069030 0.520520 -0.588516
O7    O     O_R   0.348130 0.069020 0.520540 -0.571162
O8    O     O_R   0.651870 0.930980 0.479460 -0.571910

loop_
_geom_bond_atom_site_label_1
_geom_bond_atom_site_label_2
_ccdc_geom_bond_type
C24   H3    S    
C23   C45   A    
Cu1   N2    S    
C38   H25   S    
C27   C29   A    
C14   C18   A    
Cu2   O6    S    
C51   H16   S    
C6    C55   A    
C1    C54   S    
C52   H17   S    
C33   H7    S    
C56   H23   S    
C39   C41   A    
C38   C49   A    
C36   H30   S    
C15   C19   A    
C29   C36   A    
C8    C13   A    
C35   C37   A    
C39   H26   S    
C4    H22   S    
C42   C53   S    
C3    C54   A    
C16   O5    A    
C6    H20   S    
C26   N2    A    
C33   C36   A    
C2    H27   S    
C19   H19   S    
C21   H6    S    
C16   C34   S    
C11   C15   A    
C40   H9    S    
C22   N1    A    
C25   H2    S    
C5    H21   S    
C17   O6    A    
C44   C47   A    
C40   C42   A    
Cu1   O1    S    
C13   C14   A    
C41   C43   A    
C12   O2    A    
C42   C44   A    
C24   N2    A    
C43   C46   A    
C7    C11   A    
C41   H10   S    
C20   C29   A    
C46   C48   A    
C25   N1    A    
C27   C31   A    
C5    C54   A    
C28   C32   A    
C14   H28   S    
C47   C49   A    
C5    C7    A    
C6    C8    A    
C45   C52   A    
Cu1   O8    S    
Cu1   O4    S    
C30   C37   A    
C51   C53   A    
C2    C4    A    
Cu2   O3    S    
C22   H4    S    
C3    C56   A    
C23   C51   A    
C31   C32   A    
C10   C19   A    
C1    O3    A    
Cu1   O5    S    
C3    H24   S    
C44   H11   S    
C9    C56   A    
C17   C23   S    
C43   C45   S    
C46   H13   S    
C8    C10   A    
C20   C22   A    
C4    C55   A    
C31   C35   A    
C26   H32   S    
C2    C10   A    
C15   H29   S    
Cu2   N1    S    
C7    C9    A    
C18   H18   S    
C34   C52   A    
C48   H15   S    
Cu2   O7    S    
C49   H1    S    
C16   O7    A    
C25   C27   A    
C21   C30   A    
C26   C28   A    
C35   H8    S    
C37   H31   S    
C32   C33   A    
C20   H5    S    
C28   C30   A    
C50   H12   S    
C38   C40   A    
C11   C13   A    
Cu1   Cu2   S    
C48   C50   A    
Cu2   O2    S    
C17   O8    A    
C47   H14   S    
C12   C55   S    
C9    C18   A    
C39   C50   A    
C34   C53   A    
C1    O1    A    
C21   C24   A    
C12   O4    A    
