data_mof_unit_63527.cif
_audit_creation_date              2013-03-05T16:15:29-0500
_audit_creation_method            fapswitch 2.2
_symmetry_space_group_name_H-M    P1
_symmetry_Int_Tables_number       1
_space_group_crystal_system       triclinic
_cell_length_a                    30.271926
_cell_length_b                    30.271553
_cell_length_c                    18.234994
_cell_angle_alpha                 90.063817
_cell_angle_beta                  89.996822
_cell_angle_gamma                 89.934259
_cell_volume                      16710.1298117

loop_
_atom_site_label
_atom_site_type_symbol
_atom_site_description
_atom_site_fract_x
_atom_site_fract_y
_atom_site_fract_z
_atom_type_partial_charge
O1    O     O_R   0.434530 0.036970 0.500000 -0.593052
O2    O     O_R   0.963030 0.434530 0.500000 -0.592842
O3    O     O_R   0.565470 0.963030 0.500000 -0.593199
O4    O     O_R   0.036970 0.565470 0.500000 -0.593105
O5    O     O_R   0.565470 0.036970 0.500000 -0.592901
O6    O     O_R   0.036970 0.434530 0.500000 -0.593290
O7    O     O_R   0.434530 0.963030 0.500000 -0.593054
O8    O     O_R   0.963030 0.565470 0.500000 -0.593017
O9    O     O_R   0.934530 0.536970 0.000000 -0.594426
O10   O     O_R   0.463030 0.934530 0.000000 -0.593235
O11   O     O_R   0.065470 0.463030 0.000000 -0.593924
O12   O     O_R   0.536970 0.065470 0.000000 -0.594115
O13   O     O_R   0.065470 0.536970 0.000000 -0.592673
O14   O     O_R   0.536970 0.934530 0.000000 -0.593586
O15   O     O_R   0.934530 0.463030 0.000000 -0.593068
O16   O     O_R   0.463030 0.065470 0.000000 -0.593246
C1    C     C_R   0.226240 0.000098 0.499999 0.082878
C2    C     C_R   0.000103 0.226239 0.500109 0.082887
C3    C     C_R   0.773762 0.999901 0.500014 0.082893
C4    C     C_R   0.999878 0.773761 0.499834 0.082890
C5    C     C_R   0.726127 0.501655 0.004281 0.080952
C6    C     C_R   0.500380 0.726193 0.000361 0.082493
C7    C     C_R   0.273769 0.498354 0.003434 0.083055
C8    C     C_R   0.501263 0.273867 0.004346 0.081255
C9    C     C_R   0.413878 0.000023 0.499994 1.001107
C10   C     C_R   0.000023 0.413878 0.500006 1.001073
C11   C     C_R   0.586123 0.999977 0.499995 1.000995
C12   C     C_R   0.999977 0.586122 0.499994 1.001058
C13   C     C_R   0.913864 0.500042 0.000368 1.005344
C14   C     C_R   0.500027 0.913872 0.000033 1.002028
C15   C     C_R   0.086126 0.499956 0.000319 1.000983
C16   C     C_R   0.499993 0.086137 0.000387 1.004632
O17   O     O_R   0.500010 0.036970 0.392670 -0.594047
O18   O     O_R   0.963030 0.500010 0.392670 -0.593924
O19   O     O_R   0.499990 0.963030 0.392670 -0.595263
O20   O     O_R   0.036970 0.499990 0.392670 -0.595328
O21   O     O_R   0.499990 0.036970 0.607330 -0.594781
O22   O     O_R   0.036970 0.500010 0.607330 -0.595565
O23   O     O_R   0.500010 0.963030 0.607330 -0.595010
O24   O     O_R   0.963030 0.499990 0.607330 -0.594384
O25   O     O_R   0.000010 0.536970 0.892670 -0.594202
O26   O     O_R   0.463030 0.000010 0.892670 -0.596417
O27   O     O_R   0.999990 0.463030 0.892670 -0.596560
O28   O     O_R   0.536970 0.999990 0.892670 -0.594520
O29   O     O_R   0.999990 0.536970 0.107330 -0.596920
O30   O     O_R   0.536970 0.000010 0.107330 -0.596200
O31   O     O_R   0.000010 0.463030 0.107330 -0.594464
O32   O     O_R   0.463030 0.999990 0.107330 -0.595069
C17   C     C_R   0.499999 0.999978 0.358972 0.968541
C18   C     C_R   0.000003 0.500007 0.358973 0.968529
C19   C     C_R   0.500000 0.000021 0.641028 0.968895
C20   C     C_R   1.000000 0.499993 0.641028 0.968954
C21   C     C_R   0.000025 0.499980 0.858972 0.970449
C22   C     C_R   0.500001 0.000019 0.858972 0.971160
C23   C     C_R   0.000046 0.500020 0.141028 0.972809
C24   C     C_R   0.499998 0.999934 0.141028 0.972420
Zn1   Zn    Zn3+2 0.500000 0.049360 0.500000 1.175383
Zn2   Zn    Zn3+2 0.950640 0.500000 0.500000 1.175697
Zn3   Zn    Zn3+2 0.500000 0.950640 0.500000 1.174253
Zn4   Zn    Zn3+2 0.049360 0.500000 0.500000 1.173646
Zn5   Zn    Zn3+2 0.000000 0.549360 0.000000 1.172834
Zn6   Zn    Zn3+2 0.450640 0.000000 0.000000 1.172767
Zn7   Zn    Zn3+2 0.000000 0.450640 0.000000 1.172946
Zn8   Zn    Zn3+2 0.549360 0.000000 0.000000 1.172939
O33   O     O_R   0.999990 0.934550 0.439420 -0.580726
O34   O     O_R   0.065450 0.999990 0.439420 -0.580826
O35   O     O_R   0.000010 0.065450 0.439420 -0.580596
O36   O     O_R   0.934550 0.000010 0.439420 -0.580813
O37   O     O_R   0.000010 0.934550 0.560580 -0.580748
O38   O     O_R   0.934550 0.999990 0.560580 -0.580647
O39   O     O_R   0.999990 0.065450 0.560580 -0.580878
O40   O     O_R   0.065450 0.000010 0.560580 -0.580655
O41   O     O_R   0.499990 0.434550 0.939420 -0.576553
O42   O     O_R   0.565450 0.499990 0.939420 -0.576257
O43   O     O_R   0.500010 0.565450 0.939420 -0.586503
O44   O     O_R   0.434550 0.500010 0.939420 -0.570027
O45   O     O_R   0.500010 0.434550 0.060580 -0.579982
O46   O     O_R   0.434550 0.499990 0.060580 -0.580460
O47   O     O_R   0.499990 0.565450 0.060580 -0.577380
O48   O     O_R   0.565450 0.500010 0.060580 -0.579737
C25   C     C_R   0.999991 0.913608 0.499964 1.004452
C26   C     C_R   0.086392 0.000003 0.499997 1.004441
C27   C     C_R   0.999998 0.086392 0.500037 1.004453
C28   C     C_R   0.913608 0.999997 0.500001 1.004473
C29   C     C_R   0.499903 0.413617 0.999833 0.969991
C30   C     C_R   0.586380 0.499926 0.999888 0.965980
C31   C     C_R   0.499996 0.586378 0.999992 0.987694
C32   C     C_R   0.413589 0.500396 0.999942 0.985523
C33   C     C_1   0.499996 0.999931 0.282428 -0.026592
C34   C     C_1   0.000015 0.500039 0.282429 -0.026500
C35   C     C_1   0.500001 0.000056 0.717573 -0.027296
C36   C     C_1   0.000004 0.499960 0.717573 -0.027504
C37   C     C_1   0.000017 0.499947 0.782428 -0.028496
C38   C     C_1   0.500002 0.000048 0.782427 -0.027208
C39   C     C_1   0.000036 0.500052 0.217575 -0.022572
C40   C     C_1   0.499996 0.999916 0.217574 -0.023619
C41   C     C_R   0.296903 0.023547 0.554960 0.218412
C42   C     C_R   0.976703 0.296987 0.555095 0.218385
C43   C     C_R   0.703093 0.976505 0.554944 0.218322
C44   C     C_R   0.023311 0.703117 0.554889 0.218275
C45   C     C_R   0.703065 0.023287 0.445006 0.218327
C46   C     C_R   0.023540 0.296857 0.445131 0.218291
C47   C     C_R   0.296942 0.976665 0.444967 0.218345
C48   C     C_R   0.976479 0.703039 0.444928 0.218412
C49   C     C_R   0.797446 0.522536 0.060101 0.221581
C50   C     C_R   0.477431 0.796944 0.055931 0.219141
C51   C     C_R   0.202580 0.475706 0.057530 0.219437
C52   C     C_R   0.522381 0.202579 0.060007 0.221540
C53   C     C_R   0.203595 0.522323 0.947419 0.216363
C54   C     C_R   0.523364 0.796836 0.944931 0.218446
C55   C     C_R   0.796261 0.479268 0.946146 0.217920
C56   C     C_R   0.478628 0.203721 0.946649 0.217799
C57   C     C_R   0.343130 0.023604 0.554854 0.179885
C58   C     C_R   0.976603 0.343211 0.554958 0.179954
C59   C     C_R   0.656866 0.976449 0.554836 0.179805
C60   C     C_R   0.023401 0.656891 0.554839 0.179962
C61   C     C_R   0.656839 0.023376 0.445100 0.179655
C62   C     C_R   0.023587 0.343085 0.445198 0.179605
C63   C     C_R   0.343167 0.976574 0.445067 0.179798
C64   C     C_R   0.976422 0.656813 0.445082 0.179561
C65   C     C_R   0.843699 0.522253 0.058868 0.179460
C66   C     C_R   0.477149 0.843179 0.055608 0.179630
C67   C     C_R   0.156350 0.476137 0.056678 0.179688
C68   C     C_R   0.522222 0.156326 0.058721 0.179356
C69   C     C_R   0.157376 0.522917 0.946790 0.180271
C70   C     C_R   0.523301 0.843070 0.944893 0.179958
C71   C     C_R   0.842503 0.478597 0.945369 0.180251
C72   C     C_R   0.478100 0.157482 0.945804 0.180303
C73   C     C_R   0.365996 0.000073 0.499967 -0.339410
C74   C     C_R   0.000075 0.365996 0.500055 -0.339438
C75   C     C_R   0.634005 0.999927 0.499972 -0.339420
C76   C     C_R   0.999926 0.634005 0.499978 -0.339438
C77   C     C_R   0.865957 0.500228 0.001584 -0.338177
C78   C     C_R   0.500123 0.865977 0.000144 -0.339045
C79   C     C_R   0.134013 0.499751 0.001331 -0.339337
C80   C     C_R   0.500049 0.134046 0.001674 -0.338365
Zn9   Zn    Zn3+2 0.000000 0.000000 0.419090 1.231714
Zn10  Zn    Zn3+2 0.000000 0.000000 0.580910 1.231717
Zn11  Zn    Zn3+2 0.500000 0.500000 0.919090 1.249397
Zn12  Zn    Zn3+2 0.500000 0.500000 0.080910 1.222249
C81   C     C_R   0.274173 0.000109 0.499971 -0.213037
C82   C     C_R   0.000129 0.274172 0.500124 -0.213024
C83   C     C_R   0.725829 0.999893 0.499984 -0.212982
C84   C     C_R   0.999891 0.725828 0.499879 -0.213019
C85   C     C_R   0.774086 0.501194 0.003561 -0.214614
C86   C     C_R   0.500462 0.774135 0.000498 -0.213841
C87   C     C_R   0.225838 0.498705 0.002776 -0.212629
C88   C     C_R   0.500747 0.225914 0.003778 -0.214695
C89   C     C_R   0.203613 0.025396 0.448547 -0.091156
C90   C     C_R   0.974749 0.203677 0.448637 -0.091243
C91   C     C_R   0.796391 0.974580 0.448499 -0.091220
C92   C     C_R   0.025213 0.796275 0.448353 -0.091199
C93   C     C_R   0.796299 0.025254 0.551526 -0.091241
C94   C     C_R   0.025400 0.203636 0.551597 -0.091193
C95   C     C_R   0.203701 0.974767 0.551448 -0.091231
C96   C     C_R   0.974560 0.796412 0.551319 -0.091238
C97   C     C_R   0.703561 0.530048 0.957360 -0.083358
C98   C     C_R   0.474039 0.703744 0.950120 -0.092459
C99   C     C_R   0.296436 0.473199 0.951735 -0.084285
C100  C     C_R   0.529598 0.296221 0.957127 -0.084841
C101  C     C_R   0.296304 0.524480 0.053974 -0.094596
C102  C     C_R   0.526771 0.703464 0.050182 -0.087486
C103  C     C_R   0.703462 0.472421 0.049636 -0.091057
C104  C     C_R   0.472123 0.296734 0.049768 -0.090596
H1    H     H_    0.221930 0.045395 0.409788 0.199259
H2    H     H_    0.954764 0.222046 0.409867 0.199251
H3    H     H_    0.778076 0.954564 0.409690 0.199213
H4    H     H_    0.045206 0.777869 0.409571 0.199192
H5    H     H_    0.777910 0.045252 0.590326 0.199211
H6    H     H_    0.045412 0.221971 0.590382 0.199181
H7    H     H_    0.222088 0.954786 0.590198 0.199217
H8    H     H_    0.954554 0.778114 0.590097 0.199238
H9    H     H_    0.721711 0.552699 0.922606 0.194436
H10   H     H_    0.453375 0.722212 0.912477 0.199428
H11   H     H_    0.278404 0.452884 0.912975 0.192897
H12   H     H_    0.552119 0.277899 0.922239 0.194450
H13   H     H_    0.277878 0.544289 0.092986 0.199699
H14   H     H_    0.547670 0.721708 0.087770 0.199438
H15   H     H_    0.721810 0.450159 0.084844 0.200534
H16   H     H_    0.449854 0.278548 0.085131 0.200547
C105  C     C_R   0.157675 0.026465 0.448763 0.274219
C106  C     C_R   0.973597 0.157743 0.448859 0.274160
C107  C     C_R   0.842329 0.973511 0.448708 0.274259
C108  C     C_R   0.026347 0.842211 0.448601 0.274154
C109  C     C_R   0.842234 0.026390 0.551302 0.274171
C110  C     C_R   0.026454 0.157696 0.551381 0.274254
C111  C     C_R   0.157766 0.973629 0.551221 0.274149
C112  C     C_R   0.973488 0.842350 0.551129 0.274250
C113  C     C_R   0.657724 0.529171 0.954584 0.278432
C114  C     C_R   0.472865 0.657801 0.950115 0.274310
C115  C     C_R   0.342237 0.474287 0.949432 0.279010
C116  C     C_R   0.528818 0.342058 0.954181 0.279768
C117  C     C_R   0.342242 0.526706 0.052304 0.278207
C118  C     C_R   0.527839 0.657511 0.049508 0.271397
C119  C     C_R   0.657506 0.470302 0.047161 0.274990
C120  C     C_R   0.470085 0.342691 0.047116 0.273359
C121  C     C_R   0.134435 0.000031 0.499991 -0.252962
C122  C     C_R   0.000009 0.134434 0.500109 -0.252917
C123  C     C_R   0.865567 0.999967 0.500002 -0.252867
C124  C     C_R   0.999940 0.865566 0.499890 -0.252913
C125  C     C_R   0.634390 0.499198 0.999606 -0.254293
C126  C     C_R   0.500175 0.634398 0.999918 -0.258798
C127  C     C_R   0.365523 0.501104 0.999821 -0.248244
C128  C     C_R   0.499012 0.365606 0.999425 -0.253722
N1    N     N_R   0.273091 0.046394 0.611803 0.250677
O49   O     O_R   0.241984 0.074362 0.595267 -0.291420
O50   O     O_R   0.282637 0.039455 0.680407 -0.254001
N2    N     N_R   0.953895 0.273262 0.611935 0.250633
O51   O     O_R   0.925907 0.242217 0.595395 -0.291493
O52   O     O_R   0.960872 0.282844 0.680539 -0.254162
N3    N     N_R   0.726899 0.953707 0.611759 0.250671
O53   O     O_R   0.758005 0.925722 0.595189 -0.291357
O54   O     O_R   0.717350 0.960708 0.680372 -0.253616
N4    N     N_R   0.046115 0.726952 0.611692 0.250666
O55   O     O_R   0.074096 0.757972 0.595102 -0.291401
O56   O     O_R   0.039126 0.717508 0.680311 -0.253616
N5    N     N_R   0.726844 0.046068 0.388197 0.250624
O57   O     O_R   0.757874 0.074062 0.404776 -0.291448
O58   O     O_R   0.717333 0.039053 0.319581 -0.253847
N6    N     N_R   0.046366 0.272996 0.388319 0.250696
O59   O     O_R   0.074338 0.241901 0.404893 -0.291317
O60   O     O_R   0.039395 0.282477 0.319703 -0.253302
N7    N     N_R   0.273168 0.953835 0.388125 0.250657
O61   O     O_R   0.242134 0.925857 0.404664 -0.291442
O62   O     O_R   0.282689 0.960788 0.319519 -0.253598
N8    N     N_R   0.953654 0.726790 0.388081 0.250652
O63   O     O_R   0.925674 0.757910 0.404610 -0.291427
O64   O     O_R   0.960619 0.717170 0.319481 -0.253918
N9    N     N_R   0.774281 0.543475 0.119642 0.251963
O65   O     O_R   0.742970 0.571894 0.106657 -0.287749
O66   O     O_R   0.784643 0.534350 0.187206 -0.254164
N10   N     N_R   0.455235 0.773215 0.113432 0.251009
O67   O     O_R   0.427219 0.742038 0.097734 -0.291600
O68   O     O_R   0.462752 0.782972 0.181810 -0.253745
N11   N     N_R   0.225851 0.452819 0.114862 0.250965
O69   O     O_R   0.257022 0.424762 0.098983 -0.285959
O70   O     O_R   0.215816 0.459888 0.183265 -0.253564
N12   N     N_R   0.543508 0.225766 0.119289 0.251997
O71   O     O_R   0.571837 0.257039 0.105954 -0.287044
O72   O     O_R   0.534686 0.215425 0.186962 -0.254065
N13   N     N_R   0.227905 0.544802 0.890900 0.249766
O73   O     O_R   0.258898 0.572753 0.907869 -0.291107
O74   O     O_R   0.218830 0.537645 0.822163 -0.254758
N14   N     N_R   0.545712 0.772983 0.887589 0.250847
O75   O     O_R   0.573850 0.741911 0.903499 -0.290152
O76   O     O_R   0.538141 0.782452 0.819144 -0.253531
N15   N     N_R   0.771873 0.458778 0.887593 0.250543
O77   O     O_R   0.740787 0.430410 0.901862 -0.291363
O78   O     O_R   0.781046 0.468105 0.819640 -0.255533
N16   N     N_R   0.457832 0.228091 0.888401 0.250584
O79   O     O_R   0.429474 0.259198 0.903095 -0.292312
O80   O     O_R   0.466870 0.218887 0.820312 -0.255392
N17   N     N_R   0.366780 0.047494 0.610521 0.255065
O81   O     O_R   0.358119 0.088983 0.622563 -0.238643
O82   O     O_R   0.395737 0.027383 0.651322 -0.370923
N18   N     N_R   0.952720 0.366944 0.610601 0.255059
O83   O     O_R   0.911240 0.358363 0.622616 -0.238544
O84   O     O_R   0.972832 0.395890 0.651423 -0.371248
N19   N     N_R   0.633211 0.952615 0.610478 0.255126
O85   O     O_R   0.641864 0.911134 0.622471 -0.238406
O86   O     O_R   0.604262 0.972770 0.651313 -0.370414
N20   N     N_R   0.047277 0.633261 0.610525 0.255074
O87   O     O_R   0.088746 0.641885 0.622569 -0.238628
O88   O     O_R   0.027177 0.604340 0.651309 -0.370428
N21   N     N_R   0.633157 0.047225 0.389446 0.255215
O89   O     O_R   0.641755 0.088695 0.377434 -0.237922
O90   O     O_R   0.604227 0.027094 0.348635 -0.370374
N22   N     N_R   0.047446 0.366690 0.389523 0.255203
O91   O     O_R   0.088927 0.358017 0.377489 -0.238117
O92   O     O_R   0.027319 0.395631 0.348727 -0.369815
N23   N     N_R   0.366855 0.952671 0.389391 0.255146
O93   O     O_R   0.358254 0.911191 0.377329 -0.238254
O94   O     O_R   0.395793 0.972760 0.348610 -0.370339
N24   N     N_R   0.952561 0.633104 0.389452 0.255214
O95   O     O_R   0.911071 0.641734 0.377453 -0.237944
O96   O     O_R   0.972705 0.604140 0.348615 -0.370574
N25   N     N_R   0.868012 0.544324 0.115778 0.253188
O97   O     O_R   0.859709 0.585447 0.131464 -0.238667
O98   O     O_R   0.897048 0.522790 0.154347 -0.376507
N26   N     N_R   0.453579 0.866906 0.111621 0.254742
O99   O     O_R   0.412241 0.858138 0.124572 -0.238281
O100  O     O_R   0.473870 0.895998 0.151905 -0.372399
N27   N     N_R   0.132143 0.452624 0.112027 0.254876
O101  O     O_R   0.140228 0.411047 0.124186 -0.238560
O102  O     O_R   0.103324 0.473185 0.152548 -0.372933
N28   N     N_R   0.544585 0.132039 0.115321 0.253492
O103  O     O_R   0.585750 0.140350 0.130457 -0.238632
O104  O     O_R   0.523290 0.102994 0.154125 -0.375765
N29   N     N_R   0.134250 0.546954 0.890704 0.255267
O105  O     O_R   0.143443 0.588283 0.878567 -0.237795
O106  O     O_R   0.105198 0.527139 0.849700 -0.369534
N30   N     N_R   0.546713 0.866688 0.888712 0.254787
O107  O     O_R   0.588099 0.858029 0.875779 -0.238193
O108  O     O_R   0.526261 0.895629 0.848364 -0.371424
N31   N     N_R   0.865557 0.456024 0.887461 0.253833
O109  O     O_R   0.856003 0.415199 0.871746 -0.237380
O110  O     O_R   0.894892 0.476741 0.848358 -0.372903
N32   N     N_R   0.455369 0.134411 0.888147 0.254082
O111  O     O_R   0.414433 0.143885 0.873060 -0.237594
O112  O     O_R   0.476043 0.105153 0.848636 -0.372661
N33   N     N_R   0.135440 0.055664 0.398674 0.237757
O113  O     O_R   0.104311 0.081793 0.422054 -0.327297
O114  O     O_R   0.151093 0.061505 0.332932 -0.281106
N34   N     N_R   0.944334 0.135586 0.398764 0.237727
O115  O     O_R   0.918207 0.104537 0.422120 -0.327082
O116  O     O_R   0.938451 0.151236 0.333041 -0.281158
N35   N     N_R   0.864567 0.944294 0.398541 0.237732
O117  O     O_R   0.895707 0.918185 0.421844 -0.327396
O118  O     O_R   0.848911 0.938418 0.332791 -0.281223
N36   N     N_R   0.055597 0.864323 0.398506 0.237703
O119  O     O_R   0.081737 0.895387 0.421879 -0.327016
O120  O     O_R   0.061463 0.848612 0.332760 -0.281218
N37   N     N_R   0.864367 0.055651 0.601442 0.237703
O121  O     O_R   0.895433 0.081774 0.578122 -0.327088
O122  O     O_R   0.848679 0.061542 0.667180 -0.281224
N38   N     N_R   0.055652 0.135482 0.601508 0.237723
O123  O     O_R   0.081776 0.104337 0.578160 -0.327330
O124  O     O_R   0.061501 0.151171 0.667263 -0.281242
N39   N     N_R   0.135632 0.944385 0.601284 0.237725
O125  O     O_R   0.104578 0.918243 0.577890 -0.326993
O126  O     O_R   0.151311 0.938527 0.667011 -0.281176
N40   N     N_R   0.944275 0.864609 0.601265 0.237754
O127  O     O_R   0.918166 0.895740 0.577941 -0.327377
O128  O     O_R   0.938404 0.848981 0.666998 -0.281163
N41   N     N_R   0.635401 0.559914 0.907752 0.217329
O129  O     O_R   0.617700 0.546080 0.846938 -0.282905
O130  O     O_R   0.641715 0.602057 0.916923 -0.278605
N42   N     N_R   0.442909 0.635743 0.901015 0.239135
O131  O     O_R   0.417619 0.604136 0.924821 -0.321581
O132  O     O_R   0.435723 0.651813 0.835930 -0.279505
N43   N     N_R   0.364608 0.446872 0.897276 0.220030
O133  O     O_R   0.378797 0.464020 0.836302 -0.273923
O134  O     O_R   0.361821 0.404141 0.902963 -0.277830
N44   N     N_R   0.559431 0.364124 0.906832 0.220628
O135  O     O_R   0.545291 0.382205 0.846554 -0.280645
O136  O     O_R   0.601553 0.356995 0.914636 -0.273326
N45   N     N_R   0.364347 0.556142 0.102225 0.238602
O137  O     O_R   0.395753 0.581875 0.078981 -0.323623
O138  O     O_R   0.348629 0.562290 0.167880 -0.282772
N46   N     N_R   0.558482 0.635085 0.096926 0.238698
O139  O     O_R   0.583535 0.603732 0.071196 -0.346934
O140  O     O_R   0.566653 0.650727 0.162024 -0.279477
N47   N     N_R   0.635156 0.437663 0.090812 0.239813
O141  O     O_R   0.602913 0.414704 0.063046 -0.350379
O142  O     O_R   0.651164 0.426173 0.154230 -0.280843
N48   N     N_R   0.437428 0.365264 0.090608 0.239202
O143  O     O_R   0.414384 0.397358 0.062481 -0.352055
O144  O     O_R   0.425944 0.349532 0.154195 -0.280581

loop_
_geom_bond_atom_site_label_1
_geom_bond_atom_site_label_2
_geom_bond_distance
_ccdc_geom_bond_type
N40   O128  1.301360 A    
C5    C103  1.393152 A    
N11   O70   1.301200 A    
C4    C84   1.451004 S    
C119  N47   1.439016 S    
N7    O61   1.301229 A    
O25   Zn5   1.992367 S    
O47   C31   1.274186 A    
N45   O137  1.301050 A    
O27   Zn7   1.993188 S    
C34   C39   1.182613 T    
N33   O113  1.301117 A    
O28   Zn8   1.992799 S    
C44   N4    1.438583 S    
C108  N36   1.438429 S    
C43   C83   1.407822 A    
C65   N25   1.436891 S    
C42   C58   1.399292 A    
N16   O80   1.301187 A    
N23   O93   1.301163 A    
N14   O75   1.301221 A    
C94   H6    1.084049 S    
N24   O95   1.301161 A    
C106  N34   1.438441 S    
O48   C30   1.275212 A    
C47   N7    1.438584 S    
N36   O119  1.301133 A    
C98   H10   1.084047 S    
C120  C128  1.416655 A    
O38   C28   1.273674 A    
C10   C74   1.449469 S    
O33   Zn9   2.016067 S    
C69   C79   1.408449 A    
C58   C74   1.409065 A    
C42   N2    1.438584 S    
C8    C104  1.393056 A    
C115  C127  1.414181 A    
C52   C68   1.400313 A    
O7    Zn3   2.016660 S    
N12   O72   1.301194 A    
O24   Zn2   1.992798 S    
C110  N38   1.438411 S    
N46   O139  1.301326 A    
C44   C84   1.407834 A    
N38   O123  1.301121 A    
C120  N48   1.438888 S    
N9    O65   1.301208 A    
O34   C26   1.273648 A    
O10   C14   1.282117 A    
O14   Zn8   2.017483 S    
N10   O68   1.301190 A    
C116  C128  1.414239 A    
O2    C10   1.281910 A    
C23   C39   1.395833 S    
N22   O92   1.300938 A    
O38   Zn10  2.015705 S    
C3    C93   1.391564 A    
N32   O111  1.301165 A    
C101  H13   1.083995 S    
C1    C95   1.391557 A    
O20   C18   1.276704 A    
C71   N31   1.437446 S    
N19   O86   1.300924 A    
C66   N26   1.437147 S    
C64   N24   1.437195 S    
C119  C125  1.416752 A    
C63   N23   1.437222 S    
C117  C127  1.417839 A    
C33   C40   1.182616 T    
N30   O108  1.300925 A    
C59   N19   1.437211 S    
C35   C38   1.182627 T    
N28   O104  1.300744 A    
C91   H3    1.084048 S    
C70   C78   1.409055 A    
O18   Zn2   1.992759 S    
C95   C111  1.391017 A    
N35   O118  1.301361 A    
C2    C90   1.391539 A    
C118  N46   1.438379 S    
C69   N29   1.437385 S    
C52   C88   1.407064 A    
O23   C19   1.276682 A    
N39   O126  1.301360 A    
O35   C27   1.273628 A    
C111  N39   1.438432 S    
O45   Zn12  2.015254 S    
C105  C121  1.418027 A    
C25   C124  1.454305 S    
N31   O110  1.300956 A    
C43   N3    1.438588 S    
C94   C110  1.391015 A    
C115  N43   1.431353 S    
O9    Zn5   2.017506 S    
O19   Zn3   1.993188 S    
O11   Zn7   2.017503 S    
C98   C114  1.391243 A    
N17   O81   1.301161 A    
O12   Zn8   2.016634 S    
N4    O56   1.301191 A    
N37   O122  1.301360 A    
C112  C124  1.418023 A    
C90   H2    1.084054 S    
N13   O73   1.301214 A    
N41   O130  1.300809 A    
C66   C78   1.409065 A    
C29   C128  1.453663 S    
O5    C11   1.281904 A    
O32   Zn6   1.992798 S    
C6    C86   1.451289 S    
C14   C78   1.449844 S    
N18   O84   1.300915 A    
O19   C17   1.276751 A    
C3    C91   1.391537 A    
O26   Zn6   1.992759 S    
C31   C126  1.453649 S    
C2    C94   1.391552 A    
C46   N6    1.438585 S    
O8    Zn2   2.017480 S    
O40   Zn10  2.015662 S    
O45   C29   1.275547 A    
N25   O97   1.301198 A    
C42   C82   1.407792 A    
C50   C66   1.399647 A    
C53   C87   1.408586 A    
C47   C81   1.407815 A    
N6    O59   1.301231 A    
C18   C34   1.395772 S    
O39   C27   1.273681 A    
N1    O50   1.301191 A    
C28   C123  1.454310 S    
C105  N33   1.438415 S    
C89   H1    1.084051 S    
N26   O99   1.301157 A    
N44   O135  1.300686 A    
C114  C126  1.417863 A    
O41   Zn11  2.016067 S    
N5    O57   1.301227 A    
C96   H8    1.084052 S    
C67   C79   1.409744 A    
C12   C76   1.449471 S    
O1    Zn1   2.017506 S    
N48   O144  1.301393 A    
C60   C76   1.409060 A    
O41   C29   1.271501 A    
O4    Zn4   2.016634 S    
N29   O105  1.301167 A    
C112  N40   1.438420 S    
C109  C123  1.417990 A    
N21   O90   1.300926 A    
O25   C21   1.276668 A    
C54   C70   1.399572 A    
O22   Zn4   1.992756 S    
O43   C31   1.272694 A    
N47   O142  1.301425 A    
C103  H15   1.083933 S    
C70   N30   1.437258 S    
C113  N41   1.432606 S    
N23   O94   1.300925 A    
O44   Zn11  2.015664 S    
O37   Zn10  2.015254 S    
C107  N35   1.438419 S    
N42   O131  1.300996 A    
C104  C120  1.393389 A    
C91   C107  1.390991 A    
N20   O87   1.301159 A    
O16   C16   1.282590 A    
O3    C11   1.281949 A    
O43   Zn11  2.015252 S    
O6    C10   1.281949 A    
C63   C73   1.409069 A    
N14   O76   1.301194 A    
O47   Zn12  2.016063 S    
N24   O96   1.300915 A    
C61   C75   1.409073 A    
O21   Zn1   1.993186 S    
C102  H14   1.083995 S    
O28   C22   1.276759 A    
O29   C23   1.276810 A    
C55   N15   1.438547 S    
N8    O63   1.301229 A    
O30   C24   1.276763 A    
N27   O101  1.301160 A    
C46   C82   1.407842 A    
C54   C86   1.407878 A    
C116  N44   1.432872 S    
C61   N21   1.437227 S    
C68   N28   1.436903 S    
N33   O114  1.301360 A    
C44   C60   1.399332 A    
C51   C67   1.399629 A    
C90   C106  1.390981 A    
C36   C37   1.182629 T    
N46   O140  1.301352 A    
C72   C80   1.408313 A    
O31   Zn7   1.992366 S    
C6    C102  1.391818 A    
O17   C17   1.276721 A    
C118  C126  1.417247 A    
N38   O124  1.301360 A    
C19   C35   1.395790 S    
O27   C21   1.276806 A    
C101  C117  1.392656 A    
N2    O51   1.301229 A    
C3    C83   1.451031 S    
N11   O69   1.301241 A    
C104  H16   1.083917 S    
N15   O78   1.301215 A    
N40   O127  1.301118 A    
C89   C105  1.390994 A    
O36   Zn9   2.015664 S    
O10   Zn6   2.016637 S    
N32   O112  1.300950 A    
N45   O138  1.301394 A    
O15   C13   1.282602 A    
O39   Zn10  2.016063 S    
N36   O120  1.301360 A    
C96   C112  1.390958 A    
C1    C89   1.391534 A    
C57   N17   1.437216 S    
C68   C80   1.409651 A    
N35   O117  1.301120 A    
O36   C28   1.273637 A    
C99   C115  1.387563 A    
C100  C116  1.388818 A    
C26   C121  1.454343 S    
C15   C79   1.449750 S    
N31   O109  1.301208 A    
C16   C80   1.450444 S    
C6    C98   1.391736 A    
N16   O79   1.301158 A    
O48   Zn12  2.015662 S    
C7    C87   1.451047 S    
C4    C92   1.391573 A    
C49   N9    1.438655 S    
N43   O133  1.300733 A    
C62   C74   1.409072 A    
C51   C87   1.407072 A    
O33   C25   1.273700 A    
N3    O53   1.301232 A    
C53   N13   1.438544 S    
O23   Zn3   1.992366 S    
N7    O62   1.301192 A    
C27   C122  1.454309 S    
C72   N32   1.437422 S    
C30   C125  1.453500 S    
C41   C81   1.407821 A    
C62   N22   1.437243 S    
C52   N12   1.438646 S    
C20   C36   1.395797 S    
C92   H4    1.084046 S    
C97   H9    1.084186 S    
O46   C32   1.274962 A    
C24   C40   1.395826 S    
N12   O71   1.301198 A    
O13   C15   1.282526 A    
C71   C77   1.408300 A    
C7    C99   1.391611 A    
O46   Zn12  2.015705 S    
O2    Zn2   2.016637 S    
C56   N16   1.438558 S    
C108  C124  1.417995 A    
C117  N45   1.438780 S    
O7    C9    1.281900 A    
O5    Zn1   2.016657 S    
C45   C61   1.399329 A    
C114  N42   1.438750 S    
N9    O66   1.301226 A    
O26   C22   1.276735 A    
N37   O121  1.301133 A    
C43   C59   1.399364 A    
O29   Zn5   1.993186 S    
N10   O67   1.301216 A    
N41   O129  1.300709 A    
C56   C72   1.399913 A    
O37   C25   1.273609 A    
N39   O125  1.301133 A    
N22   O91   1.301161 A    
C93   H5    1.084047 S    
C110  C122  1.418013 A    
C41   N1    1.438587 S    
C5    C85   1.451924 S    
C48   C64   1.399345 A    
N47   O141  1.301132 A    
N27   O102  1.300831 A    
C11   C75   1.449495 S    
C106  C122  1.418005 A    
C9    C73   1.449476 S    
N6    O60   1.301193 A    
C59   C75   1.409075 A    
N1    O49   1.301230 A    
C57   C73   1.409067 A    
C111  C121  1.418002 A    
C45   N5    1.438584 S    
N30   O107  1.301164 A    
N26   O100  1.300883 A    
C55   C85   1.408768 A    
N28   O103  1.301152 A    
O21   C19   1.276792 A    
N44   O136  1.300838 A    
O22   C20   1.276720 A    
C48   C84   1.407800 A    
C103  C119  1.393462 A    
C92   C108  1.391041 A    
N21   O89   1.301163 A    
O44   C32   1.273024 A    
C46   C62   1.399386 A    
O9    C13   1.281667 A    
C49   C85   1.407140 A    
C99   H11   1.084205 S    
O12   C16   1.281725 A    
O1    C9    1.281945 A    
C100  H12   1.084187 S    
O16   Zn6   2.017480 S    
O14   C14   1.281919 A    
O35   Zn9   2.015252 S    
O4    C12   1.281915 A    
O18   C18   1.276785 A    
C21   C37   1.395786 S    
O6    Zn4   2.017483 S    
C2    C82   1.451001 S    
N42   O132  1.301381 A    
C8    C88   1.451739 S    
N17   O82   1.300927 A    
N4    O55   1.301230 A    
N20   O88   1.300939 A    
C113  C125  1.413950 A    
O24   C20   1.276776 A    
C107  C123  1.418018 A    
C56   C88   1.408703 A    
O30   Zn8   1.992756 S    
N13   O74   1.301185 A    
C95   H7    1.084052 S    
N18   O83   1.301159 A    
C102  C118  1.391460 A    
C13   C77   1.450422 S    
C49   C65   1.400360 A    
O42   C30   1.271741 A    
N43   O134  1.300633 A    
C53   C69   1.399287 A    
N34   O115  1.301132 A    
N3    O54   1.301192 A    
N8    O64   1.301192 A    
N25   O98   1.300755 A    
C55   C71   1.400029 A    
C41   C57   1.399366 A    
N19   O85   1.301164 A    
O31   C23   1.276666 A    
O32   C24   1.276735 A    
C51   N11   1.438652 S    
O17   Zn1   1.992367 S    
C4    C96   1.391519 A    
C64   C76   1.409079 A    
C5    C97   1.392052 A    
C47   C63   1.399327 A    
C17   C33   1.395775 S    
O20   Zn4   1.992799 S    
N15   O77   1.301171 A    
C8    C100  1.391975 A    
C48   N8    1.438591 S    
N5    O58   1.301193 A    
C58   N18   1.437194 S    
O42   Zn11  2.015701 S    
C109  N37   1.438434 S    
C50   C86   1.407778 A    
C67   N27   1.437006 S    
C45   C83   1.407823 A    
N48   O143  1.301211 A    
O34   Zn9   2.015701 S    
C93   C109  1.391020 A    
O8    C12   1.281944 A    
N34   O116  1.301361 A    
N29   O106  1.300999 A    
C50   N10   1.438582 S    
C32   C127  1.455188 S    
C1    C81   1.451016 S    
C97   C113  1.388808 A    
C22   C38   1.395795 S    
C60   N20   1.437243 S    
O11   C15   1.281449 A    
C54   N14   1.438609 S    
O13   Zn5   2.016657 S    
N2    O52   1.301193 A    
O15   Zn7   2.016660 S    
C65   C77   1.409615 A    
O40   C26   1.273677 A    
C7    C101  1.392793 A    
O3    Zn3   2.017503 S    
