data_mof_unit_14737.cif
_audit_creation_date              2012-12-10T20:42:36-0500
_audit_creation_method            fapswitch 2.2
_symmetry_space_group_name_H-M    P1
_symmetry_Int_Tables_number       1
_space_group_crystal_system       triclinic
_cell_length_a                    8.903975
_cell_length_b                    10.679337
_cell_length_c                    9.93555
_cell_angle_alpha                 89.626115
_cell_angle_beta                  90.002506
_cell_angle_gamma                 90.878491
_cell_volume                      944.625877448

loop_
_atom_site_label
_atom_site_type_symbol
_atom_type_description
_atom_site_fract_x
_atom_site_fract_y
_atom_site_fract_z
_atom_type_partial_charge
C1    C     C_R   0.505713 0.260042 0.500320 0.879020
C2    C     C_R   0.558922 0.936558 0.378393 -0.215302
C3    C     C_R   0.534164 0.871292 0.499470 -0.096850
C4    C     C_R   0.540832 0.934990 0.621067 0.125210
C5    C     C_3   0.442113 0.924120 0.742186 -0.446382
C6    C     C_3   0.440867 0.065818 0.742918 -0.485306
C7    C     C_R   0.373790 0.466842 0.070987 0.034157
C8    C     C_R   0.616719 0.551579 0.071074 0.412135
C9    C     C_R   0.616885 0.551357 0.928211 0.417127
C10   C     C_R   0.373211 0.468066 0.929211 0.045526
C11   C     C_3   0.283024 0.349878 0.920753 0.111122
C12   C     C_R   0.218946 0.499724 0.499986 0.937727
C13   C     C_3   0.286123 0.346196 0.075195 0.743724
C14   C     C_R   0.506397 0.739832 0.499592 0.858347
C15   C     C_R   0.781065 0.500142 0.500020 0.904701
C16   C     C_1   0.065461 0.499772 0.500004 -0.119245
C17   C     C_1   0.934544 0.499934 0.500020 -0.118820
C18   C     C_R   0.540136 0.062831 0.621781 0.132762
C19   C     C_R   0.533089 0.128830 0.500624 -0.108120
C20   C     C_R   0.558921 0.066211 0.379088 -0.173305
H1    H     H_    0.343648 0.274316 0.869384 0.075878
H2    H     H_    0.330463 0.881023 0.719694 0.215064
H3    H     H_    0.501717 0.883144 0.829989 0.210540
H4    H     H_    0.499957 0.106052 0.831580 0.200883
N1    N     N_R   0.499010 0.499140 0.142800 -0.215578
N2    N     N_R   0.499010 0.499180 0.857150 -0.219689
O1    O     O_R   0.500020 0.316790 0.614690 -0.626126
O2    O     O_R   0.500000 0.316760 0.385350 -0.576316
O3    O     O_R   0.285350 0.500020 0.614650 -0.572429
O4    O     O_R   0.285340 0.499980 0.385310 -0.566110
O5    O     O_R   0.500000 0.683240 0.614650 -0.645152
O6    O     O_R   0.499980 0.683210 0.385310 -0.649059
O7    O     O_R   0.714660 0.500020 0.614690 -0.601975
O8    O     O_R   0.714650 0.499980 0.385350 -0.604897
Zn1   Zn    Zn3+2 0.500010 0.500020 0.653130 0.974608
Zn2   Zn    Zn3+2 0.499990 0.499980 0.346870 1.001682
H5    H     H_    0.568061 0.115933 0.284130 0.198534
O9    O     O_3   0.145378 0.360771 0.135979 -0.670754
H6    H     H_    0.091420 0.279374 0.126046 0.341837
O10   O     O_3   0.365596 0.245036 0.130374 -0.784442
H7    H     H_    0.464158 0.240483 0.083948 0.280871
H8    H     H_    0.566902 0.888602 0.282971 0.176453
H9    H     H_    0.328295 0.104536 0.720429 0.204970
O11   O     O_3   0.734309 0.611292 0.134522 -0.680401
H10   H     H_    0.692545 0.652397 0.214552 0.356504
O12   O     O_3   0.734891 0.610554 0.864013 -0.678525
H11   H     H_    0.693343 0.652356 0.783739 0.359142
O13   O     O_3   0.140173 0.372807 0.867667 -0.672837
H12   H     H_    0.090274 0.289512 0.859366 0.329097

loop_
_geom_bond_atom_site_label_1
_geom_bond_atom_site_label_2
_ccdc_geom_bond_type
C7    C10   A    
C8    N1    A    
C12   O3    A    
C1    O2    A    
O3    Zn1   S    
C15   O8    A    
C19   C20   A    
C5    H3    S    
O4    Zn2   S    
C14   O5    A    
C6    H4    S    
C10   N2    A    
C2    C3    A    
C11   O13   S    
C4    C18   A    
C9    O12   S    
C20   H5    S    
C11   C13   S    
C13   O9    S    
C5    C6    S    
C3    C14   S    
C2    H8    S    
C4    C5    S    
O6    Zn2   S    
O13   H12   S    
O7    Zn1   S    
C11   H1    S    
C9    N2    A    
O8    Zn2   S    
C6    H9    S    
O9    H6    S    
C6    C18   S    
O5    Zn1   S    
C1    C19   S    
C16   C17   T    
C10   C11   S    
N1    Zn2   S    
C2    C20   A    
C3    C4    A    
C8    O11   S    
N2    Zn1   S    
C7    C13   S    
O11   H10   S    
O2    Zn2   S    
C15   C17   S    
C18   C19   A    
C1    O1    A    
O12   H11   S    
O10   H7    S    
C13   O10   S    
O1    Zn1   S    
C12   O4    A    
C15   O7    A    
C5    H2    S    
C12   C16   S    
C14   O6    A    
C8    C9    A    
C7    N1    A    
