data_mof_unit_11337.cif
_audit_creation_date              2012-12-10T18:04:04-0500
_audit_creation_method            fapswitch 2.2
_symmetry_space_group_name_H-M    P1
_symmetry_Int_Tables_number       1
_space_group_crystal_system       triclinic
_cell_length_a                    10.832239
_cell_length_b                    9.560089
_cell_length_c                    10.915394
_cell_angle_alpha                 90.042239
_cell_angle_beta                  91.65854
_cell_angle_gamma                 90.004688
_cell_volume                      1129.89343705

loop_
_atom_site_label
_atom_site_type_symbol
_atom_type_description
_atom_site_fract_x
_atom_site_fract_y
_atom_site_fract_z
_atom_type_partial_charge
C1    C     C_R   0.262194 0.499910 0.500073 0.817012
C2    C     C_R   0.737809 0.499915 0.499878 0.813478
C3    C     C_R   0.413215 0.075420 0.434057 -0.004687
C4    C     C_R   0.586203 0.075359 0.567157 -0.009108
C5    C     C_R   0.413180 0.927752 0.433144 0.405535
C6    C     C_R   0.586685 0.927339 0.567645 0.453402
C7    C     C_R   0.492171 0.498950 0.262364 0.894597
C8    C     C_R   0.494474 0.499445 0.737309 0.874014
C9    C     C_R   0.495273 0.618574 0.063818 -0.080753
C10   C     C_R   0.506062 0.619309 0.937376 0.028468
C11   C     C_R   0.481376 0.494512 0.128551 -0.196506
C12   C     C_R   0.486517 0.496078 0.870496 -0.285541
C13   C     C_R   0.458275 0.369074 0.062104 0.352453
C14   C     C_R   0.455936 0.371367 0.933527 0.356751
C15   C     C_3   0.431010 0.750151 0.924560 0.208845
C16   C     C_3   0.408550 0.740742 0.059982 0.221899
C17   C     C_R   0.063895 0.372601 0.499893 -0.130126
C18   C     C_R   0.936129 0.372603 0.499902 -0.148077
C19   C     C_R   0.871731 0.499747 0.499659 -0.036127
C20   C     C_R   0.128300 0.499741 0.500258 -0.028677
C21   C     C_R   0.936207 0.626737 0.499441 -0.115918
C22   C     C_R   0.063853 0.626732 0.500603 -0.105476
Cu1   Cu    Cu3+1 0.500000 0.640660 0.500000 1.072819
Cu2   Cu    Cu3+1 0.500000 0.359340 0.500000 1.034856
N1    N     N_R   0.500000 0.852070 0.500000 -0.241924
N2    N     N_R   0.500000 0.147940 0.500000 -0.221758
O1    O     O_R   0.319640 0.618740 0.499990 -0.549795
O2    O     O_R   0.680360 0.618740 0.500010 -0.548659
O3    O     O_R   0.319620 0.381170 0.499990 -0.593611
O4    O     O_R   0.680380 0.381170 0.500010 -0.604155
O5    O     O_R   0.499990 0.618810 0.319660 -0.551607
O6    O     O_R   0.500010 0.618810 0.680340 -0.539889
O7    O     O_R   0.499960 0.381240 0.319650 -0.547995
O8    O     O_R   0.500040 0.381240 0.680350 -0.535555
Cl1   Cl    Cl    0.421459 0.209021 0.134752 -0.492005
Cl2   Cl    Cl    0.399176 0.220610 0.855226 -0.440136
Cl3   Cl    Cl    0.524361 0.897299 0.889957 -0.439510
Cl4   Cl    Cl    0.251682 0.690749 0.085394 -0.499667
H1    H     H_    0.347501 0.738817 0.863569 0.154197
H2    H     H_    0.442526 0.831355 0.115194 0.212220
H3    H     H_    0.111916 0.273211 0.499732 0.173295
H4    H     H_    0.888101 0.273210 0.499982 0.168255
H5    H     H_    0.888451 0.726168 0.498383 0.196556
H6    H     H_    0.111624 0.726158 0.501822 0.200355
H7    H     H_    0.343256 0.132185 0.381780 0.199947
H8    H     H_    0.654913 0.132219 0.621162 0.178839
Cl5   Cl    Cl    0.297455 0.847964 0.343395 -0.538471
Cl6   Cl    Cl    0.701819 0.845938 0.658737 -0.532059

loop_
_geom_bond_atom_site_label_1
_geom_bond_atom_site_label_2
_ccdc_geom_bond_type
C4    N2    A    
Cu1   Cu2   S    
Cu1   O1    S    
C11   C13   A    
C9    C10   A    
Cu2   O7    S    
C2    O4    A    
C8    C12   S    
Cu1   O6    S    
C1    O3    A    
C17   C18   A    
C12   C14   A    
C8    O8    A    
C21   C22   A    
C7    C11   S    
C5    Cl5   S    
C15   H1    S    
C6    Cl6   S    
C10   C12   A    
C16   H2    S    
C5    N1    A    
C19   C21   A    
C9    C16   S    
C20   C22   A    
C22   H6    S    
C13   Cl1   S    
Cu2   O4    S    
C10   C15   S    
C9    C11   A    
C14   Cl2   S    
C13   C14   A    
C17   H3    S    
C6    N1    A    
C7    O5    A    
Cu1   O2    S    
C7    O7    A    
C15   C16   S    
C8    O6    A    
C17   C20   A    
C15   Cl3   S    
C4    C6    A    
Cu1   N1    S    
C1    O1    A    
C2    O2    A    
Cu2   O3    S    
C18   C19   A    
C1    C20   S    
C4    H8    S    
C18   H4    S    
C2    C19   S    
C21   H5    S    
C3    H7    S    
C3    N2    A    
Cu2   O8    S    
Cu2   N2    S    
C16   Cl4   S    
C3    C5    A    
Cu1   O5    S    
