data_mof_unit_47606.cif
_audit_creation_date              2012-12-10T20:43:59-0500
_audit_creation_method            fapswitch 2.2
_symmetry_space_group_name_H-M    P1
_symmetry_Int_Tables_number       1
_space_group_crystal_system       triclinic
_cell_length_a                    17.36804
_cell_length_b                    10.834471
_cell_length_c                    9.885421
_cell_angle_alpha                 89.052268
_cell_angle_beta                  90.934662
_cell_angle_gamma                 92.378797
_cell_volume                      1858.0899473

loop_
_atom_site_label
_atom_site_type_symbol
_atom_type_description
_atom_site_fract_x
_atom_site_fract_y
_atom_site_fract_z
_atom_type_partial_charge
C1    C     C_R   0.503888 0.260231 0.500733 0.913116
C2    C     C_R   0.892961 0.542552 0.486205 -0.118388
C3    C     C_1   0.972406 0.579354 0.480029 0.043321
C4    C     C_1   0.039922 0.602758 0.479226 -0.018934
C5    C     C_R   0.159219 0.605030 0.606405 -0.164030
C6    C     C_R   0.236883 0.580425 0.611096 -0.245804
C7    C     C_R   0.276489 0.563036 0.491266 -0.186521
C8    C     C_R   0.241824 0.598776 0.366087 0.456033
C9    C     C_R   0.162666 0.617911 0.360831 -0.075719
C10   C     C_R   0.121410 0.616068 0.481588 0.012170
C11   C     C_R   0.504295 0.059616 0.621433 -0.067089
C12   C     C_R   0.354732 0.516320 0.498045 0.894799
C13   C     C_R   0.508807 0.127681 0.499724 -0.114759
C14   C     C_R   0.515855 0.064578 0.375704 -0.040378
C15   C     C_R   0.508380 0.936839 0.373949 -0.288843
C16   C     C_R   0.504778 0.870796 0.496046 -0.069093
C17   C     C_R   0.508037 0.932926 0.617041 -0.085451
C18   C     C_3   0.566119 0.926668 0.730797 0.349799
C19   C     C_3   0.555481 0.066794 0.747257 0.362409
C20   C     C_R   0.434026 0.469415 0.070369 0.181949
C21   C     C_R   0.563529 0.537465 0.072868 -0.089513
C22   C     C_R   0.564146 0.533561 0.929669 -0.092853
C23   C     C_R   0.501690 0.739499 0.498760 0.857501
C24   C     C_R   0.432800 0.474311 0.926860 0.153440
C25   C     C_3   0.386622 0.354973 0.919485 -0.294320
C26   C     C_3   0.392793 0.345871 0.074138 -0.309247
C27   C     C_R   0.647675 0.497555 0.500639 0.923559
C28   C     C_R   0.857678 0.537100 0.612345 0.394697
C29   C     C_R   0.776881 0.528487 0.618217 0.353235
C30   C     C_R   0.733293 0.499242 0.499558 -0.276496
C31   C     C_R   0.772853 0.477950 0.377380 -0.112197
C32   C     C_R   0.852183 0.506335 0.369516 -0.078952
H1    H     H_    0.511986 0.889332 0.278634 0.184036
H2    H     H_    0.614712 0.569441 0.127367 0.154779
H3    H     H_    0.615955 0.558931 0.877032 0.179931
H4    H     H_    0.417686 0.287276 0.862164 0.195912
H5    H     H_    0.430668 0.273062 0.112410 0.192132
H6    H     H_    0.127631 0.607404 0.699975 0.166447
H7    H     H_    0.265418 0.572100 0.708386 0.195665
N1    N     N_R   0.499490 0.499140 0.142800 -0.120472
N2    N     N_R   0.499490 0.499180 0.857150 -0.114930
O1    O     O_R   0.500010 0.316790 0.614690 -0.600458
O2    O     O_R   0.500000 0.316760 0.385350 -0.622156
O3    O     O_R   0.389120 0.500020 0.614710 -0.625604
O4    O     O_R   0.389110 0.499990 0.385370 -0.586839
O5    O     O_R   0.500000 0.683240 0.614650 -0.604838
O6    O     O_R   0.499990 0.683210 0.385310 -0.654195
O7    O     O_R   0.610890 0.500010 0.614630 -0.567471
O8    O     O_R   0.610880 0.499980 0.385290 -0.624604
Zn1   Zn    Zn3+2 0.500010 0.500020 0.653130 0.980905
Zn2   Zn    Zn3+2 0.499990 0.499980 0.346870 0.958017
O9    O     O_3   0.900812 0.550716 0.730909 -0.649597
C33   C     C_3   0.941087 0.441993 0.760410 0.098455
H8    H     H_    0.984822 0.465121 0.840282 0.186658
H9    H     H_    0.973577 0.410066 0.672379 0.135182
C34   C     C_3   0.887494 0.336472 0.813606 -0.363781
H10   H     H_    0.855323 0.368359 0.901765 0.241167
H11   H     H_    0.845260 0.307870 0.733329 0.214816
C35   C     C_3   0.933464 0.224621 0.855658 -0.941128
H12   H     H_    0.968314 0.194426 0.769923 0.266486
H13   H     H_    0.893691 0.146582 0.885656 0.270006
H14   H     H_    0.972328 0.247813 0.942741 0.279686
C36   C     C_1   0.535327 0.848422 0.842990 0.154658
N3    N     N_1   0.510299 0.789889 0.932036 -0.238617
O10   O     O_3   0.641263 0.887925 0.697140 -0.679746
C37   C     C_3   0.677088 0.944401 0.582245 0.151799
H15   H     H_    0.728781 0.999553 0.616510 0.154682
H16   H     H_    0.641158 0.008785 0.524628 0.184547
C38   C     C_3   0.703869 0.844597 0.488253 -0.377581
H17   H     H_    0.752388 0.796289 0.536859 0.201830
H18   H     H_    0.656418 0.775217 0.469267 0.230420
C39   C     C_3   0.730356 0.899455 0.353073 -0.958199
H19   H     H_    0.681919 0.943968 0.299260 0.272118
H20   H     H_    0.750369 0.824283 0.289627 0.273241
H21   H     H_    0.778610 0.968575 0.368551 0.269153
C40   C     C_1   0.506926 0.093402 0.864170 0.051992
N4    N     N_1   0.467947 0.104558 0.956223 -0.241343
O11   O     O_3   0.622696 0.145040 0.727145 -0.660470
C41   C     C_3   0.662884 0.179298 0.848209 0.132342
H22   H     H_    0.625277 0.225275 0.919866 0.174738
H23   H     H_    0.707350 0.251237 0.819661 0.175168
C42   C     C_3   0.704460 0.071360 0.916224 -0.376466
H24   H     H_    0.745032 0.033235 0.843884 0.234901
H25   H     H_    0.662192 0.997118 0.947095 0.232929
C43   C     C_3   0.750457 0.111865 0.041935 -0.946426
H26   H     H_    0.786046 0.197111 0.021001 0.276581
H27   H     H_    0.789163 0.037740 0.074849 0.271268
H28   H     H_    0.711352 0.128941 0.126226 0.291144
C44   C     C_1   0.307470 0.365218 0.865829 0.236386
N5    N     N_1   0.244579 0.369070 0.826104 -0.216038
C45   C     C_1   0.319905 0.344711 0.148627 0.321889
N6    N     N_1   0.262532 0.341811 0.206714 -0.183190
O12   O     O_3   0.740992 0.537266 0.741814 -0.643572
C46   C     C_3   0.755590 0.655521 0.798972 0.122057
H29   H     H_    0.701063 0.704759 0.796943 0.192860
H30   H     H_    0.798544 0.716318 0.744170 0.144477
C47   C     C_3   0.782476 0.640333 0.946068 -0.314396
H31   H     H_    0.738844 0.584403 0.003581 0.206792
H32   H     H_    0.837015 0.590959 0.950133 0.274934
C48   C     C_3   0.795881 0.764936 0.013493 -0.968613
H33   H     H_    0.835547 0.826010 0.952871 0.276050
H34   H     H_    0.822636 0.750593 0.114900 0.269749
H35   H     H_    0.740190 0.810163 0.024863 0.270126
C49   C     C_1   0.734258 0.422017 0.261148 0.224909
N7    N     N_1   0.704159 0.376741 0.168127 -0.235749
C50   C     C_1   0.892653 0.493642 0.243365 0.195863
N8    N     N_1   0.925278 0.483088 0.143365 -0.219161
O13   O     O_3   0.283313 0.608831 0.247473 -0.638661
C51   C     C_3   0.328140 0.721267 0.245332 0.122503
H36   H     H_    0.382403 0.704172 0.192044 0.187988
H37   H     H_    0.345461 0.755139 0.347951 0.113399
C52   C     C_3   0.285847 0.821640 0.166930 -0.393855
H38   H     H_    0.269870 0.787918 0.064233 0.243216
H39   H     H_    0.232350 0.842815 0.220433 0.221612
C53   C     C_3   0.336179 0.939943 0.153738 -0.904358
H40   H     H_    0.349935 0.978211 0.255258 0.266822
H41   H     H_    0.305070 0.009931 0.093237 0.273545
H42   H     H_    0.390617 0.920908 0.102085 0.278919
C54   C     C_1   0.124106 0.634341 0.231208 0.221925
N9    N     N_1   0.093382 0.647494 0.127520 -0.195437
C55   C     C_1   0.544746 0.125890 0.255368 0.208996
N10   N     N_1   0.569426 0.177278 0.161369 -0.208295

loop_
_geom_bond_atom_site_label_1
_geom_bond_atom_site_label_2
_ccdc_geom_bond_type
C27   O7    A    
C37   H16   S    
O12   C46   S    
C38   C39   S    
C11   C13   A    
C52   H39   S    
C47   H31   S    
C7    C8    A    
C33   H8    S    
O13   C51   S    
C18   O10   S    
C22   H3    S    
C11   C19   S    
C28   C29   A    
C51   H37   S    
C5    C6    A    
C20   N1    A    
C18   C36   S    
C43   H28   S    
C22   N2    A    
C50   N8    T    
O4    Zn2   S    
C53   H40   S    
C34   H10   S    
C2    C32   A    
C18   C19   S    
C38   H18   S    
C52   H38   S    
C1    O2    A    
C20   C24   A    
C16   C17   A    
O8    Zn2   S    
C9    C10   A    
O7    Zn1   S    
C37   H15   S    
C35   H12   S    
C23   O5    A    
C32   C50   S    
C21   C22   A    
C27   C30   S    
C24   N2    A    
C19   C40   S    
C38   H17   S    
C39   H21   S    
C8    O13   S    
C49   N7    T    
C47   H32   S    
C33   H9    S    
C7    C12   S    
C35   H13   S    
C23   O6    A    
C15   C16   A    
C43   H27   S    
C5    H6    S    
C24   C25   S    
C39   H20   S    
C51   C52   S    
C45   N6    T    
C41   H23   S    
O11   C41   S    
C8    C9    A    
O6    Zn2   S    
C21   H2    S    
C46   C47   S    
C53   H41   S    
C26   C45   S    
C43   H26   S    
C48   H35   S    
C41   H22   S    
C19   O11   S    
C29   C30   A    
C31   C32   A    
C53   H42   S    
C48   H34   S    
C17   C18   S    
C40   N4    T    
C46   H30   S    
C55   N10   T    
O1    Zn1   S    
C42   H24   S    
C16   C23   S    
C42   H25   S    
C9    C54   S    
C1    C13   S    
C4    C10   S    
C3    C4    T    
C42   C43   S    
N2    Zn1   S    
C47   C48   S    
O9    C33   S    
C33   C34   S    
O3    Zn1   S    
C11   C17   A    
C35   H14   S    
C14   C15   A    
C39   H19   S    
C41   C42   S    
C54   N9    T    
C26   H5    S    
C6    C7    A    
C12   O4    A    
N1    Zn2   S    
O5    Zn1   S    
C25   C44   S    
C34   C35   S    
C31   C49   S    
C2    C3    S    
C25   C26   S    
C5    C10   A    
C12   O3    A    
C51   H36   S    
C29   O12   S    
C28   O9    S    
O2    Zn2   S    
C30   C31   A    
C21   N1    A    
C20   C26   S    
C48   H33   S    
C34   H11   S    
C46   H29   S    
C25   H4    S    
C36   N3    T    
C37   C38   S    
C1    O1    A    
O10   C37   S    
C14   C55   S    
C6    H7    S    
C2    C28   A    
C44   N5    T    
C13   C14   A    
C15   H1    S    
C52   C53   S    
C27   O8    A    
