data_mof_unit_66143.cif
_audit_creation_date              2012-12-10T18:04:01-0500
_audit_creation_method            fapswitch 2.2
_symmetry_space_group_name_H-M    P1
_symmetry_Int_Tables_number       1
_space_group_crystal_system       triclinic
_cell_length_a                    18.365065
_cell_length_b                    30.711085
_cell_length_c                    30.803899
_cell_angle_alpha                 90.008672
_cell_angle_beta                  90.026542
_cell_angle_gamma                 89.983141
_cell_volume                      17373.7372894

loop_
_atom_site_label
_atom_site_type_symbol
_atom_type_description
_atom_site_fract_x
_atom_site_fract_y
_atom_site_fract_z
_atom_type_partial_charge
C1    C     C_R   0.502591 0.690565 0.309188 0.829377
C2    C     C_R   0.498180 0.690573 0.690795 0.818978
C3    C     C_R   0.002591 0.190565 0.309188 0.829378
C4    C     C_R   0.998180 0.190573 0.690795 0.818978
C5    C     C_R   0.002590 0.690565 0.809189 0.829377
C6    C     C_R   0.998180 0.690573 0.190795 0.818978
C7    C     C_R   0.502591 0.190565 0.809189 0.829377
C8    C     C_R   0.498180 0.190573 0.190795 0.818978
C9    C     C_R   0.442432 0.617449 0.398039 0.093710
C10   C     C_R   0.556963 0.618292 0.600894 0.096449
C11   C     C_R   0.942433 0.117450 0.398040 0.093710
C12   C     C_R   0.056963 0.118292 0.600894 0.096450
C13   C     C_R   0.942432 0.617449 0.898039 0.093709
C14   C     C_R   0.056963 0.618293 0.100894 0.096450
C15   C     C_R   0.442432 0.117449 0.898040 0.093710
C16   C     C_R   0.556963 0.118292 0.100894 0.096449
C17   C     C_3   0.405467 0.645279 0.431104 -0.431210
C18   C     C_3   0.591494 0.646551 0.567274 -0.435832
C19   C     C_3   0.905472 0.145281 0.431106 -0.431213
C20   C     C_3   0.091492 0.146552 0.567274 -0.435833
C21   C     C_3   0.905468 0.645279 0.931104 -0.431209
C22   C     C_3   0.091492 0.646552 0.067274 -0.435834
C23   C     C_3   0.405470 0.145280 0.931105 -0.431212
C24   C     C_3   0.591492 0.146552 0.067274 -0.435834
C25   C     C_3   0.408207 0.681896 0.397987 -0.445425
C26   C     C_3   0.588911 0.683155 0.600426 -0.446805
C27   C     C_3   0.908212 0.181897 0.397989 -0.445421
C28   C     C_3   0.088910 0.183156 0.600425 -0.446805
C29   C     C_3   0.908207 0.681896 0.897987 -0.445424
C30   C     C_3   0.088910 0.683156 0.100425 -0.446805
C31   C     C_3   0.408210 0.181897 0.897989 -0.445421
C32   C     C_3   0.588910 0.183155 0.100425 -0.446804
C33   C     C_R   0.465120 0.881453 0.162342 0.130235
C34   C     C_R   0.537202 0.880681 0.838355 0.127843
C35   C     C_R   0.965120 0.381453 0.162342 0.130235
C36   C     C_R   0.037176 0.380689 0.838347 0.127857
C37   C     C_R   0.965120 0.881453 0.662342 0.130235
C38   C     C_R   0.037191 0.880684 0.338352 0.127848
C39   C     C_R   0.465120 0.381453 0.662342 0.130235
C40   C     C_R   0.537200 0.380681 0.338355 0.127843
C41   C     C_R   0.501575 0.842273 0.157263 -0.092419
C42   C     C_R   0.498413 0.842248 0.842705 -0.090516
C43   C     C_R   0.001575 0.342273 0.157263 -0.092419
C44   C     C_R   0.998413 0.342249 0.842705 -0.090539
C45   C     C_R   0.001575 0.842273 0.657263 -0.092419
C46   C     C_R   0.998413 0.842249 0.342705 -0.090526
C47   C     C_R   0.501575 0.342273 0.657263 -0.092420
C48   C     C_R   0.498413 0.342249 0.342705 -0.090517
C49   C     C_R   0.539220 0.835564 0.117827 -0.203459
C50   C     C_R   0.458407 0.836246 0.881401 -0.203770
C51   C     C_R   0.039220 0.335564 0.117827 -0.203459
C52   C     C_R   0.958434 0.336238 0.881410 -0.203761
C53   C     C_R   0.039220 0.835564 0.617827 -0.203458
C54   C     C_R   0.958419 0.836242 0.381405 -0.203766
C55   C     C_R   0.539220 0.335564 0.617827 -0.203458
C56   C     C_R   0.458409 0.336245 0.381401 -0.203769
C57   C     C_R   0.539622 0.868217 0.085638 -0.208770
C58   C     C_R   0.458012 0.868902 0.913598 -0.208186
C59   C     C_R   0.039621 0.368217 0.085638 -0.208773
C60   C     C_R   0.958039 0.368894 0.913607 -0.208196
C61   C     C_R   0.039622 0.868217 0.585638 -0.208771
C62   C     C_R   0.958024 0.868898 0.413602 -0.208191
C63   C     C_R   0.539622 0.368217 0.585638 -0.208770
C64   C     C_R   0.458014 0.368902 0.413598 -0.208187
C65   C     C_R   0.500551 0.907215 0.092099 -0.076253
C66   C     C_R   0.499458 0.907138 0.907925 -0.078190
C67   C     C_R   0.000551 0.407215 0.092099 -0.076251
C68   C     C_R   0.999458 0.407138 0.907926 -0.078165
C69   C     C_R   0.000551 0.907215 0.592099 -0.076252
C70   C     C_R   0.999458 0.907138 0.407926 -0.078179
C71   C     C_R   0.500551 0.407215 0.592099 -0.076253
C72   C     C_R   0.499458 0.407138 0.407925 -0.078188
C73   C     C_R   0.463577 0.912114 0.130993 0.110526
C74   C     C_R   0.538756 0.911287 0.869761 0.110714
C75   C     C_R   0.963577 0.412114 0.130993 0.110526
C76   C     C_R   0.038731 0.411296 0.869753 0.110704
C77   C     C_R   0.963577 0.912114 0.630993 0.110526
C78   C     C_R   0.038745 0.911291 0.369757 0.110709
C79   C     C_R   0.463577 0.412114 0.630993 0.110527
C80   C     C_R   0.538755 0.411288 0.369760 0.110713
C81   C     C_3   0.418024 0.942480 0.157117 -0.490310
C82   C     C_3   0.587324 0.940722 0.844553 -0.484040
C83   C     C_3   0.918025 0.442480 0.157117 -0.490311
C84   C     C_3   0.087265 0.440742 0.844535 -0.484091
C85   C     C_3   0.918024 0.942480 0.657117 -0.490309
C86   C     C_3   0.087298 0.940731 0.344545 -0.484061
C87   C     C_3   0.418024 0.442480 0.657117 -0.490309
C88   C     C_3   0.587321 0.440723 0.344552 -0.484043
C89   C     C_R   0.360269 0.749983 0.249999 0.843560
C90   C     C_R   0.360268 0.749988 0.749995 0.827167
C91   C     C_R   0.639732 0.750055 0.249922 0.837658
C92   C     C_R   0.639728 0.749985 0.750013 0.842696
C93   C     C_R   0.860269 0.249983 0.249999 0.843561
C94   C     C_R   0.860268 0.249988 0.749995 0.827170
C95   C     C_R   0.139733 0.250055 0.249922 0.837658
C96   C     C_R   0.139728 0.249985 0.750013 0.842699
C97   C     C_R   0.860269 0.749983 0.749999 0.843560
C98   C     C_R   0.860268 0.749988 0.249995 0.827168
C99   C     C_R   0.139733 0.750055 0.749922 0.837658
C100  C     C_R   0.139728 0.749985 0.250013 0.842698
C101  C     C_R   0.360269 0.249983 0.749999 0.843560
C102  C     C_R   0.360268 0.249988 0.249995 0.827167
C103  C     C_R   0.639733 0.250055 0.749922 0.837658
C104  C     C_R   0.639728 0.249985 0.250013 0.842696
C105  C     C_3   0.418907 0.907157 0.192632 -0.450506
C106  C     C_3   0.586417 0.905426 0.808996 -0.452496
C107  C     C_3   0.918909 0.407158 0.192633 -0.450506
C108  C     C_3   0.086357 0.405446 0.808978 -0.452448
C109  C     C_3   0.918908 0.907158 0.692632 -0.450506
C110  C     C_3   0.086391 0.905435 0.308988 -0.452475
C111  C     C_3   0.418908 0.407158 0.692632 -0.450507
C112  C     C_3   0.586414 0.405427 0.308995 -0.452492
C113  C     C_R   0.499951 0.940774 0.940452 0.787107
C114  C     C_R   0.500059 0.940829 0.059585 0.787360
C115  C     C_R   0.999951 0.440774 0.940452 0.787105
C116  C     C_R   0.000059 0.440829 0.059585 0.787357
C117  C     C_R   0.999951 0.940774 0.440452 0.787106
C118  C     C_R   0.000059 0.940829 0.559585 0.787358
C119  C     C_R   0.499951 0.440774 0.440452 0.787107
C120  C     C_R   0.500059 0.440829 0.559585 0.787360
C121  C     C_R   0.500078 0.558319 0.439337 0.805684
C122  C     C_R   0.499930 0.558361 0.560610 0.803981
C123  C     C_R   0.000078 0.058319 0.439337 0.805682
C124  C     C_R   0.999930 0.058361 0.560610 0.803981
C125  C     C_R   0.000078 0.558319 0.939336 0.805682
C126  C     C_R   0.999930 0.558361 0.060610 0.803980
C127  C     C_R   0.500078 0.058319 0.939337 0.805683
C128  C     C_R   0.499930 0.058361 0.060610 0.803981
C129  C     C_R   0.500343 0.809324 0.190666 0.797875
C130  C     C_R   0.499674 0.809313 0.809323 0.798442
C131  C     C_R   0.000343 0.309324 0.190666 0.797875
C132  C     C_R   0.999674 0.309313 0.809323 0.798445
C133  C     C_R   0.000343 0.809324 0.690666 0.797875
C134  C     C_R   0.999674 0.809313 0.309323 0.798443
C135  C     C_R   0.500343 0.309324 0.690666 0.797874
C136  C     C_R   0.499674 0.309313 0.309323 0.798442
C137  C     C_1   0.282668 0.749972 0.250010 -0.179868
C138  C     C_1   0.282670 0.749981 0.749958 -0.181977
C139  C     C_1   0.717333 0.750022 0.249927 -0.176403
C140  C     C_1   0.717328 0.749971 0.750019 -0.179486
C141  C     C_1   0.782668 0.249972 0.250010 -0.179869
C142  C     C_1   0.782670 0.249981 0.749958 -0.181976
C143  C     C_1   0.217333 0.250022 0.249927 -0.176404
C144  C     C_1   0.217328 0.249971 0.750019 -0.179485
C145  C     C_1   0.782668 0.749972 0.750010 -0.179869
C146  C     C_1   0.782670 0.749981 0.249959 -0.181977
C147  C     C_1   0.217333 0.750022 0.749927 -0.176403
C148  C     C_1   0.217328 0.749971 0.250019 -0.179486
C149  C     C_1   0.282668 0.249972 0.750010 -0.179868
C150  C     C_1   0.282670 0.249981 0.249959 -0.181977
C151  C     C_1   0.717333 0.250022 0.749927 -0.176403
C152  C     C_1   0.717328 0.249971 0.250019 -0.179486
C153  C     C_R   0.444819 0.650556 0.368024 0.058296
C154  C     C_R   0.554746 0.651390 0.630940 0.069473
C155  C     C_R   0.944821 0.150557 0.368025 0.058296
C156  C     C_R   0.054746 0.151390 0.630939 0.069473
C157  C     C_R   0.944820 0.650556 0.868024 0.058295
C158  C     C_R   0.054746 0.651390 0.130939 0.069474
C159  C     C_R   0.444820 0.150556 0.868025 0.058296
C160  C     C_R   0.554746 0.151390 0.130940 0.069474
C161  C     C_R   0.505305 0.656358 0.341539 -0.167850
C162  C     C_R   0.495316 0.656419 0.658422 -0.187106
C163  C     C_R   0.005305 0.156358 0.341539 -0.167852
C164  C     C_R   0.995316 0.156419 0.658422 -0.187107
C165  C     C_R   0.005305 0.656358 0.841539 -0.167849
C166  C     C_R   0.995316 0.656419 0.158422 -0.187107
C167  C     C_R   0.505305 0.156358 0.841539 -0.167851
C168  C     C_R   0.495316 0.156419 0.158422 -0.187107
C169  C     C_R   0.561348 0.624406 0.341631 0.100633
C170  C     C_R   0.440543 0.623777 0.659181 0.088175
C171  C     C_R   0.061347 0.124405 0.341630 0.100636
C172  C     C_R   0.940543 0.123777 0.659181 0.088175
C173  C     C_R   0.061348 0.624406 0.841631 0.100635
C174  C     C_R   0.940543 0.623776 0.159181 0.088176
C175  C     C_R   0.561347 0.124406 0.841630 0.100635
C176  C     C_R   0.440543 0.123777 0.159181 0.088175
C177  C     C_R   0.557695 0.589605 0.371753 0.354296
C178  C     C_R   0.443748 0.589182 0.628866 0.361005
C179  C     C_R   0.057693 0.089604 0.371752 0.354293
C180  C     C_R   0.943749 0.089182 0.628866 0.361005
C181  C     C_R   0.057695 0.589605 0.871752 0.354293
C182  C     C_R   0.943749 0.589182 0.128866 0.361005
C183  C     C_R   0.557694 0.089605 0.871752 0.354296
C184  C     C_R   0.443748 0.089182 0.128866 0.361005
C185  C     C_R   0.500121 0.588391 0.402682 -0.233380
C186  C     C_R   0.500053 0.588575 0.597111 -0.236656
C187  C     C_R   0.000121 0.088391 0.402683 -0.233379
C188  C     C_R   0.000053 0.088575 0.597111 -0.236655
C189  C     C_R   0.000121 0.588391 0.902682 -0.233381
C190  C     C_R   0.000053 0.588575 0.097111 -0.236656
C191  C     C_R   0.500121 0.088391 0.902683 -0.233379
C192  C     C_R   0.500053 0.088575 0.097111 -0.236655
Cu1   Cu    Cu3+1 0.500000 0.780890 0.280900 0.949879
Cu2   Cu    Cu3+1 0.500000 0.780890 0.719100 0.951264
Cu3   Cu    Cu3+1 0.000000 0.280890 0.280900 0.949878
Cu4   Cu    Cu3+1 0.000000 0.280890 0.719100 0.951260
Cu5   Cu    Cu3+1 0.000000 0.780890 0.780900 0.949878
Cu6   Cu    Cu3+1 0.000000 0.780890 0.219100 0.951262
Cu7   Cu    Cu3+1 0.500000 0.280890 0.780900 0.949880
Cu8   Cu    Cu3+1 0.500000 0.280890 0.219100 0.951264
Cu9   Cu    Cu3+1 0.500000 0.719080 0.219090 0.950109
Cu10  Cu    Cu3+1 0.500000 0.719080 0.780910 0.950003
Cu11  Cu    Cu3+1 0.000000 0.219080 0.219090 0.950108
Cu12  Cu    Cu3+1 1.000000 0.219080 0.780910 0.950001
Cu13  Cu    Cu3+1 0.000000 0.719080 0.719090 0.950108
Cu14  Cu    Cu3+1 0.000000 0.719080 0.280910 0.950002
Cu15  Cu    Cu3+1 0.500000 0.219080 0.719090 0.950109
Cu16  Cu    Cu3+1 0.500000 0.219080 0.280910 0.950003
Cu17  Cu    Cu3+1 0.427490 0.999980 0.000000 0.963082
Cu18  Cu    Cu3+1 0.572510 0.999980 0.000000 0.965267
Cu19  Cu    Cu3+1 0.927490 0.499980 0.000000 0.963085
Cu20  Cu    Cu3+1 0.072510 0.499980 0.000000 0.965271
Cu21  Cu    Cu3+1 0.927490 0.999980 0.500000 0.963083
Cu22  Cu    Cu3+1 0.072510 0.999980 0.500000 0.965268
Cu23  Cu    Cu3+1 0.427490 0.499980 0.500000 0.963082
Cu24  Cu    Cu3+1 0.572510 0.499980 0.500000 0.965267
H1    H     H_    0.349218 0.633939 0.438116 0.204594
H2    H     H_    0.555559 0.652169 0.538735 0.186643
H3    H     H_    0.439951 0.651342 0.460182 0.186552
H4    H     H_    0.647804 0.635894 0.559392 0.205698
H5    H     H_    0.849222 0.133942 0.438119 0.204594
H6    H     H_    0.055556 0.152169 0.538735 0.186642
H7    H     H_    0.939958 0.151343 0.460184 0.186551
H8    H     H_    0.147802 0.135895 0.559392 0.205698
H9    H     H_    0.849219 0.633939 0.938116 0.204594
H10   H     H_    0.055556 0.652170 0.038735 0.186642
H11   H     H_    0.939952 0.651342 0.960183 0.186551
H12   H     H_    0.147802 0.635895 0.059391 0.205698
H13   H     H_    0.349221 0.133941 0.938118 0.204594
H14   H     H_    0.555557 0.152169 0.038735 0.186642
H15   H     H_    0.439956 0.151342 0.960183 0.186551
H16   H     H_    0.647802 0.135895 0.059392 0.205698
H17   H     H_    0.353528 0.691705 0.385971 0.197728
H18   H     H_    0.551447 0.710053 0.591151 0.208560
H19   H     H_    0.444290 0.709253 0.407829 0.208973
H20   H     H_    0.643740 0.693642 0.611586 0.198359
H21   H     H_    0.853533 0.191708 0.385974 0.197727
H22   H     H_    0.051445 0.210054 0.591150 0.208560
H23   H     H_    0.944298 0.209254 0.407830 0.208973
H24   H     H_    0.143739 0.193643 0.611585 0.198359
H25   H     H_    0.853528 0.691705 0.885971 0.197727
H26   H     H_    0.051445 0.710054 0.091150 0.208561
H27   H     H_    0.944291 0.709253 0.907829 0.208973
H28   H     H_    0.143738 0.693643 0.111585 0.198359
H29   H     H_    0.353531 0.191707 0.885973 0.197727
H30   H     H_    0.551445 0.210054 0.091150 0.208560
H31   H     H_    0.444295 0.209254 0.907830 0.208973
H32   H     H_    0.643739 0.193642 0.111585 0.198359
H33   H     H_    0.568900 0.805617 0.112166 0.161356
H34   H     H_    0.426910 0.806868 0.886449 0.160457
H35   H     H_    0.068899 0.305616 0.112165 0.161356
H36   H     H_    0.926957 0.306854 0.886465 0.160470
H37   H     H_    0.068899 0.805616 0.612165 0.161355
H38   H     H_    0.926930 0.806862 0.386456 0.160463
H39   H     H_    0.568900 0.305617 0.612166 0.161355
H40   H     H_    0.426913 0.306868 0.386450 0.160458
H41   H     H_    0.569359 0.862820 0.055753 0.151660
H42   H     H_    0.426434 0.864074 0.942898 0.152921
H43   H     H_    0.069357 0.362820 0.055753 0.151659
H44   H     H_    0.926481 0.364059 0.942914 0.152906
H45   H     H_    0.069358 0.862820 0.555753 0.151660
H46   H     H_    0.926454 0.864068 0.442905 0.152914
H47   H     H_    0.569358 0.362820 0.555753 0.151660
H48   H     H_    0.426436 0.364073 0.442898 0.152920
H49   H     H_    0.448275 0.972366 0.166514 0.197674
H50   H     H_    0.641360 0.945034 0.860235 0.215868
H51   H     H_    0.363432 0.947865 0.142479 0.217128
H52   H     H_    0.559228 0.971179 0.834615 0.197429
H53   H     H_    0.948276 0.472366 0.166515 0.197674
H54   H     H_    0.141308 0.445066 0.860205 0.215873
H55   H     H_    0.863433 0.447865 0.142480 0.217129
H56   H     H_    0.059143 0.471193 0.834604 0.197426
H57   H     H_    0.948275 0.972366 0.666515 0.197674
H58   H     H_    0.141337 0.945048 0.360222 0.215871
H59   H     H_    0.863433 0.947865 0.642479 0.217129
H60   H     H_    0.059191 0.971185 0.334610 0.197429
H61   H     H_    0.448275 0.472366 0.666514 0.197673
H62   H     H_    0.641357 0.445036 0.360234 0.215868
H63   H     H_    0.363432 0.447865 0.642479 0.217128
H64   H     H_    0.559223 0.471179 0.334614 0.197428
H65   H     H_    0.448893 0.916984 0.222413 0.207406
H66   H     H_    0.639738 0.888897 0.804491 0.196210
H67   H     H_    0.364974 0.891709 0.198163 0.196724
H68   H     H_    0.558612 0.915832 0.778664 0.208244
H69   H     H_    0.948895 0.416984 0.222413 0.207406
H70   H     H_    0.139686 0.388930 0.804460 0.196210
H71   H     H_    0.864976 0.391709 0.198164 0.196725
H72   H     H_    0.058527 0.415847 0.778652 0.208239
H73   H     H_    0.948894 0.916984 0.722413 0.207406
H74   H     H_    0.139716 0.888912 0.304477 0.196209
H75   H     H_    0.864975 0.891709 0.698164 0.196725
H76   H     H_    0.058575 0.915838 0.278659 0.208242
H77   H     H_    0.448893 0.416984 0.722413 0.207406
H78   H     H_    0.639735 0.388899 0.304489 0.196209
H79   H     H_    0.364974 0.391709 0.698164 0.196724
H80   H     H_    0.558608 0.415833 0.278664 0.208244
O1    O     O_R   0.500000 0.731000 0.321180 -0.587855
O2    O     O_R   0.500000 0.731000 0.678820 -0.588504
O3    O     O_R   0.000000 0.231000 0.321180 -0.587855
O4    O     O_R   0.000000 0.231000 0.678820 -0.588504
O5    O     O_R   0.000000 0.731000 0.821180 -0.587855
O6    O     O_R   1.000000 0.731000 0.178820 -0.588504
O7    O     O_R   0.500000 0.231000 0.821180 -0.587854
O8    O     O_R   0.500000 0.231000 0.178820 -0.588504
O9    O     O_R   0.500000 0.678810 0.268980 -0.596036
O10   O     O_R   0.500000 0.678810 0.731020 -0.584734
O11   O     O_R   0.000000 0.178810 0.268980 -0.596036
O12   O     O_R   0.000000 0.178810 0.731020 -0.584734
O13   O     O_R   0.000000 0.678810 0.768980 -0.596036
O14   O     O_R   1.000000 0.678810 0.231020 -0.584734
O15   O     O_R   0.500000 0.178810 0.768980 -0.596036
O16   O     O_R   0.500000 0.178810 0.231020 -0.584734
O17   O     O_R   0.394200 0.776090 0.276090 -0.584912
O18   O     O_R   0.394200 0.776090 0.723910 -0.579797
O19   O     O_R   0.605800 0.776090 0.276090 -0.583034
O20   O     O_R   0.605800 0.776090 0.723910 -0.584696
O21   O     O_R   0.894200 0.276090 0.276090 -0.584912
O22   O     O_R   0.894200 0.276090 0.723910 -0.579798
O23   O     O_R   0.105800 0.276090 0.276090 -0.583035
O24   O     O_R   0.105800 0.276090 0.723910 -0.584696
O25   O     O_R   0.894200 0.776090 0.776090 -0.584912
O26   O     O_R   0.894200 0.776090 0.223910 -0.579797
O27   O     O_R   0.105800 0.776090 0.776090 -0.583035
O28   O     O_R   0.105800 0.776090 0.223910 -0.584696
O29   O     O_R   0.394200 0.276090 0.776090 -0.584911
O30   O     O_R   0.394200 0.276090 0.223910 -0.579797
O31   O     O_R   0.605800 0.276090 0.776090 -0.583034
O32   O     O_R   0.605800 0.276090 0.223910 -0.584696
O33   O     O_R   0.394210 0.723900 0.223890 -0.578825
O34   O     O_R   0.394210 0.723900 0.776110 -0.587517
O35   O     O_R   0.605790 0.723900 0.223890 -0.587623
O36   O     O_R   0.605790 0.723900 0.776110 -0.579858
O37   O     O_R   0.894210 0.223900 0.223890 -0.578825
O38   O     O_R   0.894210 0.223900 0.776110 -0.587516
O39   O     O_R   0.105790 0.223900 0.223890 -0.587623
O40   O     O_R   0.105790 0.223900 0.776110 -0.579857
O41   O     O_R   0.894210 0.723900 0.723890 -0.578825
O42   O     O_R   0.894210 0.723900 0.276110 -0.587517
O43   O     O_R   0.105790 0.723900 0.723890 -0.587623
O44   O     O_R   0.105790 0.723900 0.276110 -0.579857
O45   O     O_R   0.394210 0.223900 0.723890 -0.578825
O46   O     O_R   0.394210 0.223900 0.276110 -0.587517
O47   O     O_R   0.605790 0.223900 0.723890 -0.587623
O48   O     O_R   0.605790 0.223900 0.276110 -0.579858
O49   O     O_R   0.500000 0.821170 0.231010 -0.585851
O50   O     O_R   0.500000 0.821170 0.768990 -0.585403
O51   O     O_R   0.000000 0.321170 0.231010 -0.585851
O52   O     O_R   0.000000 0.321170 0.768990 -0.585406
O53   O     O_R   0.000000 0.821170 0.731010 -0.585851
O54   O     O_R   0.000000 0.821170 0.268990 -0.585405
O55   O     O_R   0.500000 0.321170 0.731010 -0.585851
O56   O     O_R   0.500000 0.321170 0.268990 -0.585403
O57   O     O_R   0.500000 0.768980 0.178810 -0.588317
O58   O     O_R   0.500000 0.768980 0.821190 -0.587529
O59   O     O_R   1.000000 0.268980 0.178810 -0.588317
O60   O     O_R   0.000000 0.268980 0.821190 -0.587534
O61   O     O_R   0.000000 0.768980 0.678810 -0.588317
O62   O     O_R   0.000000 0.768980 0.321190 -0.587531
O63   O     O_R   0.500000 0.268980 0.678810 -0.588317
O64   O     O_R   0.500000 0.268980 0.321190 -0.587530
O65   O     O_R   0.438730 0.954890 0.954890 -0.585185
O66   O     O_R   0.438730 0.954890 0.045110 -0.588947
O67   O     O_R   0.561270 0.954890 0.954890 -0.589067
O68   O     O_R   0.561270 0.954890 0.045110 -0.584849
O69   O     O_R   0.938730 0.454890 0.954890 -0.585181
O70   O     O_R   0.938730 0.454890 0.045110 -0.588946
O71   O     O_R   0.061270 0.454890 0.954890 -0.589066
O72   O     O_R   0.061270 0.454890 0.045110 -0.584848
O73   O     O_R   0.938730 0.954890 0.454890 -0.585183
O74   O     O_R   0.938730 0.954890 0.545110 -0.588946
O75   O     O_R   0.061270 0.954890 0.454890 -0.589067
O76   O     O_R   0.061270 0.954890 0.545110 -0.584849
O77   O     O_R   0.438730 0.454890 0.454890 -0.585185
O78   O     O_R   0.438730 0.454890 0.545110 -0.588947
O79   O     O_R   0.561270 0.454890 0.454890 -0.589067
O80   O     O_R   0.561270 0.454890 0.545110 -0.584850
O81   O     O_R   0.438760 0.545060 0.454900 -0.579347
O82   O     O_R   0.438760 0.545060 0.545100 -0.571571
O83   O     O_R   0.561240 0.545060 0.454900 -0.568168
O84   O     O_R   0.561240 0.545060 0.545100 -0.577999
O85   O     O_R   0.938760 0.045060 0.454900 -0.579347
O86   O     O_R   0.938760 0.045060 0.545100 -0.571571
O87   O     O_R   0.061240 0.045060 0.454900 -0.568168
O88   O     O_R   0.061240 0.045060 0.545100 -0.577999
O89   O     O_R   0.938760 0.545060 0.954900 -0.579348
O90   O     O_R   0.938760 0.545060 0.045100 -0.571571
O91   O     O_R   0.061240 0.545060 0.954900 -0.568167
O92   O     O_R   0.061240 0.545060 0.045100 -0.577998
O93   O     O_R   0.438760 0.045060 0.954900 -0.579346
O94   O     O_R   0.438760 0.045060 0.045100 -0.571571
O95   O     O_R   0.561240 0.045060 0.954900 -0.568168
O96   O     O_R   0.561240 0.045060 0.045100 -0.577999
C193  C     C_3   0.627379 0.628490 0.312062 -0.359230
C194  C     C_3   0.680231 0.662829 0.329087 -0.811869
H81   H     H_    0.727954 0.665070 0.307072 0.241472
H82   H     H_    0.653612 0.695235 0.330682 0.240049
H83   H     H_    0.699663 0.653721 0.362013 0.268284
H84   H     H_    0.657269 0.597190 0.309349 0.247256
H85   H     H_    0.610963 0.636571 0.278409 0.205891
C195  C     C_3   0.376119 0.626454 0.690022 -0.323709
C196  C     C_3   0.384749 0.594943 0.728022 -0.753624
H86   H     H_    0.435423 0.602131 0.746325 0.253464
H87   H     H_    0.337661 0.598431 0.750362 0.227152
H88   H     H_    0.386716 0.560765 0.716334 0.267365
H89   H     H_    0.368670 0.659886 0.702944 0.172992
H90   H     H_    0.324990 0.618844 0.672259 0.227536
C197  C     C_3   0.127377 0.128488 0.312060 -0.359228
C198  C     C_3   0.180231 0.162826 0.329084 -0.811869
H91   H     H_    0.227953 0.165066 0.307068 0.241472
H92   H     H_    0.153613 0.195233 0.330679 0.240047
H93   H     H_    0.199664 0.153719 0.362009 0.268283
H94   H     H_    0.157266 0.097187 0.309347 0.247257
H95   H     H_    0.110960 0.136569 0.278407 0.205893
C199  C     C_3   0.876120 0.126453 0.690023 -0.323708
C200  C     C_3   0.884751 0.094943 0.728023 -0.753623
H96   H     H_    0.935424 0.102131 0.746325 0.253464
H97   H     H_    0.837662 0.098430 0.750362 0.227152
H98   H     H_    0.886718 0.060764 0.716335 0.267365
H99   H     H_    0.868671 0.159885 0.702944 0.172992
H100  H     H_    0.824991 0.118843 0.672259 0.227536
C201  C     C_3   0.127379 0.628490 0.812062 -0.359231
C202  C     C_3   0.180230 0.662829 0.829087 -0.811871
H101  H     H_    0.227954 0.665069 0.807072 0.241473
H102  H     H_    0.153611 0.695235 0.830681 0.240049
H103  H     H_    0.199661 0.653722 0.862013 0.268284
H104  H     H_    0.157270 0.597190 0.809349 0.247257
H105  H     H_    0.110963 0.636571 0.778409 0.205892
C203  C     C_3   0.876120 0.626453 0.190023 -0.323708
C204  C     C_3   0.884751 0.594942 0.228023 -0.753621
H106  H     H_    0.935425 0.602131 0.246325 0.253463
H107  H     H_    0.837663 0.598430 0.250363 0.227151
H108  H     H_    0.886718 0.560764 0.216335 0.267365
H109  H     H_    0.868671 0.659885 0.202945 0.172992
H110  H     H_    0.824991 0.618843 0.172260 0.227536
C205  C     C_3   0.627378 0.128489 0.812061 -0.359230
C206  C     C_3   0.680231 0.162828 0.829085 -0.811868
H111  H     H_    0.727953 0.165068 0.807070 0.241472
H112  H     H_    0.653612 0.195234 0.830680 0.240049
H113  H     H_    0.699663 0.153720 0.862011 0.268284
H114  H     H_    0.657268 0.097188 0.809348 0.247256
H115  H     H_    0.610962 0.136570 0.778408 0.205892
C207  C     C_3   0.376120 0.126453 0.190023 -0.323707
C208  C     C_3   0.384751 0.094943 0.228023 -0.753624
H116  H     H_    0.435424 0.102131 0.246325 0.253464
H117  H     H_    0.337662 0.098430 0.250362 0.227152
H118  H     H_    0.386717 0.060765 0.216335 0.267365
H119  H     H_    0.368671 0.159885 0.202944 0.172992
H120  H     H_    0.324991 0.118843 0.172259 0.227536
O97   O     O_3   0.612165 0.558597 0.371107 -0.733594
H121  H     H_    0.591715 0.530623 0.381292 0.323790
O98   O     O_3   0.390046 0.557736 0.630429 -0.732037
H122  H     H_    0.410010 0.530162 0.618912 0.324323
O99   O     O_3   0.112162 0.058596 0.371105 -0.733595
H123  H     H_    0.091712 0.030622 0.381291 0.323791
O100  O     O_3   0.890047 0.057736 0.630429 -0.732038
H124  H     H_    0.910011 0.030162 0.618912 0.324324
O101  O     O_3   0.112164 0.558597 0.871106 -0.733593
H125  H     H_    0.091714 0.530623 0.881291 0.323792
O102  O     O_3   0.890047 0.557736 0.130429 -0.732038
H126  H     H_    0.910011 0.530162 0.118912 0.324324
O103  O     O_3   0.612163 0.058597 0.871106 -0.733595
H127  H     H_    0.591713 0.030622 0.881292 0.323789
O104  O     O_3   0.390047 0.057736 0.130429 -0.732038
H128  H     H_    0.410011 0.030162 0.118912 0.324323

loop_
_geom_bond_atom_site_label_1
_geom_bond_atom_site_label_2
_ccdc_geom_bond_type
Cu23  O82   S    
C81   H49   S    
O102  H126  S    
C8    O8    A    
C93   O21   A    
Cu6   Cu14  S    
C135  O55   A    
O101  H125  S    
C123  O87   A    
C34   C42   A    
C95   O23   A    
C31   H31   S    
C10   C154  A    
C92   O20   A    
Cu16  O48   S    
C61   C69   A    
Cu6   O6    S    
C158  C166  A    
C32   H32   S    
C39   C47   A    
C86   C110  S    
C12   C156  A    
Cu2   O18   S    
Cu3   O23   S    
Cu3   Cu11  S    
Cu4   O24   S    
C70   C117  S    
C122  O84   A    
Cu8   O56   S    
Cu1   Cu9   S    
C62   C70   A    
C124  O86   A    
C13   C157  A    
Cu21  O74   S    
C99   C147  S    
C8    C168  S    
C90   C138  S    
C127  O93   A    
Cu10  O10   S    
C105  H65   S    
Cu4   Cu12  S    
C120  O80   A    
C37   C109  S    
C17   H3    S    
Cu24  O84   S    
C39   C111  S    
C193  H85   S    
Cu8   Cu16  S    
C103  O31   A    
C79   C87   S    
Cu1   O49   S    
Cu20  O72   S    
C97   O41   A    
C73   C81   S    
C170  C195  S    
C21   H11   S    
C166  C174  A    
C96   O40   A    
O104  H128  S    
C34   C106  S    
C171  C197  S    
Cu6   O28   S    
C38   C78   A    
Cu3   O3    S    
C21   C29   S    
C153  C161  A    
C134  O54   A    
C23   C31   S    
C142  C151  T    
Cu23  Cu24  S    
C24   C32   S    
C195  H89   S    
C46   C134  S    
C92   O36   A    
C12   C20   S    
C20   H8    S    
C13   C21   S    
Cu9   O35   S    
Cu15  O63   S    
Cu21  O86   S    
C180  C188  A    
C33   C73   A    
C63   C71   A    
Cu17  O65   S    
C36   C44   A    
C44   C132  S    
C37   C45   A    
C154  C162  A    
C206  H111  S    
C175  C183  A    
C26   H20   S    
C201  H104  S    
C40   C48   A    
C15   C191  A    
C173  C201  S    
C91   O35   A    
Cu22  O75   S    
C14   C158  A    
Cu20  O92   S    
C140  C145  T    
C172  C199  S    
Cu3   O21   S    
C84   H54   S    
C45   C133  S    
C122  O82   A    
C193  C194  S    
C85   C109  S    
C124  O88   A    
C17   C25   S    
C104  C152  S    
C43   C131  S    
C61   H45   S    
Cu17  O94   S    
C80   C88   S    
C98   O42   A    
C60   H44   S    
C56   C64   A    
C10   C18   S    
C57   H41   S    
C105  H67   S    
C55   H39   S    
C106  H68   S    
C160  C168  A    
C207  H120  S    
C208  H117  S    
C35   C107  S    
C194  H81   S    
C178  C186  A    
C116  O70   A    
C87   C111  S    
Cu18  O95   S    
C182  C190  A    
C128  C192  S    
C5    O5    A    
C23   H15   S    
C7    O7    A    
C201  C202  S    
C66   C113  S    
Cu12  O60   S    
C136  O64   A    
C69   C77   A    
C137  C148  T    
C169  C193  S    
C48   C56   A    
Cu6   O26   S    
C18   H4    S    
C96   O24   A    
C71   C79   A    
C196  H86   S    
C40   C112  S    
O103  H127  S    
C58   H42   S    
Cu4   O52   S    
C6    O14   A    
C134  O62   A    
C122  C186  S    
C22   H12   S    
C40   C80   A    
C66   C74   A    
C131  O59   A    
C49   C57   A    
C126  C190  S    
C52   C60   A    
C59   C67   A    
Cu11  O39   S    
C159  C167  A    
C55   C63   A    
C200  H97   S    
Cu14  O62   S    
Cu11  O11   S    
C50   H34   S    
C206  H113  S    
C199  H100  S    
C93   O37   A    
C26   H18   S    
C132  O60   A    
C77   C85   S    
Cu10  O58   S    
C180  O100  S    
C30   H28   S    
C113  O65   A    
C54   H38   S    
C171  C179  A    
Cu10  O36   S    
Cu16  O64   S    
C169  C177  A    
Cu6   O54   S    
Cu12  O38   S    
Cu23  O77   S    
C81   C105  S    
C111  H79   S    
C94   C142  S    
C118  O74   A    
C108  H70   S    
C131  O51   A    
C157  C165  A    
C124  C188  S    
C155  C163  A    
C1    O9    A    
C127  C191  S    
C106  H66   S    
C107  H71   S    
C67   C116  S    
C108  H72   S    
Cu18  O68   S    
Cu24  O80   S    
C116  O72   A    
Cu20  O91   S    
C8    O16   A    
Cu17  Cu18  S    
C135  O63   A    
C52   H36   S    
C23   H13   S    
C42   C50   A    
C5    O13   A    
C174  C203  S    
C56   H40   S    
C202  H101  S    
C164  C172  A    
C67   C75   A    
C18   H2    S    
C196  H88   S    
C203  C204  S    
C167  C175  A    
C204  H108  S    
Cu23  O81   S    
C7    C167  S    
C22   C30   S    
C47   C135  S    
C48   C136  S    
C127  O95   A    
C195  C196  S    
C22   H10   S    
C3    C163  S    
C68   C76   A    
C4    O4    A    
C94   O38   A    
Cu13  O41   S    
C112  H78   S    
C14   C22   S    
Cu11  O59   S    
Cu19  O70   S    
C72   C80   A    
Cu11  O37   S    
C89   O17   A    
C10   C186  A    
Cu15  O15   S    
Cu16  O16   S    
C38   C46   A    
C173  C181  A    
O98   H122  S    
C14   C190  A    
C99   O27   A    
C202  H103  S    
O97   H121  S    
C30   H26   S    
C113  O67   A    
C119  O79   A    
C175  C205  S    
C179  O99   S    
C207  C208  S    
C88   H62   S    
Cu12  O40   S    
C141  C152  T    
Cu1   O1    S    
C203  H109  S    
C193  H84   S    
C6    C166  S    
C139  C146  T    
C95   C143  S    
C111  H77   S    
Cu5   Cu13  S    
C18   C26   S    
C76   C84   S    
C27   H23   S    
C109  H73   S    
Cu21  Cu22  S    
C11   C19   S    
C120  O78   A    
C1    O1    A    
C107  H69   S    
C24   H14   S    
C179  C187  A    
C203  H110  S    
Cu2   Cu10  S    
C69   C118  S    
C177  C185  A    
Cu19  O90   S    
C168  C176  A    
C41   C49   A    
C195  H90   S    
C6    O6    A    
C28   H22   S    
C181  C189  A    
C181  O101  S    
C174  C182  A    
C132  O52   A    
C117  O73   A    
C89   O33   A    
C184  C192  A    
C176  C207  S    
C38   C110  S    
C163  C171  A    
C178  O98   S    
Cu21  O85   S    
C103  C151  S    
C49   H33   S    
C172  C180  A    
C47   C55   A    
C1    C161  S    
O100  H124  S    
Cu2   O50   S    
Cu10  O34   S    
C59   H43   S    
C53   H37   S    
C74   C82   S    
Cu21  O73   S    
C206  H112  S    
C27   C155  S    
C125  C189  S    
Cu13  O43   S    
C25   C153  S    
Cu1   O19   S    
C50   C58   A    
C125  O89   A    
C33   C105  S    
Cu22  O76   S    
Cu7   Cu15  S    
C176  C184  A    
C29   C157  S    
C54   C62   A    
C204  H106  S    
C37   C77   A    
C45   C53   A    
C85   H59   S    
C101  O45   A    
C112  H80   S    
C15   C159  A    
Cu19  Cu20  S    
C162  C170  A    
C7    O15   A    
C102  O30   A    
C46   C54   A    
C119  O77   A    
C19   H7    S    
C82   H50   S    
C87   H63   S    
C115  O71   A    
C88   H64   S    
C177  O97   S    
C102  C150  S    
Cu24  O83   S    
C91   C139  S    
C89   C137  S    
C100  O28   A    
Cu18  O96   S    
C199  C200  S    
C97   C145  S    
Cu20  O71   S    
C92   C140  S    
C197  H95   S    
C93   C141  S    
C27   H21   S    
C205  H114  S    
C109  H75   S    
C110  H76   S    
C114  O68   A    
C2    O10   A    
C57   C65   A    
C51   H35   S    
C90   O34   A    
C194  H83   S    
C63   H47   S    
Cu13  O13   S    
C64   H48   S    
Cu7   O31   S    
C20   C28   S    
C121  O81   A    
C24   H16   S    
Cu9   O9    S    
Cu3   O51   S    
C99   O43   A    
C28   H24   S    
C156  C164  A    
C75   C83   S    
Cu5   O5    S    
C43   C51   A    
C117  O75   A    
C84   C108  S    
Cu7   O7    S    
Cu8   O8    S    
Cu1   O17   S    
C68   C115  S    
Cu8   O30   S    
C88   C112  S    
C198  H91   S    
C60   C68   A    
Cu17  O66   S    
C102  O46   A    
C86   H60   S    
C170  C178  A    
C201  H105  S    
C133  O53   A    
C128  O94   A    
C70   C78   A    
C65   C114  S    
C125  O91   A    
C19   H5    S    
C126  O92   A    
C35   C43   A    
C62   H46   S    
Cu5   O25   S    
C65   C73   A    
Cu17  O93   S    
C35   C75   A    
C71   C120  S    
C11   C187  A    
C86   H58   S    
C9    C185  A    
C95   O39   A    
C183  O103  S    
C96   C144  S    
C165  C173  A    
C12   C188  A    
Cu14  O44   S    
C13   C189  A    
C130  O58   A    
C115  O69   A    
C87   H61   S    
C101  C149  S    
C207  H119  S    
C83   H53   S    
C208  H118  S    
C36   C76   A    
C4    O12   A    
Cu2   O2    S    
C143  C150  T    
C82   C106  S    
C85   H57   S    
C197  C198  S    
C4    C164  S    
C5    C165  S    
C16   C192  A    
Cu13  O61   S    
C136  O56   A    
C78   C86   S    
Cu15  O47   S    
C110  H74   S    
C25   H17   S    
C16   C24   S    
C202  H102  S    
C90   O18   A    
C53   C61   A    
C2    O2    A    
C19   C27   S    
C196  H87   S    
Cu7   O55   S    
C58   C66   A    
Cu7   O29   S    
Cu5   O53   S    
C204  H107  S    
C29   H27   S    
C101  O29   A    
C121  O83   A    
C36   C108  S    
C84   H56   S    
C103  O47   A    
C33   C41   A    
C97   O25   A    
C130  O50   A    
C91   O19   A    
Cu16  O46   S    
C98   C146  S    
C9    C153  A    
C182  O102  S    
C32   H30   S    
C83   H55   S    
Cu19  O69   S    
C144  C149  T    
Cu2   O20   S    
Cu8   O32   S    
C104  O32   A    
C200  H96   S    
C198  H93   S    
Cu4   O22   S    
C138  C147  T    
C3    O3    A    
C94   O22   A    
C3    O11   A    
C200  H98   S    
C42   C130  S    
C197  H94   S    
C25   H19   S    
C39   C79   A    
C184  O104  S    
C194  H82   S    
C199  H99   S    
C9    C17   S    
C118  O76   A    
C128  O96   A    
C133  O61   A    
C26   C154  S    
C51   C59   A    
C126  O90   A    
Cu22  O88   S    
C100  O44   A    
Cu5   O27   S    
C17   H1    S    
C104  O48   A    
Cu23  O78   S    
C81   H51   S    
C129  O57   A    
C30   C158  S    
C20   H6    S    
C198  H92   S    
Cu12  O12   S    
C183  C191  A    
C82   H52   S    
Cu9   O57   S    
C205  H115  S    
C11   C155  A    
C21   H9    S    
Cu14  O42   S    
Cu22  O87   S    
C161  C169  A    
C208  H116  S    
Cu18  O67   S    
Cu24  O79   S    
C41   C129  S    
Cu4   O4    S    
C44   C52   A    
C100  C148  S    
C72   C119  S    
C15   C23   S    
C83   C107  S    
Cu19  O89   S    
C64   C72   A    
C123  C187  S    
O99   H123  S    
C123  O85   A    
C121  C185  S    
C205  C206  S    
C34   C74   A    
Cu15  O45   S    
C16   C160  A    
C98   O26   A    
C114  O66   A    
C28   C156  S    
C29   H25   S    
C31   H29   S    
C129  O49   A    
C32   C160  S    
Cu9   O33   S    
C31   C159  S    
C2    C162  S    
Cu14  O14   S    
