data_mof_unit_33150.cif
_audit_creation_date              2013-03-05T16:14:04-0500
_audit_creation_method            fapswitch 2.2
_symmetry_space_group_name_H-M    P1
_symmetry_Int_Tables_number       1
_space_group_crystal_system       triclinic
_cell_length_a                    9.836647
_cell_length_b                    10.663986
_cell_length_c                    16.81425
_cell_angle_alpha                 89.136572
_cell_angle_beta                  95.680479
_cell_angle_gamma                 90.352937
_cell_volume                      1754.89904079

loop_
_atom_site_label
_atom_site_type_symbol
_atom_site_description
_atom_site_fract_x
_atom_site_fract_y
_atom_site_fract_z
_atom_type_partial_charge
O1    O     O_R   0.614620 0.316750 0.500010 -0.570085
O2    O     O_R   0.385380 0.683250 0.499990 -0.570074
O3    O     O_R   0.385290 0.316780 0.500000 -0.638818
O4    O     O_R   0.614710 0.683220 0.500000 -0.638814
C1    C     C_R   0.499939 0.260117 0.502589 0.978338
C2    C     C_R   0.500061 0.739883 0.497415 0.978206
O5    O     O_R   0.627460 0.498830 0.616130 -0.617269
O6    O     O_R   0.372540 0.501170 0.383870 -0.617312
O7    O     O_R   0.398130 0.498850 0.616130 -0.593310
O8    O     O_R   0.601870 0.501150 0.383870 -0.593309
C3    C     C_R   0.519293 0.503541 0.653257 0.982502
C4    C     C_R   0.480706 0.496463 0.346743 0.982424
Zn1   Zn    Zn3+2 0.653130 0.499980 0.500000 1.042534
Zn2   Zn    Zn3+2 0.346870 0.500020 0.500000 1.042541
C5    C     C_R   0.535383 0.516744 0.739391 -0.221570
C6    C     C_R   0.464617 0.483278 0.260608 -0.221557
C7    C     C_R   0.440710 0.585397 0.778624 0.271723
C8    C     C_R   0.559285 0.414627 0.221370 0.271741
C9    C     C_R   0.452308 0.583586 0.861487 -0.207741
C10   C     C_R   0.547690 0.416457 0.138507 -0.207755
C11   C     C_R   0.557933 0.516570 0.905548 0.168886
C12   C     C_R   0.442074 0.483492 0.094451 0.168886
C13   C     C_R   0.660946 0.459593 0.866456 0.296806
C14   C     C_R   0.339067 0.540470 0.133546 0.296823
C15   C     C_R   0.647257 0.459006 0.783086 -0.248515
C16   C     C_R   0.352753 0.541036 0.216917 -0.248566
N1    N     N_2   0.558489 0.501179 0.988811 -0.101324
N2    N     N_2   0.441518 0.498890 0.011189 -0.101327
H1    H     H_    0.621559 0.365498 0.107973 0.233458
H2    H     H_    0.378434 0.634545 0.892017 0.233463
H3    H     H_    0.722635 0.411071 0.752023 0.242546
H4    H     H_    0.277380 0.588973 0.247984 0.242536
C17   C     C_R   0.399751 0.067834 0.453224 -0.227331
C18   C     C_R   0.600236 0.932162 0.546806 -0.227286
H5    H     H_    0.325558 0.121980 0.415169 0.208328
H6    H     H_    0.674414 0.878004 0.584862 0.208390
C19   C     C_R   0.400773 0.939218 0.447103 0.332197
C20   C     C_R   0.599206 0.060781 0.552938 0.332092
C21   C     C_R   0.501221 0.872394 0.495338 -0.191499
C22   C     C_R   0.498777 0.127606 0.504683 -0.191485
C23   C     C_R   0.063833 0.576801 0.448897 -0.011452
C24   C     C_R   0.936167 0.423198 0.551103 -0.011532
C25   C     C_R   0.919916 0.576796 0.448935 -0.008268
C26   C     C_R   0.080084 0.423204 0.551065 -0.008298
N3    N     N_R   0.857210 0.499970 0.500020 -0.103537
N4    N     N_R   0.142790 0.500030 0.499980 -0.103544
N5    N     N_R   0.664551 0.340196 0.264280 0.229680
O9    O     O_R   0.635153 0.265898 0.322316 -0.373587
O10   O     O_R   0.783695 0.331123 0.237458 -0.317397
N6    N     N_R   0.335435 0.659811 0.735709 0.229682
O11   O     O_R   0.364825 0.734106 0.677670 -0.373568
O12   O     O_R   0.216288 0.668874 0.762529 -0.317380
N7    N     N_R   0.775648 0.397582 0.910236 0.237991
O13   O     O_R   0.847090 0.316596 0.875071 -0.300856
O14   O     O_R   0.816217 0.428197 0.983429 -0.295436
N8    N     N_R   0.224373 0.602500 0.089771 0.237993
O15   O     O_R   0.152939 0.683484 0.124943 -0.300864
O16   O     O_R   0.183803 0.571905 0.016575 -0.295438
N9    N     N_R   0.304429 0.878978 0.389776 0.214537
O17   O     O_R   0.182232 0.924691 0.373698 -0.342378
O18   O     O_R   0.344192 0.790084 0.345376 -0.410446
N10   N     N_R   0.695490 0.121013 0.610309 0.214548
O19   O     O_R   0.817521 0.075073 0.626621 -0.342243
O20   O     O_R   0.655727 0.210064 0.654584 -0.410534
H7    H     H_    0.111899 0.638127 0.408037 0.182899
H8    H     H_    0.888101 0.361872 0.591962 0.182848
H9    H     H_    0.858859 0.638210 0.408126 0.158556
H10   H     H_    0.141141 0.361789 0.591874 0.158548

loop_
_geom_bond_atom_site_label_1
_geom_bond_atom_site_label_2
_geom_bond_distance
_ccdc_geom_bond_type
C7    N6    1.437958 S    
C15   H3    1.083177 S    
N6    O12   1.301398 A    
O7    Zn2   1.967647 S    
C16   H4    1.083178 S    
N10   O19   1.301596 A    
C19   C21   1.405171 A    
C14   N8    1.443019 S    
C23   C25   1.415717 A    
O5    C3    1.287403 A    
N5    O9    1.301296 A    
O6    C4    1.287403 A    
C23   N4    1.365947 A    
C8    N5    1.437960 S    
C11   C13   1.406928 A    
N6    O11   1.301296 A    
C11   N1    1.406617 S    
N9    O17   1.301718 A    
Zn2   N4    2.007430 S    
C20   C22   1.405223 A    
C19   N9    1.438842 S    
N7    O13   1.301715 A    
Zn1   N3    2.007430 S    
C25   N3    1.366363 A    
O7    C3    1.290587 A    
O2    C2    1.280494 A    
O3    Zn2   1.992565 S    
C24   C26   1.415717 A    
C12   N2    1.406615 S    
O6    Zn2   1.993378 S    
O1    C1    1.280498 A    
O8    C4    1.290587 A    
C6    C8    1.408182 A    
C17   H5    1.084923 S    
N8    O16   1.301414 A    
C17   C19   1.377134 A    
C13   N7    1.443018 S    
C18   H6    1.084915 S    
C10   H1    1.083510 S    
N7    O14   1.301416 A    
C6    C16   1.401622 A    
O2    Zn2   1.988050 S    
C12   C14   1.406928 A    
N9    O18   1.301029 A    
C17   C22   1.394955 A    
C26   H10   1.081750 S    
C10   C12   1.407100 A    
N10   O20   1.300984 A    
C18   C21   1.394946 A    
O3    C1    1.279356 A    
O5    Zn1   1.993378 S    
C13   C15   1.395040 A    
O1    Zn1   1.988052 S    
N8    O15   1.301716 A    
C8    C10   1.386493 A    
C25   H9    1.081750 S    
O4    C2    1.279359 A    
C1    C22   1.413001 S    
N1    N2    1.245452 D    
C24   H8    1.081751 S    
C2    C21   1.412997 S    
C7    C9    1.386492 A    
C23   H7    1.081749 S    
C5    C15   1.401623 A    
C26   N4    1.366363 A    
C9    C11   1.407100 A    
C5    C7    1.408184 A    
C9    H2    1.083510 S    
C3    C5    1.450134 S    
C24   N3    1.365948 A    
N5    O10   1.301398 A    
C4    C6    1.450127 S    
O4    Zn1   1.992562 S    
C14   C16   1.395041 A    
C20   N10   1.438900 S    
O8    Zn1   1.967647 S    
C18   C20   1.377191 A    
