data_mof_unit_35758.cif
_audit_creation_date              2012-12-10T16:58:27-0500
_audit_creation_method            fapswitch 2.2
_symmetry_space_group_name_H-M    P1
_symmetry_Int_Tables_number       1
_space_group_crystal_system       triclinic
_cell_length_a                    7.85388
_cell_length_b                    8.578124
_cell_length_c                    23.419794
_cell_angle_alpha                 92.765329
_cell_angle_beta                  84.479386
_cell_angle_gamma                 94.025814
_cell_volume                      1565.26582039

loop_
_atom_site_label
_atom_site_type_symbol
_atom_type_description
_atom_site_fract_x
_atom_site_fract_y
_atom_site_fract_z
_atom_type_partial_charge
C1    C     C_R   0.545666 0.794473 0.498571 0.954934
C2    C     C_R   0.454334 0.205527 0.501429 0.954932
C3    C     C_R   0.351547 0.462733 0.766168 0.436744
C4    C     C_R   0.648438 0.537250 0.233830 0.436744
C5    C     C_R   0.350562 0.461079 0.706871 -0.213062
C6    C     C_R   0.649431 0.538907 0.293127 -0.213056
C7    C     C_R   0.500644 0.504412 0.672508 -0.176633
C8    C     C_R   0.499352 0.495577 0.327492 -0.176632
C9    C     C_R   0.651112 0.552399 0.697746 -0.226601
C10   C     C_R   0.348880 0.447588 0.302257 -0.226603
C11   C     C_R   0.652311 0.557755 0.756996 0.431691
C12   C     C_R   0.347671 0.442233 0.243007 0.431694
C13   C     C_R   0.502788 0.511187 0.791464 0.091302
C14   C     C_R   0.497191 0.488800 0.208537 0.091298
C15   C     C_2   0.569377 0.958291 0.497731 -0.332105
C16   C     C_2   0.430623 0.041709 0.502269 -0.332105
C17   C     C_R   0.500130 0.500948 0.610405 0.920464
C18   C     C_R   0.499870 0.499049 0.389595 0.920464
C19   C     C_R   0.479749 0.353254 0.116394 0.621020
C20   C     C_R   0.520224 0.646731 0.883607 0.621019
C21   C     C_R   0.509270 0.632884 0.122478 0.620199
C22   C     C_R   0.490700 0.367102 0.877523 0.620198
C23   C     C_R   0.517771 0.638861 0.062867 -0.025372
C24   C     C_R   0.482199 0.361124 0.937135 -0.025375
C25   C     C_R   0.498347 0.498232 0.029992 -0.009919
C26   C     C_R   0.501624 0.501753 0.970010 -0.009920
C27   C     C_R   0.475688 0.354112 0.056932 -0.026566
C28   C     C_R   0.524283 0.645873 0.943070 -0.026566
C29   C     C_R   0.546769 0.781318 0.035516 -0.124408
C30   C     C_R   0.453201 0.218667 0.964485 -0.124407
C31   C     C_R   0.550168 0.784796 0.976067 -0.141177
C32   C     C_R   0.449803 0.215189 0.023935 -0.141177
H1    H     H_    0.569369 0.889702 0.059992 0.201428
H2    H     H_    0.430600 0.110283 0.940010 0.201428
H3    H     H_    0.575420 0.895827 0.955993 0.185238
H4    H     H_    0.424552 0.104158 0.044009 0.185237
H5    H     H_    0.233629 0.423256 0.687674 0.212950
H6    H     H_    0.766367 0.576730 0.312322 0.212952
H7    H     H_    0.767303 0.587486 0.671590 0.226841
H8    H     H_    0.232692 0.412502 0.328414 0.226843
H9    H     H_    0.700339 0.009681 0.493388 0.213272
H10   H     H_    0.299661 0.990319 0.506612 0.213271
N1    N     N_R   0.494498 0.491478 0.147763 -0.337797
N2    N     N_R   0.505474 0.508508 0.852239 -0.337797
N3    N     N_2   0.950330 0.457950 0.484560 0.076679
N4    N     N_2   0.049670 0.542050 0.515440 0.076679
O1    O     O_R   0.389250 0.738570 0.503790 -0.601178
O2    O     O_R   0.610750 0.261430 0.496210 -0.601178
O3    O     O_R   0.678390 0.711620 0.493890 -0.592196
O4    O     O_R   0.321610 0.288380 0.506110 -0.592197
O5    O     O_R   0.355400 0.513520 0.588790 -0.603982
O6    O     O_R   0.644600 0.486480 0.411210 -0.603981
O7    O     O_R   0.644550 0.486570 0.578900 -0.599166
O8    O     O_R   0.355450 0.513430 0.421100 -0.599169
O9    O     O_2   0.470069 0.215946 0.142739 -0.479567
O10   O     O_2   0.529907 0.784040 0.857262 -0.479566
O11   O     O_2   0.516269 0.766927 0.155100 -0.474639
O12   O     O_2   0.483701 0.233060 0.844901 -0.474635
Zn1   Zn    Zn3+2 0.306930 0.518000 0.506610 1.075007
Zn2   Zn    Zn3+2 0.693070 0.482000 0.493390 1.075009
Cl1   Cl    Cl    0.162608 0.401509 0.807949 -0.465421
Cl2   Cl    Cl    0.837374 0.598465 0.192046 -0.465427
Cl3   Cl    Cl    0.843120 0.622497 0.786806 -0.459728
Cl4   Cl    Cl    0.156858 0.377491 0.213200 -0.459729
Br1   Br    Br    0.037454 0.296932 0.435616 -0.378252
Br2   Br    Br    0.962545 0.703064 0.564386 -0.378248

loop_
_geom_bond_atom_site_label_1
_geom_bond_atom_site_label_2
_ccdc_geom_bond_type
C22   O12   S    
C6    H6    S    
N3    Zn2   S    
C21   O11   S    
C1    C15   S    
C29   H1    S    
N4    Zn1   S    
C25   C27   A    
C2    C16   S    
C26   C28   A    
C3    C13   A    
C12   C14   A    
C20   O10   S    
C4    Cl2   S    
C17   O5    A    
C21   C23   A    
C32   H4    S    
C27   C32   A    
C18   O6    A    
C29   C31   A    
N3    N4    D    
C30   C32   A    
C11   C13   A    
C24   C26   A    
C9    C11   A    
O3    Zn2   S    
C10   C12   A    
O4    Zn1   S    
C23   C29   A    
C31   H3    S    
C4    C6    A    
C20   N2    A    
O7    Zn2   S    
C19   N1    A    
O2    Zn2   S    
C8    C18   S    
C11   Cl3   S    
O8    Zn1   S    
C3    Cl1   S    
C2    O4    A    
C4    C14   A    
C12   Cl4   S    
C22   C24   A    
C24   C30   A    
O5    Zn1   S    
C5    H5    S    
C30   H2    S    
O1    Zn1   S    
C15   C16   D    
C20   C28   A    
C17   O7    A    
C9    H7    S    
C23   C25   A    
C19   C27   A    
C15   H9    S    
C10   H8    S    
C19   O9    S    
C28   C31   A    
C7    C9    A    
C18   O8    A    
C5    C7    A    
C1    O1    A    
C6    C8    A    
O6    Zn2   S    
C2    O2    A    
C25   C26   A    
C21   N1    A    
N3    Br1   S    
C1    O3    A    
C13   N2    S    
C22   N2    A    
C16   H10   S    
C8    C10   A    
C14   N1    S    
C3    C5    A    
N4    Br2   S    
C7    C17   S    
