data_mof_unit_42013.cif
_audit_creation_date              2012-12-11T14:21:04-0500
_audit_creation_method            fapswitch 2.2
_symmetry_space_group_name_H-M    P1
_symmetry_Int_Tables_number       1
_space_group_crystal_system       triclinic
_cell_length_a                    11.48333
_cell_length_b                    11.559038
_cell_length_c                    19.548036
_cell_angle_alpha                 90.596553
_cell_angle_beta                  90.292438
_cell_angle_gamma                 60.026953
_cell_volume                      2247.59286254

loop_
_atom_site_label
_atom_site_type_symbol
_atom_type_description
_atom_site_fract_x
_atom_site_fract_y
_atom_site_fract_z
_atom_type_partial_charge
C1    C     C_R   0.640908 0.117207 0.599207 0.548272
C2    C     C_1   0.652044 0.683701 0.664201 0.002930
C3    C     C_1   0.126213 0.199133 0.859205 0.010639
C4    C     C_1   0.171094 0.170542 0.727622 -0.028819
C5    C     C_1   0.149621 0.182649 0.798848 -0.027542
C6    C     C_1   0.195080 0.161007 0.667317 0.005645
C7    C     C_1   0.677824 0.191802 0.860740 0.011635
C8    C     C_1   0.658999 0.167235 0.728953 -0.028994
C9    C     C_1   0.665338 0.181334 0.800251 -0.028406
C10   C     C_1   0.653826 0.149371 0.668565 0.006729
C11   C     C_R   0.664786 0.671621 0.192904 0.024387
C12   C     C_R   0.614090 0.743372 0.598000 0.549687
C13   C     C_R   0.537070 0.723875 0.222819 -0.005503
C14   C     C_R   0.531565 0.699889 0.292208 0.050979
C15   C     C_R   0.766304 0.641678 0.304886 -0.109202
C16   C     C_R   0.779918 0.627442 0.234802 0.336595
C17   C     C_R   0.417741 0.780548 0.183401 -0.050821
C18   C     C_R   0.301782 0.787412 0.209030 -0.096446
C19   C     C_R   0.301005 0.745322 0.275111 -0.105027
C20   C     C_R   0.414919 0.699848 0.316176 0.016403
C21   C     C_R   0.642645 0.678973 0.334415 -0.044863
C22   C     C_R   0.152956 0.190084 0.190450 0.026714
C23   C     C_R   0.241046 0.145217 0.598172 0.542366
C24   C     C_R   0.200782 0.266291 0.223648 0.053121
C25   C     C_R   0.185863 0.280440 0.294889 -0.000685
C26   C     C_R   0.150665 0.089326 0.298707 -0.154104
C27   C     C_R   0.127435 0.102350 0.228720 -0.162546
C28   C     C_R   0.250982 0.338333 0.187914 0.413199
C29   C     C_R   0.260865 0.440511 0.220709 -0.024069
C30   C     C_R   0.222932 0.470447 0.288792 -0.127446
C31   C     C_R   0.180588 0.395166 0.324855 -0.069071
C32   C     C_R   0.180634 0.177383 0.332940 0.001068
C33   C     C_R   0.661603 0.186293 0.191583 -0.011046
C34   C     C_R   0.646767 0.111065 0.401996 0.587619
C35   C     C_R   0.727807 0.054705 0.216045 -0.043404
C36   C     C_R   0.755641 0.035251 0.286419 -0.095280
C37   C     C_R   0.591749 0.270207 0.307103 0.367059
C38   C     C_R   0.593574 0.293911 0.237734 0.349395
C39   C     C_R   0.782860 0.942952 0.171153 0.407927
C40   C     C_R   0.888855 0.821757 0.192557 -0.040256
C41   C     C_R   0.933520 0.807801 0.259662 -0.183155
C42   C     C_R   0.867435 0.912031 0.306558 -0.114326
C43   C     C_R   0.672581 0.141173 0.332630 -0.040663
C44   C     C_R   0.081452 0.231376 0.928526 0.545514
C45   C     C_R   0.616716 0.735526 0.403128 0.544169
C46   C     C_R   0.708922 0.546205 0.922511 0.541299
C47   C     C_R   0.707810 0.206786 0.930164 0.563861
C48   C     C_R   0.086971 0.233477 0.124048 0.605477
C49   C     C_R   0.682661 0.614241 0.124879 0.589784
C50   C     C_R   0.705140 0.210958 0.125867 0.647068
C51   C     C_R   0.240696 0.143747 0.401780 0.536782
C52   C     C_1   0.698342 0.581359 0.851728 0.006189
C53   C     C_1   0.673166 0.645215 0.722401 -0.027428
C54   C     C_1   0.688883 0.609220 0.791971 -0.026972
Cr1   Cr    Cr6+3 0.404720 0.198220 0.499960 1.065954
Cr2   Cr    Cr6+3 0.698290 0.897110 0.500380 1.023154
Cr3   Cr    Cr6+3 0.396970 0.904720 0.499610 1.028457
Cr4   Cr    Cr6+3 0.926180 0.151990 0.028120 1.055452
Cr5   Cr    Cr6+3 0.921330 0.451820 0.027470 1.122025
Cr6   Cr    Cr6+3 0.626260 0.446870 0.028710 1.096532
H1    H     H_    0.852824 0.620330 0.336214 0.137458
H2    H     H_    0.294488 0.498769 0.192811 0.192144
H3    H     H_    0.142991 0.428955 0.376069 0.144827
H4    H     H_    0.938132 0.739551 0.156585 0.193528
H5    H     H_    0.017680 0.714991 0.275924 0.131780
H6    H     H_    0.911945 0.896166 0.356742 0.156991
H7    H     H_    0.416619 0.811666 0.131200 0.134018
H8    H     H_    0.210958 0.750697 0.295057 0.076251
H9    H     H_    0.411213 0.661134 0.365711 0.176142
H10   H     H_    0.141274 0.013691 0.326344 0.129631
O1    O     O_R   0.267740 0.231960 0.575440 -0.507884
O2    O     O_R   0.685970 0.784660 0.430010 -0.501621
O3    O     O_R   0.502530 0.767000 0.423990 -0.530501
O4    O     O_R   0.288330 0.026350 0.429250 -0.500203
O5    O     O_3   0.499990 0.000020 0.499980 -0.258856
O6    O     O_R   0.821500 0.119340 0.952830 -0.483274
O7    O     O_R   0.037130 0.162530 0.957360 -0.503611
O8    O     O_R   0.056440 0.344740 0.951340 -0.497636
O9    O     O_R   0.797900 0.560360 0.957470 -0.486579
O10   O     O_R   0.596130 0.579390 0.952730 -0.502869
O11   O     O_R   0.639060 0.321160 0.958670 -0.510256
O12   O     O_R   0.527280 0.186640 0.570530 -0.491013
O13   O     O_R   0.821240 0.124200 0.104370 -0.488415
O14   O     O_R   0.036890 0.167040 0.097840 -0.532951
O15   O     O_R   0.056180 0.349610 0.102880 -0.406420
O16   O     O_R   0.797660 0.564870 0.097950 -0.430685
O17   O     O_R   0.595880 0.584250 0.104270 -0.491978
O18   O     O_R   0.638830 0.325670 0.099150 -0.427059
O19   O     O_3   0.824590 0.350230 0.028100 -0.313962
O20   O     O_R   0.728090 0.003450 0.576380 -0.507355
O21   O     O_R   0.682970 0.789190 0.570490 -0.494719
O22   O     O_R   0.499290 0.771880 0.575530 -0.501270
O23   O     O_R   0.285330 0.030870 0.569730 -0.494979
O24   O     O_R   0.270980 0.227080 0.423890 -0.522846
O25   O     O_R   0.530280 0.182120 0.430050 -0.435569
O26   O     O_R   0.731330 0.998570 0.424830 -0.542175
H11   H     H_    0.227707 0.550911 0.314491 0.133026
F1    F     F_    0.517837 0.374720 0.349995 -0.624398
F2    F     F_    0.737697 0.952759 0.105891 -0.615682
F3    F     F_    0.536133 0.422435 0.216673 -0.613292
F4    F     F_    0.906573 0.562728 0.208991 -0.654442
H12   H     H_    0.213668 0.822040 0.176986 0.106700
F5    F     F_    0.294002 0.307469 0.122138 -0.617211
H13   H     H_    0.085105 0.046710 0.204992 0.139203

loop_
_geom_bond_atom_site_label_1
_geom_bond_atom_site_label_2
_ccdc_geom_bond_type
C25   C31   A    
C22   C48   S    
C26   C32   A    
C1    O20   A    
Cr3   O22   S    
C41   C42   A    
C49   O17   A    
C12   O21   A    
C36   C42   A    
C35   C36   A    
C51   O4    A    
C2    C12   S    
Cr6   O18   S    
Cr4   O6    S    
Cr6   O19   S    
C30   H11   S    
C26   C27   A    
C37   C38   A    
C14   C21   A    
C28   C29   A    
C34   O26   A    
C47   O6    A    
Cr5   O19   S    
C30   C31   A    
C15   C16   A    
C46   C52   S    
C27   H13   S    
C45   O3    A    
C18   C19   A    
C18   H12   S    
Cr3   O3    S    
Cr4   O7    S    
Cr2   O21   S    
C19   C20   A    
C8    C9    S    
Cr2   O2    S    
C50   O18   A    
Cr1   O5    S    
C25   C32   A    
Cr2   O20   S    
Cr2   O5    S    
Cr3   O23   S    
C13   C14   A    
C45   O2    A    
Cr1   O24   S    
Cr5   O8    S    
C37   F1    S    
Cr6   O17   S    
C52   C54   T    
C50   O13   A    
C21   C45   S    
C3    C44   S    
C17   H7    S    
C34   C43   S    
C14   C20   A    
C24   C25   A    
C38   F3    S    
Cr5   O9    S    
C39   C40   A    
C41   H5    S    
C1    O12   A    
C53   C54   S    
C48   O14   A    
C7    C47   S    
Cr3   O4    S    
C37   C43   A    
C35   C39   A    
Cr5   O15   S    
C32   C51   S    
C29   C30   A    
C11   C49   S    
Cr4   O14   S    
Cr6   O11   S    
C39   F2    S    
C17   C18   A    
C15   H1    S    
C19   H8    S    
C34   O25   A    
Cr1   O12   S    
Cr1   O25   S    
C40   C41   A    
C22   C27   A    
C26   H10   S    
C22   C24   A    
C20   H9    S    
C4    C6    T    
C7    C9    T    
C29   H2    S    
Cr6   O10   S    
C49   O16   A    
C12   O22   A    
C1    C10   S    
C24   C28   A    
C4    C5    S    
C3    C5    T    
C2    C53   T    
C31   H3    S    
C44   O7    A    
C33   C38   A    
C40   H4    S    
C13   C17   A    
Cr3   O5    S    
C44   O8    A    
C33   C50   S    
Cr5   O16   S    
Cr4   O13   S    
C46   O10   A    
C11   C13   A    
C28   F5    S    
C46   O9    A    
C6    C23   S    
C33   C35   A    
C47   O11   A    
Cr2   O26   S    
Cr4   O19   S    
C11   C16   A    
C51   O24   A    
C23   O23   A    
C16   F4    S    
C15   C21   A    
C23   O1    A    
C8    C10   T    
C42   H6    S    
C48   O15   A    
C36   C43   A    
Cr1   O1    S    
