data_mof_unit_45485.cif
_audit_creation_date              2013-03-05T15:49:05-0500
_audit_creation_method            fapswitch 2.2
_symmetry_space_group_name_H-M    P1
_symmetry_Int_Tables_number       1
_space_group_crystal_system       triclinic
_cell_length_a                    10.737907
_cell_length_b                    13.030007
_cell_length_c                    11.777396
_cell_angle_alpha                 99.704693
_cell_angle_beta                  90.117671
_cell_angle_gamma                 92.891238
_cell_volume                      1622.09252768

loop_
_atom_site_label
_atom_site_type_symbol
_atom_site_description
_atom_site_fract_x
_atom_site_fract_y
_atom_site_fract_z
_atom_type_partial_charge
O1    O     O_R   0.506670 0.354460 0.582000 -0.529720
O2    O     O_R   0.493330 0.645540 0.418000 -0.526852
O3    O     O_R   0.490800 0.341410 0.386200 -0.533620
O4    O     O_R   0.509200 0.658590 0.613800 -0.560282
C1    C     C_R   0.504982 0.299459 0.478836 0.791965
C2    C     C_R   0.493966 0.700251 0.521705 0.811939
O5    O     O_R   0.324790 0.506500 0.597880 -0.622973
O6    O     O_R   0.675210 0.493500 0.402120 -0.598015
O7    O     O_R   0.308910 0.493440 0.402080 -0.492343
O8    O     O_R   0.691090 0.506560 0.597920 -0.504088
C3    C     C_R   0.260071 0.502232 0.504044 0.845525
C4    C     C_R   0.740179 0.494046 0.495829 0.831645
Cu1   Cu    Cu3+1 0.509400 0.507730 0.615930 1.019588
Cu2   Cu    Cu3+1 0.490600 0.492270 0.384070 1.028242
C5    C     C_3   0.032117 0.519907 0.612905 0.361981
C6    C     C_3   0.970986 0.471745 0.388157 0.349413
C7    C     C_3   0.954325 0.422775 0.556448 0.491509
C8    C     C_3   0.047964 0.569271 0.445734 0.490907
C9    C     C_3   0.877524 0.489340 0.489392 -0.246793
C10   C     C_3   0.123901 0.502213 0.511459 -0.236780
C11   C     C_3   0.954914 0.587992 0.546550 -0.415382
C12   C     C_3   0.046984 0.403938 0.455704 -0.399700
H1    H     H_    0.911741 0.661576 0.583269 0.164121
H2    H     H_    0.089924 0.330273 0.418420 0.188233
C13   C     C_R   0.480787 0.813575 0.534821 -0.206883
C14   C     C_R   0.514624 0.185620 0.468358 -0.282991
C15   C     C_R   0.510339 0.014450 0.348950 -0.272312
C16   C     C_R   0.482723 0.983204 0.654494 -0.292066
C17   C     C_R   0.526795 0.122398 0.359708 0.378660
C18   C     C_R   0.474039 0.875179 0.645036 0.354790
C19   C     C_R   0.512630 0.137885 0.567657 0.350340
C20   C     C_R   0.460623 0.858745 0.436131 0.380305
C21   C     C_R   0.495154 0.029495 0.556103 -0.044179
C22   C     C_R   0.486728 0.967158 0.445670 -0.057830
H3    H     H_    0.524183 0.969065 0.265051 0.168756
H4    H     H_    0.483980 0.030420 0.739361 0.188450
N1    N     N_R   0.523540 0.519360 0.790140 -0.274843
N2    N     N_R   0.476460 0.480640 0.209860 -0.289115
C23   C     C_R   0.358873 0.421576 0.034891 0.195365
C24   C     C_R   0.594098 0.619795 0.972107 0.204341
C25   C     C_R   0.385916 0.415160 0.151022 0.513696
C26   C     C_R   0.599485 0.598219 0.849966 0.548141
C27   C     C_R   0.545162 0.548727 0.154115 0.522060
C28   C     C_R   0.445288 0.457734 0.847052 0.549882
C29   C     C_R   0.528338 0.549131 0.032811 -0.267133
C30   C     C_R   0.443166 0.475421 0.970534 -0.236354
O9    O     O_3   0.896247 0.350049 0.618536 -0.566959
C31   C     C_3   0.953495 0.253429 0.598046 0.073624
H5    H     H_    0.935718 0.214641 0.673835 0.165884
H6    H     H_    0.056599 0.261940 0.590391 0.129170
C32   C     C_3   0.896334 0.181867 0.492648 -0.925524
H7    H     H_    0.914458 0.214666 0.413052 0.253203
H8    H     H_    0.937747 0.104555 0.483139 0.222753
H9    H     H_    0.794137 0.170931 0.502438 0.229046
O10   O     O_3   0.106203 0.643284 0.385106 -0.565549
C33   C     C_3   0.088688 0.746942 0.439950 0.085094
H10   H     H_    0.988913 0.762827 0.454080 0.101762
H11   H     H_    0.121862 0.799567 0.380292 0.204774
C34   C     C_3   0.162670 0.776482 0.552905 -0.763716
H12   H     H_    0.246226 0.730119 0.550744 0.265743
H13   H     H_    0.191535 0.860730 0.566589 0.206580
H14   H     H_    0.105395 0.761710 0.627210 0.219974
Cl1   Cl    Cl    0.067571 0.556465 0.762247 -0.600115
Cl2   Cl    Cl    0.961820 0.421785 0.238052 -0.615373
O11   O     O_3   0.363265 0.810856 0.365069 -0.580191
C35   C     C_3   0.391970 0.793813 0.247223 0.048319
H15   H     H_    0.490826 0.774911 0.232096 0.229332
H16   H     H_    0.369386 0.862684 0.208635 0.143488
C36   C     C_3   0.307018 0.703959 0.186782 -0.613459
H17   H     H_    0.208829 0.727098 0.189144 0.236911
H18   H     H_    0.334068 0.682595 0.095492 0.199946
H19   H     H_    0.312810 0.635160 0.230172 0.289876
O12   O     O_3   0.522647 0.196268 0.677156 -0.528223
C37   C     C_3   0.649256 0.205738 0.712107 0.118313
H20   H     H_    0.697524 0.268112 0.673121 0.219865
H21   H     H_    0.697850 0.131574 0.687655 0.105960
C38   C     C_3   0.658636 0.235847 0.842443 -0.731452
H22   H     H_    0.756408 0.230838 0.871125 0.207479
H23   H     H_    0.631006 0.316973 0.870154 0.260033
H24   H     H_    0.597094 0.182193 0.883809 0.226515
O13   O     O_3   0.462952 0.828088 0.742006 -0.591822
C39   C     C_3   0.364556 0.867494 0.813337 0.043942
H25   H     H_    0.282816 0.885466 0.763039 0.147716
H26   H     H_    0.398146 0.938887 0.873130 0.149010
C40   C     C_3   0.321494 0.785996 0.885025 -0.734879
H27   H     H_    0.399888 0.769646 0.939660 0.246813
H28   H     H_    0.243461 0.814924 0.941284 0.206720
H29   H     H_    0.289559 0.712736 0.827706 0.284875
O14   O     O_3   0.551161 0.164613 0.261743 -0.578712
C41   C     C_3   0.680902 0.185478 0.254978 0.079905
H30   H     H_    0.733518 0.114735 0.260348 0.146512
H31   H     H_    0.713224 0.249972 0.324812 0.162293
C42   C     C_3   0.709667 0.218936 0.139951 -0.750045
H32   H     H_    0.662170 0.291563 0.133081 0.236631
H33   H     H_    0.811774 0.233212 0.131944 0.252295
H34   H     H_    0.676987 0.156138 0.068861 0.232713
O15   O     O_3   0.413410 0.357504 0.791125 -0.536366
C43   C     C_3   0.290315 0.343969 0.747361 0.238465
H35   H     H_    0.291283 0.336996 0.652486 0.140882
H36   H     H_    0.230959 0.409151 0.780113 0.205305
C44   C     C_3   0.233434 0.240526 0.773116 -0.767867
H37   H     H_    0.268591 0.224401 0.856728 0.265585
H38   H     H_    0.130607 0.242894 0.777711 0.211672
H39   H     H_    0.258487 0.175338 0.704815 0.220249
O16   O     O_3   0.629249 0.618084 0.218298 -0.543104
C45   C     C_3   0.750091 0.584180 0.193919 0.180994
H40   H     H_    0.773698 0.575510 0.101112 0.185754
H41   H     H_    0.758383 0.507229 0.219062 0.189572
C46   C     C_3   0.842699 0.663832 0.259958 -0.698202
H42   H     H_    0.829699 0.665252 0.353494 0.211816
H43   H     H_    0.938741 0.643404 0.234447 0.264047
H44   H     H_    0.827648 0.742675 0.240318 0.259895
O17   O     O_3   0.705026 0.631156 0.794651 -0.528461
C47   C     C_3   0.712870 0.739113 0.790315 0.181364
H45   H     H_    0.641582 0.784468 0.841407 0.208000
H46   H     H_    0.701534 0.749781 0.699554 0.147455
C48   C     C_3   0.842452 0.785186 0.829499 -0.747429
H47   H     H_    0.914379 0.748965 0.770780 0.252279
H48   H     H_    0.847309 0.870429 0.828928 0.184770
H49   H     H_    0.864228 0.771558 0.917604 0.302084
O18   O     O_3   0.307433 0.356847 0.211951 -0.494494
C49   C     C_3   0.301760 0.250646 0.159427 0.132850
H50   H     H_    0.396239 0.222306 0.138563 0.164012
H51   H     H_    0.245735 0.237667 0.078626 0.166719
C50   C     C_3   0.238605 0.185308 0.240560 -0.728147
H52   H     H_    0.283650 0.202614 0.326973 0.243462
H53   H     H_    0.138594 0.202808 0.249210 0.244542
H54   H     H_    0.245402 0.101144 0.205616 0.192454
Cl3   Cl    Cl    0.198890 0.410285 0.998135 -0.554189
Cl4   Cl    Cl    0.656986 0.741038 0.046407 -0.722620

loop_
_geom_bond_atom_site_label_1
_geom_bond_atom_site_label_2
_geom_bond_distance
_ccdc_geom_bond_type
C35   H16   1.108894 S    
O10   C33   1.417355 S    
C42   H32   1.111994 S    
C15   C17   1.393000 A    
C8    C11   1.549013 S    
O12   C37   1.413009 S    
C17   O14   1.379457 S    
O15   C43   1.409582 S    
C23   C25   1.414693 A    
C38   H22   1.110625 S    
O5    C3    1.295998 A    
C44   H37   1.110219 S    
C37   H21   1.116557 S    
O1    C1    1.302000 A    
C9    C11   1.547356 S    
C48   H48   1.110472 S    
C19   O12   1.383406 S    
C2    C13   1.472598 S    
C45   H40   1.110906 S    
C43   H35   1.105808 S    
O4    Cu1   1.970199 S    
C33   H10   1.108990 S    
C27   O16   1.374029 S    
C25   O18   1.387152 S    
N1    C26   1.373439 A    
C36   H18   1.107411 S    
C31   C32   1.528389 S    
C37   C38   1.520752 S    
C50   H54   1.110590 S    
O6    Cu2   1.992230 S    
C19   C21   1.398841 A    
Cu1   N1    2.036475 S    
C13   C20   1.409506 A    
C24   C26   1.420322 A    
C35   H15   1.109760 S    
C34   H12   1.104615 S    
C44   H38   1.107317 S    
Cu1   Cu2   2.710401 S    
O2    C2    1.306111 A    
C28   C30   1.433972 A    
O13   C39   1.413747 S    
C38   H23   1.108006 S    
C15   C22   1.401296 A    
C24   C29   1.419833 A    
C3    C10   1.464956 S    
C34   H13   1.110371 S    
C37   H20   1.106480 S    
C40   H28   1.110464 S    
C32   H7    1.107580 S    
N2    C25   1.366619 A    
O4    C2    1.305614 A    
C46   H44   1.109843 S    
C23   Cl3   1.763551 S    
C15   H3    1.077335 S    
C40   H27   1.109107 S    
C5    C10   1.544945 S    
C32   H8    1.110156 S    
C20   C22   1.411776 A    
C36   H19   1.108417 S    
O7    Cu2   1.963445 S    
Cu2   N2    2.036476 S    
C27   C29   1.440581 A    
C28   O15   1.385857 S    
C26   O17   1.393252 S    
C41   H31   1.113325 S    
O9    C31   1.413279 S    
C5    C11   1.546047 S    
O6    C4    1.303248 A    
C21   C22   1.412615 A    
C31   H6    1.112448 S    
O7    C3    1.300967 A    
O18   C49   1.415631 S    
O3    Cu2   1.970200 S    
O8    C4    1.302038 A    
C8    O10   1.415675 S    
C23   C30   1.415649 A    
C31   H5    1.109800 S    
C10   C12   1.536454 S    
C16   C21   1.397348 A    
O11   C35   1.405487 S    
C42   H34   1.110196 S    
C39   H26   1.111582 S    
C11   H1    1.107746 S    
C50   H52   1.109119 S    
C12   H2    1.109102 S    
C48   H49   1.108256 S    
O1    Cu1   1.968242 S    
C49   H51   1.108702 S    
C43   C44   1.528844 S    
C41   C42   1.519216 S    
O17   C47   1.414484 S    
C40   H29   1.110545 S    
C13   C18   1.410483 A    
C5    C7    1.532667 S    
C24   Cl4   1.772397 S    
C34   H14   1.108245 S    
C6    C12   1.544823 S    
C14   C19   1.413863 A    
C7    O9    1.413317 S    
O3    C1    1.311895 A    
O8    Cu1   1.963446 S    
C47   H46   1.108149 S    
C47   H45   1.106767 S    
C44   H39   1.111082 S    
C39   C40   1.519428 S    
O16   C45   1.406387 S    
C43   H36   1.105219 S    
C7    C12   1.545739 S    
C33   C34   1.530081 S    
C32   H9    1.108212 S    
C49   C50   1.521976 S    
C46   H43   1.107562 S    
O14   C41   1.410911 S    
N2    C27   1.376465 A    
C48   H47   1.107449 S    
C38   H24   1.110111 S    
C41   H30   1.115768 S    
C42   H33   1.109680 S    
C45   H41   1.099991 S    
C18   O13   1.387227 S    
C6    C9    1.554754 S    
C4    C9    1.480733 S    
C16   C18   1.391476 A    
C7    C9    1.535086 S    
C33   H11   1.108869 S    
C8    C10   1.524741 S    
C36   H17   1.110261 S    
O2    Cu2   1.968242 S    
C47   C48   1.526160 S    
C1    C14   1.476489 S    
C35   C36   1.522569 S    
N1    C28   1.384127 A    
C29   C30   1.402850 A    
O5    Cu1   1.992229 S    
C16   H4    1.081433 S    
C14   C17   1.410418 A    
C6    C8    1.535945 S    
C39   H25   1.114223 S    
C50   H53   1.110397 S    
C5    Cl1   1.778169 S    
C6    Cl2   1.778646 S    
C49   H50   1.110937 S    
C46   H42   1.107878 S    
C20   O11   1.391856 S    
C45   C46   1.513764 S    
