data_mof_unit_12983.cif
_audit_creation_date              2013-03-05T16:00:12-0500
_audit_creation_method            fapswitch 2.2
_symmetry_space_group_name_H-M    P1
_symmetry_Int_Tables_number       1
_space_group_crystal_system       triclinic
_cell_length_a                    12.663656
_cell_length_b                    13.057878
_cell_length_c                    23.382059
_cell_angle_alpha                 92.352846
_cell_angle_beta                  103.724021
_cell_angle_gamma                 81.191481
_cell_volume                      3711.73416744

loop_
_atom_site_label
_atom_site_type_symbol
_atom_site_description
_atom_site_fract_x
_atom_site_fract_y
_atom_site_fract_z
_atom_type_partial_charge
O1    O     O_R   0.366740 0.627150 0.485570 -0.622137
O2    O     O_R   0.544830 0.662520 0.504870 -0.618223
C1    C     C_R   0.437899 0.690894 0.486715 0.921643
O3    O     O_R   0.410930 0.482340 0.574190 -0.570655
O4    O     O_R   0.589010 0.517710 0.593490 -0.620829
C2    C     C_R   0.501429 0.502399 0.610217 0.966660
Zn1   Zn    Zn3+2 0.381090 0.476380 0.487110 0.973597
Zn2   Zn    Zn3+2 0.618910 0.523620 0.512890 0.989879
O5    O     O_R   0.455170 0.337480 0.495130 -0.625231
O6    O     O_R   0.633260 0.372850 0.514430 -0.556708
O7    O     O_R   0.410990 0.482290 0.406510 -0.638270
O8    O     O_R   0.589070 0.517660 0.425810 -0.626863
C3    C     C_R   0.561186 0.307798 0.505967 0.906521
C4    C     C_R   0.497407 0.500854 0.389288 0.889826
C5    C     C_R   0.429265 0.445728 0.107792 0.517098
N1    N     N_R   0.470604 0.522343 0.144106 -0.356416
C6    C     C_R   0.512276 0.600370 0.123465 0.511196
C7    C     C_R   0.518565 0.600615 0.064636 -0.014967
C8    C     C_R   0.477688 0.521702 0.026842 -0.020318
C9    C     C_R   0.430500 0.444690 0.048151 -0.017652
C10   C     C_R   0.566208 0.676625 0.043105 -0.145782
C11   C     C_R   0.575020 0.673229 0.984811 -0.150812
C12   C     C_R   0.535071 0.594536 0.946883 -0.013003
C13   C     C_R   0.484979 0.519233 0.967730 -0.016978
C14   C     C_R   0.442409 0.441337 0.929655 -0.021719
C15   C     C_R   0.393248 0.366277 0.950955 -0.154028
C16   C     C_R   0.388041 0.367504 0.009811 -0.147628
C17   C     C_R   0.543978 0.588859 0.888400 0.490356
N2    N     N_R   0.502904 0.512168 0.852186 -0.347703
C18   C     C_R   0.450273 0.440773 0.871047 0.513100
O9    O     O_2   0.389402 0.369600 0.129649 -0.538798
O10   O     O_2   0.548034 0.677087 0.159973 -0.548546
H1    H     H_    0.598148 0.738067 0.071376 0.198126
H2    H     H_    0.613267 0.732272 0.969635 0.196853
O11   O     O_2   0.593424 0.659067 0.867710 -0.556828
O12   O     O_2   0.405461 0.369917 0.833021 -0.539124
H3    H     H_    0.359906 0.305715 0.922455 0.196498
H4    H     H_    0.350987 0.307726 0.025156 0.197126
C19   C     C_R   0.578458 0.434494 0.769365 0.172434
C20   C     C_R   0.574504 0.434225 0.709222 -0.290168
H5    H     H_    0.626131 0.374282 0.690723 0.153202
C21   C     C_R   0.504582 0.510563 0.672442 -0.168850
C22   C     C_R   0.439857 0.592306 0.695649 0.305996
C23   C     C_R   0.440317 0.589280 0.755300 -0.152511
H6    H     H_    0.389380 0.648777 0.774371 0.195880
C24   C     C_R   0.507893 0.511449 0.791840 0.225340
C25   C     C_R   0.578989 0.509230 0.245705 -0.087574
H7    H     H_    0.653467 0.506644 0.230218 0.172415
C26   C     C_R   0.585761 0.504562 0.305622 -0.160600
H8    H     H_    0.665705 0.499884 0.335646 0.174995
C27   C     C_R   0.490240 0.505315 0.326175 -0.042723
C28   C     C_R   0.387528 0.512821 0.286006 -0.212892
H9    H     H_    0.312504 0.514726 0.300890 0.175002
C29   C     C_R   0.380675 0.519835 0.226045 -0.073518
H10   H     H_    0.301114 0.526938 0.195346 0.163872
C30   C     C_R   0.476483 0.517534 0.205743 0.282210
C31   C     C_R   0.731149 0.040925 0.511962 0.113054
H11   H     H_    0.762504 0.189229 0.551126 0.192233
H12   H     H_    0.749948 0.839970 0.469711 0.151827
C32   C     C_R   0.595328 0.196143 0.501526 -0.066587
C33   C     C_R   0.284020 0.844146 0.458526 0.114135
C34   C     C_R   0.257229 0.952100 0.452844 -0.113986
C35   C     C_R   0.337795 0.014342 0.456601 -0.195905
C36   C     C_R   0.448374 0.970962 0.460442 0.104016
C37   C     C_R   0.475036 0.862663 0.458496 0.060844
C38   C     C_R   0.535326 0.031170 0.471612 0.056294
C39   C     C_R   0.646422 0.982772 0.484419 0.137653
C40   C     C_R   0.667653 0.878645 0.468442 -0.238725
C41   C     C_R   0.581358 0.821485 0.451467 -0.168265
C42   C     C_R   0.514585 0.138170 0.473135 -0.238309
C43   C     C_R   0.702120 0.146399 0.524265 -0.143918
C44   C     C_R   0.397166 0.799396 0.466227 -0.174321
H13   H     H_    0.434506 0.177664 0.452221 0.171451
H14   H     H_    0.310287 0.096500 0.457755 0.152689
H15   H     H_    0.174197 0.991144 0.448619 0.150512
H16   H     H_    0.600276 0.743424 0.435683 0.175043
C45   C     C_R   0.075705 0.402042 0.393500 0.243414
H17   H     H_    0.246619 0.364847 0.393016 0.176744
H18   H     H_    0.863867 0.390697 0.370023 0.225410
N3    N     N_R   0.222200 0.444670 0.469780 -0.138625
C46   C     C_R   0.803393 0.614036 0.578544 -0.048279
C47   C     C_R   0.912109 0.623151 0.603361 -0.305572
C48   C     C_R   0.994847 0.573420 0.577241 0.316830
C49   C     C_R   0.965383 0.528066 0.519972 -0.104570
C50   C     C_R   0.853667 0.513381 0.499133 0.093110
C51   C     C_R   0.040722 0.490481 0.484083 -0.042339
C52   C     C_R   0.001607 0.446088 0.427665 -0.007150
C53   C     C_R   0.891346 0.435805 0.409117 -0.262693
C54   C     C_R   0.825242 0.450264 0.448878 0.301717
C55   C     C_R   0.153161 0.497347 0.500370 0.025716
C56   C     C_R   0.187283 0.397398 0.417832 -0.094801
N4    N     N_R   0.776960 0.554790 0.529910 -0.131593
H19   H     H_    0.187898 0.547263 0.535134 0.182529
H20   H     H_    0.740474 0.646882 0.600993 0.173734
H21   H     H_    0.932399 0.660715 0.645878 0.193873
C57   C     C_3   0.850809 0.993195 0.530915 -0.421739
C58   C     C_3   0.871773 0.925621 0.585767 -0.414749
C59   C     C_3   0.992806 0.879258 0.605190 -0.733790
H22   H     H_    0.017444 0.826700 0.570579 0.261932
H23   H     H_    0.045323 0.941568 0.614180 0.271430
H24   H     H_    0.006265 0.834043 0.646125 0.272464
H25   H     H_    0.847916 0.973651 0.622335 0.239149
H26   H     H_    0.821630 0.861501 0.576837 0.234685
H27   H     H_    0.876309 0.947738 0.494080 0.204975
H28   H     H_    0.903747 0.055277 0.541150 0.230664
C60   C     C_3   0.193425 0.777999 0.456966 -0.371493
C61   C     C_3   0.074221 0.833579 0.439623 -0.398785
C62   C     C_3   0.992334 0.757354 0.435015 -0.863676
H29   H     H_    0.006053 0.694991 0.402656 0.276361
H30   H     H_    0.000921 0.722285 0.478589 0.252138
H31   H     H_    0.907335 0.798781 0.420205 0.253272
H32   H     H_    0.059364 0.892812 0.473431 0.229239
H33   H     H_    0.059336 0.871842 0.396241 0.247586
H34   H     H_    0.200951 0.715287 0.423902 0.218473
H35   H     H_    0.206020 0.743454 0.501192 0.247691
N5    N     N_R   0.039819 0.362832 0.334828 0.202922
O13   O     O_R   0.964223 0.418791 0.296256 -0.390792
O14   O     O_R   0.095816 0.280894 0.316959 -0.373513
N6    N     N_R   0.103861 0.555187 0.614013 0.185750
O15   O     O_R   0.154496 0.460554 0.622518 -0.363533
O16   O     O_R   0.140551 0.627574 0.649676 -0.368445
N7    N     N_R   0.774515 0.362073 0.453160 0.241812
O17   O     O_R   0.830029 0.293280 0.491748 -0.423267
O18   O     O_R   0.707000 0.330646 0.407051 -0.415983
C63   C     C_3   0.659058 0.353736 0.808343 -0.407000
C64   C     C_3   0.759532 0.400021 0.843143 -0.353794
C65   C     C_3   0.841843 0.318470 0.881747 -0.820177
H36   H     H_    0.803235 0.287019 0.913903 0.266083
H37   H     H_    0.871313 0.254120 0.854190 0.266663
H38   H     H_    0.913544 0.354188 0.906374 0.261728
H39   H     H_    0.800550 0.431621 0.812087 0.242980
H40   H     H_    0.733892 0.464209 0.871804 0.249098
H41   H     H_    0.618763 0.320127 0.838866 0.230660
H42   H     H_    0.687454 0.288233 0.781055 0.205927
N8    N     N_R   0.377720 0.680091 0.660824 0.227261
O19   O     O_R   0.399096 0.702124 0.611426 -0.427375
O20   O     O_R   0.311016 0.747810 0.682653 -0.341801

loop_
_geom_bond_atom_site_label_1
_geom_bond_atom_site_label_2
_geom_bond_distance
_ccdc_geom_bond_type
C63   H42   1.112590 S    
C52   C53   1.386030 A    
C64   C65   1.525688 S    
C19   C63   1.514038 S    
C7    C10   1.403972 A    
C61   H32   1.110995 S    
C1    C44   1.489141 S    
C8    C9    1.408219 A    
C57   H28   1.112768 S    
C65   H37   1.110901 S    
C46   C47   1.382668 A    
N8    O19   1.299869 A    
C25   C26   1.386426 A    
C3    C32   1.462616 S    
C62   H29   1.110966 S    
Zn1   O7    2.015069 S    
C15   C16   1.392613 A    
N2    C18   1.367971 A    
C60   H34   1.111952 S    
C17   N2    1.367967 A    
C49   C51   1.434573 A    
C4    C27   1.459882 S    
O4    C2    1.305062 A    
O7    C4    1.310297 A    
H11   C43   1.079926 S    
C10   H1    1.083159 S    
C60   C61   1.538856 S    
C16   H4    1.083171 S    
C5    N1    1.369527 A    
C59   H22   1.109923 S    
N5    O13   1.301533 A    
C41   H16   1.081152 S    
N8    O20   1.301816 A    
C7    C8    1.407909 A    
C48   N6    1.433426 S    
O5    C3    1.305432 A    
C61   H33   1.111832 S    
C46   N4    1.352826 A    
C25   H7    1.083119 S    
C17   O11   1.350003 S    
C28   C29   1.389939 A    
C40   C41   1.388713 A    
C26   C27   1.402178 A    
C31   C57   1.515208 S    
C12   C13   1.408541 A    
Zn2   N4    2.046524 S    
C64   H40   1.109430 S    
C45   N5    1.438213 S    
C58   H25   1.111863 S    
C20   C21   1.398571 A    
C38   C39   1.418348 A    
C10   C11   1.392109 A    
C31   C39   1.422713 A    
O3    Zn1   1.981291 S    
H18   C53   1.082244 S    
C50   N4    1.375763 A    
C23   C24   1.397566 A    
C58   C59   1.526474 S    
N6    O16   1.300238 A    
C5    C9    1.397803 A    
C11   H2    1.083182 S    
C29   C30   1.399735 A    
C39   C40   1.398057 A    
C13   C14   1.408442 A    
O3    C2    1.306680 A    
C51   C55   1.399835 A    
C19   C20   1.395113 A    
C50   C54   1.414299 A    
C51   C52   1.427126 A    
N1    C6    1.369460 A    
C32   C43   1.397026 A    
C14   C15   1.403697 A    
C31   C43   1.406180 A    
C27   C28   1.404441 A    
O1    C1    1.312262 A    
C36   C38   1.417960 A    
C22   C23   1.395552 A    
N1    C30   1.428854 S    
C34   C35   1.383743 A    
H12   C40   1.080449 S    
C48   C49   1.431258 A    
C32   C42   1.390310 A    
Zn2   O8    1.981291 S    
C57   C58   1.534144 S    
C42   H13   1.076430 S    
C6    C7    1.396739 A    
C12   C17   1.396577 A    
C49   C50   1.422668 A    
C22   N8    1.446572 S    
C33   C60   1.531220 S    
C58   H26   1.110589 S    
C19   C24   1.410291 A    
C33   C44   1.434126 A    
C20   H5    1.084846 S    
C35   H14   1.077330 S    
O8    C4    1.310385 A    
C26   H8    1.081133 S    
C59   H23   1.110784 S    
C57   H27   1.108909 S    
C2    C21   1.445972 S    
C63   C64   1.533035 S    
C34   H15   1.079801 S    
C21   C22   1.414618 A    
C61   C62   1.527064 S    
N7    O18   1.302118 A    
C65   H36   1.110997 S    
C37   C44   1.426169 A    
C28   H9    1.083206 S    
C55   H19   1.074117 S    
C63   H41   1.108808 S    
C14   C18   1.396985 A    
Zn1   O5    1.904791 S    
C29   H10   1.082888 S    
C45   C56   1.385291 A    
C47   H21   1.082731 S    
O1    Zn1   1.950229 S    
O2    Zn2   1.904791 S    
C23   H6    1.083069 S    
O6    C3    1.315939 A    
O4    Zn2   2.015068 S    
N6    O15   1.301804 A    
C62   H30   1.109075 S    
C15   H3    1.083165 S    
C5    O9    1.349821 S    
C9    C16   1.404156 A    
H17   C56   1.082043 S    
C59   H24   1.109918 S    
C60   H35   1.111877 S    
C62   H31   1.109667 S    
C18   O12   1.349993 S    
N2    C24   1.426906 S    
C36   C37   1.404153 A    
N3    C56   1.348743 A    
C8    C13   1.405662 A    
C65   H38   1.110468 S    
C46   H20   1.081501 S    
C38   C42   1.382164 A    
C64   H39   1.112030 S    
C37   C41   1.415986 A    
N5    O14   1.301432 A    
O2    C1    1.318207 A    
N3    C55   1.349531 A    
C33   C34   1.402637 A    
C35   C36   1.411188 A    
C53   C54   1.381027 A    
C45   C52   1.414956 A    
Zn2   O6    1.950228 S    
C47   C48   1.398282 A    
C54   N7    1.419637 S    
C6    O10   1.350037 S    
C11   C12   1.403506 A    
C25   C30   1.399859 A    
N7    O17   1.299002 A    
Zn1   N3    2.058840 S    
