data_mof_unit_23680.cif
_audit_creation_date              2012-12-10T18:55:12-0500
_audit_creation_method            fapswitch 2.2
_symmetry_space_group_name_H-M    P1
_symmetry_Int_Tables_number       1
_space_group_crystal_system       triclinic
_cell_length_a                    10.723106
_cell_length_b                    9.940128
_cell_length_c                    27.425637
_cell_angle_alpha                 90.160482
_cell_angle_beta                  91.73204
_cell_angle_gamma                 90.079138
_cell_volume                      2921.92228411

loop_
_atom_site_label
_atom_site_type_symbol
_atom_type_description
_atom_site_fract_x
_atom_site_fract_y
_atom_site_fract_z
_atom_type_partial_charge
C1    C     C_R   0.260221 0.499937 0.500680 0.919991
C2    C     C_R   0.739779 0.500063 0.499321 0.919976
C3    C     C_R   0.549955 0.494300 0.101586 -0.136838
C4    C     C_R   0.449886 0.505870 0.898408 -0.136849
C5    C     C_R   0.547990 0.371606 0.127309 -0.136391
C6    C     C_R   0.451954 0.628549 0.872678 -0.136355
C7    C     C_R   0.541618 0.249371 0.101213 0.390464
C8    C     C_R   0.458357 0.750797 0.898767 0.390455
C9    C     C_R   0.571585 0.615718 0.127181 0.006443
C10   C     C_R   0.428196 0.384452 0.872819 0.006431
C11   C     C_R   0.511543 0.498271 0.353799 -0.097850
C12   C     C_R   0.488432 0.501735 0.646199 -0.097862
C13   C     C_R   0.475004 0.378464 0.974414 0.135375
C14   C     C_R   0.524775 0.621725 0.025584 0.135355
C15   C     C_R   0.489965 0.626159 0.975269 -0.048151
C16   C     C_R   0.509853 0.374028 0.024724 -0.048180
C17   C     C_R   0.472403 0.503652 0.949504 -0.007857
C18   C     C_R   0.527407 0.496531 0.050491 -0.007853
C19   C     C_R   0.434082 0.262552 0.948629 -0.124979
C20   C     C_R   0.565646 0.737643 0.051377 -0.125027
C21   C     C_R   0.414550 0.264708 0.898494 -0.152404
C22   C     C_R   0.585166 0.735477 0.101512 -0.152411
C23   C     C_R   0.500005 0.499676 0.406236 0.962734
C24   C     C_R   0.499993 0.500325 0.593764 0.962734
C25   C     C_R   0.536305 0.251627 0.049633 0.300164
C26   C     C_R   0.463575 0.748559 0.950349 0.300165
C27   C     C_R   0.063581 0.377401 0.499643 -0.155382
C28   C     C_R   0.936420 0.622599 0.500362 -0.155374
C29   C     C_R   0.935883 0.377562 0.497961 -0.177549
C30   C     C_R   0.064117 0.622438 0.502044 -0.177559
C31   C     C_R   0.872399 0.500124 0.498866 -0.042133
C32   C     C_R   0.127601 0.499875 0.501138 -0.042154
C33   C     C_R   0.562684 0.072040 0.535968 -0.043555
C34   C     C_R   0.437315 0.927959 0.464033 -0.043550
C35   C     C_R   0.437741 0.071477 0.463914 -0.054189
C36   C     C_R   0.562258 0.928522 0.536086 -0.054190
C37   C     C_R   0.552769 0.376035 0.178699 0.638499
C38   C     C_R   0.447236 0.624091 0.821288 0.638459
C39   C     C_R   0.578431 0.614490 0.178075 0.560475
C40   C     C_R   0.421369 0.385661 0.821925 0.560541
C41   C     C_R   0.648662 0.467369 0.285716 0.559463
C42   C     C_R   0.351293 0.532711 0.714272 0.559454
C43   C     C_R   0.629011 0.466746 0.335908 -0.317215
C44   C     C_R   0.370963 0.533295 0.664081 -0.317201
C45   C     C_R   0.410617 0.530277 0.321684 -0.026913
C46   C     C_R   0.589341 0.469726 0.678323 -0.026925
C47   C     C_R   0.431864 0.532347 0.271646 -0.222519
C48   C     C_R   0.568075 0.467689 0.728359 -0.222526
C49   C     C_R   0.549149 0.500475 0.253913 0.227207
C50   C     C_R   0.450789 0.499604 0.746083 0.227239
H1    H     H_    0.356404 0.554964 0.245794 0.193450
H2    H     H_    0.643520 0.445071 0.754217 0.193441
H3    H     H_    0.294629 0.557591 0.638794 0.138470
H4    H     H_    0.705358 0.442456 0.361190 0.138474
H5    H     H_    0.388916 0.171914 0.879935 0.209715
H6    H     H_    0.610762 0.828269 0.120076 0.209740
H7    H     H_    0.413138 0.169291 0.966610 0.210652
H8    H     H_    0.586567 0.830920 0.033403 0.210688
H9    H     H_    0.111448 0.281656 0.499697 0.218153
H10   H     H_    0.888553 0.718344 0.500308 0.218151
H11   H     H_    0.887556 0.281977 0.495972 0.218267
H12   H     H_    0.112445 0.718023 0.504032 0.218267
N1    N     N_R   0.564094 0.496542 0.202463 -0.352788
N2    N     N_R   0.435824 0.503580 0.797532 -0.352788
N3    N     N_R   0.500000 0.857200 0.500000 -0.164990
N4    N     N_R   0.500000 0.142800 0.500000 -0.164991
O1    O     O_R   0.316770 0.614620 0.500000 -0.610265
O2    O     O_R   0.683230 0.385380 0.500000 -0.610265
O3    O     O_R   0.683230 0.614620 0.500000 -0.601244
O4    O     O_R   0.316770 0.385380 0.500000 -0.601240
O5    O     O_R   0.500030 0.614650 0.428760 -0.607701
O6    O     O_R   0.499970 0.385350 0.571240 -0.607699
O7    O     O_R   0.499970 0.614650 0.571240 -0.600963
O8    O     O_R   0.500030 0.385350 0.428760 -0.600952
O9    O     O_2   0.543402 0.262118 0.204991 -0.424552
O10   O     O_2   0.456742 0.737978 0.794990 -0.424583
O11   O     O_2   0.403859 0.269790 0.796829 -0.489434
O12   O     O_2   0.595847 0.730368 0.203176 -0.489418
Zn1   Zn    Zn3+2 0.500000 0.653120 0.500000 1.023533
Zn2   Zn    Zn3+2 0.500000 0.346880 0.500000 1.023538
C51   C     C_2   0.282332 0.556422 0.338735 0.939356
O13   O     O_2   0.207883 0.618689 0.312773 -0.586484
O14   O     O_R   0.244739 0.507103 0.383658 -0.835306
H13   H     H_    0.154426 0.528638 0.390303 0.340217
C52   C     C_2   0.717630 0.443557 0.661281 0.939395
O15   O     O_2   0.792059 0.381279 0.687248 -0.586455
O16   O     O_R   0.755250 0.492865 0.616360 -0.835314
H14   H     H_    0.845563 0.471316 0.609721 0.340219
C53   C     C_2   0.635057 0.143611 0.574427 0.985787
O17   O     O_2   0.591726 0.157432 0.614858 -0.574893
O18   O     O_R   0.757035 0.183922 0.565789 -0.805002
H15   H     H_    0.800619 0.223479 0.595818 0.357339
C54   C     C_2   0.364938 0.856388 0.425574 0.985779
O19   O     O_2   0.408266 0.842565 0.385143 -0.574897
O20   O     O_R   0.242961 0.816079 0.434214 -0.805000
H16   H     H_    0.199375 0.776517 0.404186 0.357344
C55   C     C_2   0.370435 0.142814 0.424166 0.996015
O21   O     O_2   0.416568 0.150428 0.384032 -0.567889
O22   O     O_R   0.250989 0.192847 0.431471 -0.796964
H17   H     H_    0.212808 0.235782 0.401058 0.363193
C56   C     C_2   0.629559 0.857185 0.575836 0.996008
O23   O     O_2   0.583423 0.849578 0.615969 -0.567880
O24   O     O_R   0.749001 0.807141 0.568532 -0.796966
H18   H     H_    0.787177 0.764202 0.598945 0.363192
O25   O     O_3   0.543726 0.128871 0.126256 -0.684047
H19   H     H_    0.502158 0.058952 0.105649 0.342426
O26   O     O_3   0.456352 0.871290 0.873717 -0.684014
H20   H     H_    0.497891 0.941209 0.894335 0.342459
O27   O     O_3   0.236956 0.563775 0.733160 -0.717193
H21   H     H_    0.177367 0.584714 0.705882 0.345592
O28   O     O_3   0.762999 0.436348 0.266819 -0.717176
H22   H     H_    0.822602 0.415405 0.294093 0.345599
O29   O     O_3   0.569644 0.139062 0.023335 -0.769945
H23   H     H_    0.624640 0.081126 0.043954 0.350555
O30   O     O_3   0.430202 0.861139 0.976631 -0.769943
H24   H     H_    0.375285 0.919102 0.955991 0.350544

loop_
_geom_bond_atom_site_label_1
_geom_bond_atom_site_label_2
_ccdc_geom_bond_type
O2    Zn2   S    
O16   H14   S    
C54   O19   D    
C49   N1    S    
C5    C37   A    
C27   C29   A    
C50   N2    S    
C14   C18   A    
O20   H16   S    
C34   C54   S    
O5    Zn1   S    
C55   O21   D    
C47   C49   A    
C38   O10   S    
C52   O15   D    
C19   H7    S    
C56   O23   D    
C3    C18   A    
N3    Zn1   S    
C19   C21   A    
C42   O27   S    
C33   C53   S    
C9    C22   A    
O30   H24   S    
C9    C39   A    
C33   C36   A    
C8    C26   A    
C14   C20   A    
C10   C40   A    
C34   C35   A    
C45   C47   A    
C26   O30   S    
C55   O22   S    
C37   N1    A    
C44   H3    S    
O14   H13   S    
O26   H20   S    
C6    C38   A    
C11   C43   A    
C53   O18   S    
C2    O3    A    
C46   C52   S    
C48   C50   A    
C37   O9    S    
C56   O24   S    
O8    Zn2   S    
C41   C43   A    
C42   C44   A    
C34   N3    A    
C41   C49   A    
C51   O14   S    
C33   N4    A    
C51   O13   D    
C38   N2    A    
C28   H10   S    
C10   C21   A    
C29   H11   S    
C13   C19   A    
C52   O16   S    
O4    Zn2   S    
C39   O12   S    
C23   O5    A    
O1    Zn1   S    
C4    C6    A    
O18   H15   S    
C21   H5    S    
C36   N3    A    
C15   C26   A    
C6    C8    A    
C35   N4    A    
C1    C32   S    
C36   C56   S    
C3    C9    A    
C25   O29   S    
C43   H4    S    
O22   H17   S    
C7    O25   S    
O7    Zn1   S    
C16   C18   A    
C42   C50   A    
C4    C17   A    
C12   C46   A    
C20   C22   A    
C30   H12   S    
O3    Zn1   S    
C23   O8    A    
C4    C10   A    
C8    O26   S    
N4    Zn2   S    
C24   O6    A    
C5    C7    A    
O29   H23   S    
C16   C25   A    
C15   C17   A    
O28   H22   S    
C27   C32   A    
C40   O11   S    
C28   C31   A    
C45   C51   S    
C3    C5    A    
C40   N2    A    
C47   H1    S    
C13   C17   A    
C39   N1    A    
O25   H19   S    
C12   C24   S    
C2    O2    A    
C1    O4    A    
C7    C25   A    
C22   H6    S    
C28   C30   A    
O6    Zn2   S    
C27   H9    S    
O27   H21   S    
C30   C32   A    
C54   O20   S    
C11   C23   S    
C1    O1    A    
C24   O7    A    
C11   C45   A    
C12   C44   A    
C46   C48   A    
C48   H2    S    
C29   C31   A    
C41   O28   S    
C13   C16   A    
O24   H18   S    
C14   C15   A    
C2    C31   S    
C53   O17   D    
C35   C55   S    
C20   H8    S    
