data_mof_unit_25673.cif
_audit_creation_date              2013-03-05T15:43:09-0500
_audit_creation_method            fapswitch 2.2
_symmetry_space_group_name_H-M    P1
_symmetry_Int_Tables_number       1
_space_group_crystal_system       triclinic
_cell_length_a                    6.962528
_cell_length_b                    13.835273
_cell_length_c                    18.118295
_cell_angle_alpha                 112.919664
_cell_angle_beta                  94.940975
_cell_angle_gamma                 90.154034
_cell_volume                      1600.29641854

loop_
_atom_site_label
_atom_site_type_symbol
_atom_site_description
_atom_site_fract_x
_atom_site_fract_y
_atom_site_fract_z
_atom_type_partial_charge
O1    O     O_R   0.484560 0.544530 0.414330 -0.559713
O2    O     O_R   0.197040 0.638810 0.585080 -0.547825
O3    O     O_R   0.026800 0.455470 0.585670 -0.578599
C1    C     C_R   0.373156 0.676011 0.613216 0.801875
O4    O     O_R   0.155000 0.556150 0.414940 -0.544449
O5    O     O_R   0.984450 0.372220 0.414320 -0.564074
C2    C     C_R   0.318141 0.561503 0.385008 0.882635
O6    O     O_R   0.526900 0.627780 0.585680 -0.589136
O7    O     O_3   0.339170 0.439750 0.499990 -0.251071
V1    V     V_3+5 0.064350 0.511180 0.500000 1.192871
O8    O     O_R   0.654880 0.361190 0.414920 -0.487082
C3    C     C_R   0.817830 0.324061 0.386286 0.962238
O9    O     O_R   0.696930 0.443850 0.585060 -0.576265
C4    C     C_R   0.872689 0.432623 0.611309 0.866451
V2    V     V_3+5 0.564340 0.488820 0.500000 1.210734
O10   O     O_3   0.839390 0.560250 0.500010 -0.276396
C5    C     C_R   0.043849 0.860631 0.824098 -0.089817
C6    C     C_R   0.904629 0.390411 0.674751 -0.102341
C7    C     C_R   0.924228 0.815742 0.685663 -0.034598
C8    C     C_R   0.972416 0.786321 0.749501 -0.107159
C9    C     C_R   0.058061 0.967076 0.835625 -0.113212
C10   C     C_R   0.008784 0.000157 0.770971 0.059390
C11   C     C_R   0.948978 0.920716 0.694015 0.036311
C12   C     C_R   0.017495 0.108462 0.779844 -0.012043
C13   C     C_R   0.960498 0.136085 0.712811 0.032063
C14   C     C_R   0.895292 0.053204 0.639690 -0.141737
C15   C     C_R   0.909494 0.947986 0.627337 -0.072291
C16   C     C_R   0.075402 0.189805 0.854456 -0.167305
C17   C     C_R   0.071045 0.295459 0.866273 0.282421
C18   C     C_R   0.016095 0.323965 0.800825 -0.023602
C19   C     C_R   0.965175 0.245315 0.721969 -0.032120
C20   C     C_R   0.019158 0.430785 0.812994 -0.019153
C21   C     C_R   0.957199 0.463086 0.752145 -0.151374
C22   C     C_R   0.923665 0.281368 0.657071 -0.066140
H1    H     H_    0.958713 0.546371 0.765008 0.058015
H2    H     H_    0.862149 0.755237 0.630291 0.148080
H3    H     H_    0.950674 0.704965 0.740815 0.046411
H4    H     H_    0.105330 0.021113 0.895783 0.081252
H5    H     H_    0.822570 0.066268 0.590301 0.052597
H6    H     H_    0.119314 0.174162 0.906895 0.135872
H7    H     H_    0.071558 0.491842 0.869817 0.160349
H8    H     H_    0.100948 0.246008 0.292211 0.168525
C23   C     C_2   0.128605 0.039466 0.181763 -0.187281
C24   C     C_2   0.976337 0.103783 0.193925 -0.079397
C25   C     C_2   0.815653 0.220728 0.316095 -0.167881
C26   C     C_2   0.971654 0.194962 0.272329 -0.187840
H9    H     H_    0.247995 0.058180 0.228150 0.114396
C27   C     C_R   0.407440 0.777410 0.683690 -0.091524
C28   C     C_R   0.546763 0.466643 0.843657 -0.058380
C29   C     C_R   0.540788 0.870704 0.820995 -0.043037
C30   C     C_R   0.489467 0.776737 0.756314 -0.094248
C31   C     C_R   0.383699 0.874476 0.676624 -0.140072
C32   C     C_R   0.459568 0.971526 0.738524 0.041811
C33   C     C_R   0.525818 0.967240 0.812798 0.026312
C34   C     C_R   0.469741 0.071754 0.730506 -0.002586
C35   C     C_R   0.519734 0.168682 0.801507 -0.015905
C36   C     C_R   0.577567 0.157395 0.875741 -0.064712
C37   C     C_R   0.579040 0.058377 0.879205 -0.104717
C38   C     C_R   0.444777 0.078519 0.653744 -0.073741
C39   C     C_R   0.453405 0.175207 0.648428 -0.091123
C40   C     C_R   0.469433 0.269816 0.715076 0.044948
C41   C     C_R   0.511433 0.270310 0.793505 0.026050
C42   C     C_R   0.450814 0.365288 0.703763 -0.084099
C43   C     C_R   0.500371 0.460355 0.766822 -0.137265
C44   C     C_R   0.538617 0.373201 0.858407 -0.121729
H10   H     H_    0.628758 0.051598 0.935299 0.153944
H11   H     H_    0.542951 0.385815 0.920595 0.102756
H12   H     H_    0.494681 0.532643 0.756814 0.026950
H13   H     H_    0.462874 0.174348 0.589231 0.192463
H14   H     H_    0.596773 0.867878 0.877559 0.137489
H15   H     H_    0.512114 0.703425 0.763349 0.054254
H16   H     H_    0.298190 0.870945 0.623466 0.100145
H17   H     H_    0.341155 0.673166 0.200408 0.127723
C45   C     C_2   0.320289 0.598797 0.317837 -0.201999
C46   C     C_2   0.469711 0.584622 0.270596 -0.041480
H18   H     H_    0.769121 0.618485 0.192153 0.067860
C47   C     C_2   0.632859 0.647512 0.177518 -0.189193
C48   C     C_2   0.473902 0.639414 0.213649 -0.102668
H19   H     H_    0.200794 0.645552 0.310348 0.074041
O11   O     O_R   0.421600 0.630430 0.917010 -0.566046
O12   O     O_R   0.793840 0.702190 0.087630 -0.551226
O13   O     O_R   0.964010 0.886170 0.088190 -0.539096
C49   C     C_R   0.630455 0.692500 0.115210 0.847505
O14   O     O_R   0.751460 0.619510 0.917500 -0.554394
O15   O     O_R   0.921330 0.802900 0.916840 -0.560986
C50   C     C_R   0.577152 0.575111 0.906626 0.836089
O16   O     O_R   0.464290 0.713700 0.088350 -0.563762
O17   O     O_3   0.609200 0.818520 0.002630 -0.280301
V3    V     V_3+5 0.884140 0.747190 0.002530 1.179053
O18   O     O_R   0.251150 0.814630 0.917340 -0.574638
C51   C     C_R   0.075527 0.826809 0.891695 0.838717
O19   O     O_R   0.293530 0.897310 0.087470 -0.569338
C52   C     C_R   0.129418 0.935793 0.113629 0.877594
V4    V     V_3+5 0.384070 0.769710 0.002370 1.147195
O20   O     O_3   0.109180 0.698190 0.002460 -0.258976
C53   C     C_2   0.887054 0.870386 0.542180 0.478673
H20   H     H_    0.806702 0.890232 0.496280 0.023760
O21   O     O_2   0.969136 0.787440 0.520970 -0.572001
C54   C     C_2   0.825790 0.097259 0.128204 0.560090
H21   H     H_    0.693317 0.138817 0.142773 0.026252
O22   O     O_2   0.852771 0.051877 0.057398 -0.590607
C55   C     C_2   0.646791 0.145770 0.296904 0.535841
H22   H     H_    0.645190 0.069057 0.248055 -0.046236
O23   O     O_2   0.509180 0.167617 0.337202 -0.528550
C56   C     C_2   0.932185 0.212041 0.571102 0.490447
H23   H     H_    0.044730 0.155508 0.553963 0.085042
O24   O     O_2   0.811951 0.215465 0.519067 -0.569841
C57   C     C_2   0.662187 0.242107 0.950558 0.545890
H24   H     H_    0.768610 0.297016 0.948330 0.036976
O25   O     O_2   0.618656 0.248768 0.016220 -0.512126
C58   C     C_2   0.437865 0.988110 0.574685 0.497706
H25   H     H_    0.523097 0.920490 0.567243 -0.051396
O26   O     O_2   0.337118 0.988919 0.516286 -0.558432
C59   C     C_2   0.368990 0.375624 0.629734 0.554900
H26   H     H_    0.360804 0.454387 0.631316 0.048521
O27   O     O_2   0.304946 0.302240 0.569015 -0.567304
C60   C     C_2   0.622407 0.509008 0.269414 0.606639
H27   H     H_    0.773273 0.530402 0.271639 -0.030584
O28   O     O_2   0.579261 0.420509 0.263514 -0.574768
N1    N     N_R   0.118450 0.373053 0.946848 0.059744
O29   O     O_R   0.003017 0.449068 0.978478 -0.393330
O30   O     O_R   0.252643 0.355555 0.994198 -0.343549

loop_
_geom_bond_atom_site_label_1
_geom_bond_atom_site_label_2
_geom_bond_distance
_ccdc_geom_bond_type
C13   C19   1.454623 A    
C49   O16   1.295129 A    
C34   C35   1.466649 A    
C34   C38   1.425892 A    
C4    C6    1.480312 S    
O2    C1    1.308794 A    
C58   H25   1.078937 S    
C5    C51   1.472435 S    
C1    O6    1.294823 A    
C59   H26   1.080656 S    
O15   C51   1.292016 A    
C47   C48   1.359128 D    
C35   C36   1.437418 A    
C56   O24   1.221043 D    
C14   C15   1.389169 A    
C29   C33   1.403328 A    
O13   V3    1.984050 S    
C28   C44   1.420309 A    
C43   H12   1.083936 S    
C16   C17   1.393226 A    
O14   C50   1.322710 A    
C7    H2    1.078571 S    
C60   O28   1.221235 D    
O5    C3    1.295571 A    
C18   C19   1.432059 A    
C24   C54   1.491825 S    
C14   H5    1.066876 S    
C16   H6    1.074008 S    
V2    O10   2.152594 S    
O16   V4    2.032712 S    
C5    C8    1.389339 A    
C57   H24   1.074142 S    
H8    C26   1.086964 S    
C40   C42   1.418018 A    
O11   C50   1.312068 A    
C21   H1    1.082821 S    
C42   C59   1.470457 S    
O8    V2    1.986187 S    
C37   H10   1.084132 S    
C27   C30   1.392033 A    
C9    H4    1.075853 S    
C7    C8    1.384428 A    
N1    O30   1.300940 A    
C44   H11   1.068579 S    
C53   O21   1.220290 D    
C38   C58   1.486931 S    
H17   C48   1.086845 S    
O1    V2    2.024238 S    
C11   C15   1.405624 A    
O7    V1    2.155921 S    
O18   C51   1.305254 A    
O12   V3    2.018123 S    
C38   C39   1.379580 A    
C28   C43   1.370386 A    
O9    C4    1.306184 A    
C15   C53   1.491631 S    
C55   H22   1.084676 S    
C30   H15   1.080743 S    
C46   C48   1.501464 S    
C46   C60   1.489163 S    
O12   C49   1.308063 A    
C24   C26   1.490912 S    
O18   V4    2.029628 S    
C2    C45   1.496600 S    
C32   C34   1.451587 A    
C17   N1    1.444675 S    
O17   V4    1.703990 S    
C45   C46   1.370088 D    
C12   C13   1.434539 A    
O4    C2    1.314056 A    
O15   V3    2.017864 S    
C13   C14   1.409435 A    
C32   C33   1.408062 A    
C5    C9    1.406529 A    
C39   C40   1.388826 A    
V3    O20   1.708796 S    
C7    C11   1.408849 A    
C23   C24   1.362686 D    
C17   C18   1.412434 A    
C31   H16   1.071857 S    
C54   H21   1.085158 S    
C20   H7    1.078381 S    
C53   H20   1.085594 S    
O19   V4    1.986109 S    
C29   C30   1.389213 A    
C19   C22   1.453957 A    
V4    O20   2.152639 S    
C58   O26   1.221948 D    
C31   C32   1.435613 A    
H18   C47   1.083200 S    
C55   O23   1.221725 D    
C6    C22   1.424131 A    
O3    C4    1.290525 A    
C54   O22   1.220687 D    
O6    V2    1.980362 S    
C45   H19   1.086676 S    
O9    V2    2.029604 S    
C35   C41   1.469387 A    
O14   V3    1.993413 S    
O11   V4    1.981037 S    
O2    V1    1.993388 S    
N1    O29   1.301871 A    
C1    C27   1.485245 S    
C33   C37   1.383431 A    
C41   C44   1.449628 A    
O1    C2    1.293269 A    
C22   C56   1.483990 S    
C28   C50   1.490513 S    
C12   C16   1.405453 A    
C3    C25   1.497287 S    
O5    V1    1.984049 S    
C59   O27   1.217789 D    
O8    C3    1.310411 A    
C56   H23   1.085463 S    
C20   C21   1.379909 A    
C29   H14   1.079933 S    
O4    V1    2.018130 S    
O3    V1    2.018015 S    
V1    O10   1.708753 S    
C60   H27   1.083664 S    
C18   C20   1.406556 A    
C8    H3    1.082419 S    
C36   C37   1.395609 A    
C39   H13   1.075698 S    
O19   C52   1.309096 A    
C23   C52   1.484387 S    
C57   O25   1.221721 D    
C10   C12   1.443948 A    
O7    V2    1.706716 S    
C40   C41   1.423255 A    
C6    C21   1.386613 A    
C25   C55   1.490255 S    
C42   C43   1.383332 A    
C25   C26   1.365978 D    
C27   C31   1.406644 A    
C36   C57   1.476336 S    
O17   V3    2.155861 S    
O13   C52   1.291493 A    
C47   C49   1.485336 S    
C10   C11   1.424573 A    
C9    C10   1.431297 A    
C23   H9    1.083236 S    
