data_mof_unit_15394.cif
_audit_creation_date              2012-12-11T14:33:03-0500
_audit_creation_method            fapswitch 2.2
_symmetry_space_group_name_H-M    P1
_symmetry_Int_Tables_number       1
_space_group_crystal_system       triclinic
_cell_length_a                    6.955251
_cell_length_b                    13.997106
_cell_length_c                    17.833454
_cell_angle_alpha                 112.714855
_cell_angle_beta                  95.602292
_cell_angle_gamma                 90.539144
_cell_volume                      1591.73894771

loop_
_atom_site_label
_atom_site_type_symbol
_atom_type_description
_atom_site_fract_x
_atom_site_fract_y
_atom_site_fract_z
_atom_type_partial_charge
O1    O     O_R   0.484560 0.544530 0.414330 -0.539680
O2    O     O_R   0.197040 0.638810 0.585080 -0.523988
O3    O     O_R   0.026800 0.455470 0.585670 -0.522472
C1    C     C_R   0.374424 0.680994 0.608194 0.697906
O4    O     O_R   0.155000 0.556150 0.414940 -0.550408
O5    O     O_R   0.984450 0.372220 0.414320 -0.541259
C2    C     C_R   0.317802 0.564993 0.386606 0.744377
O6    O     O_R   0.526900 0.627780 0.585680 -0.532966
O7    O     O_3   0.339170 0.439750 0.499990 -0.374048
V1    V     V_3+5 0.064350 0.511180 0.500000 1.443799
O8    O     O_R   0.654880 0.361190 0.414920 -0.529336
C3    C     C_R   0.816799 0.324282 0.387584 0.732456
O9    O     O_R   0.696930 0.443850 0.585060 -0.532543
C4    C     C_R   0.873119 0.427581 0.609615 0.784494
V2    V     V_3+5 0.564340 0.488820 0.500000 1.445378
O10   O     O_3   0.839390 0.560250 0.500010 -0.373802
C5    C     C_R   0.045750 0.869366 0.827041 -0.103040
C6    C     C_R   0.905943 0.390816 0.678200 -0.069278
C7    C     C_R   0.940415 0.828766 0.683927 -0.202001
C8    C     C_R   0.997016 0.797359 0.747366 -0.061713
C9    C     C_R   0.047060 0.975452 0.841730 -0.224493
C10   C     C_R   0.001230 0.009544 0.776410 0.102213
C11   C     C_R   0.944748 0.933313 0.697272 0.125644
C12   C     C_R   0.007543 0.115891 0.786534 0.063398
C13   C     C_R   0.955434 0.143410 0.717578 0.063603
C14   C     C_R   0.898496 0.063712 0.640869 -0.178700
C15   C     C_R   0.893995 0.960895 0.631139 -0.209192
C16   C     C_R   0.065323 0.195464 0.863203 -0.180715
C17   C     C_R   0.067150 0.298281 0.873282 -0.216912
C18   C     C_R   0.013319 0.325988 0.807514 0.127421
C19   C     C_R   0.959189 0.249936 0.728012 0.109983
C20   C     C_R   0.010125 0.430545 0.821844 -0.169732
C21   C     C_R   0.951139 0.461903 0.759113 -0.083035
C22   C     C_R   0.911160 0.284501 0.662948 -0.242843
H1    H     H_    0.849637 0.902036 0.570858 0.121360
H2    H     H_    0.878663 0.231600 0.600194 0.092185
H3    H     H_    0.937554 0.542801 0.777535 0.177849
H4    H     H_    0.110632 0.357098 0.933680 0.119578
H5    H     H_    0.897227 0.770753 0.623105 0.137986
H6    H     H_    0.082084 0.028392 0.904318 0.110226
H7    H     H_    0.854763 0.078008 0.586735 0.129460
H8    H     H_    0.110761 0.181194 0.917195 0.132222
H9    H     H_    0.047856 0.489001 0.882869 0.136661
H10   H     H_    0.061298 0.240988 0.279939 0.177574
C23   C     C_2   0.134710 0.040402 0.181301 -0.246904
C24   C     C_2   0.987641 0.070515 0.230674 -0.038233
H11   H     H_    0.701992 0.163302 0.329866 0.190918
C25   C     C_2   0.815308 0.216055 0.328700 -0.281587
C26   C     C_2   0.959972 0.182451 0.281028 -0.186650
C27   C     C_R   0.410143 0.789868 0.674519 -0.067023
C28   C     C_R   0.536408 0.472214 0.825879 -0.072211
C29   C     C_R   0.517011 0.895542 0.817485 -0.142338
C30   C     C_R   0.461853 0.800005 0.755200 -0.152175
C31   C     C_R   0.408547 0.882962 0.658962 -0.211663
C32   C     C_R   0.457385 0.984131 0.723823 0.100252
C33   C     C_R   0.513775 0.986885 0.803168 0.125900
C34   C     C_R   0.452891 0.082626 0.714186 0.060366
C35   C     C_R   0.505300 0.179560 0.783420 0.064662
C36   C     C_R   0.561710 0.174737 0.859641 -0.179729
C37   C     C_R   0.565420 0.080823 0.869047 -0.207866
C38   C     C_R   0.395664 0.087894 0.638142 -0.176384
C39   C     C_R   0.386597 0.182591 0.629518 -0.211365
C40   C     C_R   0.435226 0.276733 0.695929 0.111223
C41   C     C_R   0.498026 0.278137 0.774308 0.100232
C42   C     C_R   0.419666 0.369785 0.683800 -0.133308
C43   C     C_R   0.468913 0.465582 0.747553 -0.105174
C44   C     C_R   0.548622 0.378346 0.839443 -0.208582
H12   H     H_    0.609097 0.081851 0.929423 0.129743
H13   H     H_    0.596593 0.386057 0.900895 0.093388
H14   H     H_    0.455323 0.535341 0.735377 0.142055
H15   H     H_    0.339116 0.182130 0.569640 0.124955
H16   H     H_    0.560364 0.898097 0.878277 0.141925
H17   H     H_    0.462398 0.733003 0.771097 0.135204
H18   H     H_    0.369994 0.874402 0.596584 0.093254
H19   H     H_    0.603351 0.243022 0.913901 0.124901
H20   H     H_    0.354186 0.019376 0.583957 0.128734
H21   H     H_    0.368635 0.368400 0.624055 0.141066
H22   H     H_    0.334564 0.667784 0.194948 0.160352
H23   H     H_    0.614590 0.590682 0.307798 0.152170
C45   C     C_2   0.314561 0.602316 0.319031 -0.339267
C46   C     C_2   0.476510 0.610944 0.285313 -0.125611
H24   H     H_    0.772156 0.635598 0.206339 0.129664
C47   C     C_2   0.634411 0.655670 0.183420 -0.365725
C48   C     C_2   0.472593 0.647322 0.217312 -0.117782
H25   H     H_    0.176820 0.622302 0.296029 0.128845
O11   O     O_R   0.421600 0.630430 0.917010 -0.531517
O12   O     O_R   0.793840 0.702190 0.087630 -0.541657
O13   O     O_R   0.964010 0.886170 0.088190 -0.537153
C49   C     C_R   0.631069 0.693095 0.115905 0.770334
O14   O     O_R   0.751460 0.619510 0.917500 -0.549995
O15   O     O_R   0.921330 0.802900 0.916840 -0.551946
C50   C     C_R   0.573820 0.578688 0.893124 0.665926
O16   O     O_R   0.464290 0.713700 0.088350 -0.537075
O17   O     O_3   0.609200 0.818520 0.002630 -0.364588
V3    V     V_3+5 0.884140 0.747190 0.002530 1.421040
O18   O     O_R   0.251150 0.814630 0.917340 -0.532698
C51   C     C_R   0.075844 0.832564 0.894768 0.708157
O19   O     O_R   0.293530 0.897310 0.087470 -0.507986
C52   C     C_R   0.131959 0.933655 0.116510 0.747053
V4    V     V_3+5 0.384070 0.769710 0.002370 1.490093
O20   O     O_3   0.109180 0.698190 0.002460 -0.384507
C53   C     C_2   0.855326 0.990759 0.237574 0.788763
O21   O     O_2   0.680963 0.990405 0.219796 -0.553384
O22   O     O_R   0.932678 0.914621 0.262536 -0.673258
H26   H     H_    0.829274 0.865389 0.265904 0.280158
C54   C     C_2   0.295344 0.113573 0.184623 0.786961
O23   O     O_2   0.371064 0.175958 0.250337 -0.564641
O24   O     O_R   0.365726 0.107498 0.112154 -0.670933
H27   H     H_    0.477522 0.159482 0.122123 0.287289
C55   C     C_2   0.996813 0.686946 0.728652 0.724577
O25   O     O_2   0.145396 0.646513 0.739663 -0.578370
O26   O     O_R   0.826233 0.627708 0.698000 -0.663854
H28   H     H_    0.712008 0.670963 0.711601 0.249358

loop_
_geom_bond_atom_site_label_1
_geom_bond_atom_site_label_2
_ccdc_geom_bond_type
H10   C26   S    
C13   C19   A    
C32   C33   A    
C40   C42   A    
C4    C6    S    
O2    C1    A    
C7    C8    A    
C1    O6    A    
O14   V3    S    
C23   C24   D    
C23   C54   S    
C24   C53   S    
C24   C26   S    
C14   C15   A    
C17   C18   A    
C16   C17   A    
O5    C3    A    
C18   C19   A    
C54   O23   D    
V2    O10   S    
C5    C8    A    
O24   H27   S    
C55   O25   D    
O26   H28   S    
C31   H18   S    
O8    V2    S    
H11   C25   S    
O12   V3    S    
C17   H4    S    
O1    V2    S    
C11   C15   A    
O11   V4    S    
O7    V1    S    
C3    C25   S    
O13   V3    S    
C36   C37   A    
O9    C4    A    
C49   O16   A    
C53   O21   D    
O22   H26   S    
C38   H20   S    
C35   C41   A    
C47   C49   S    
C27   C30   A    
C42   H21   S    
C41   C44   A    
C12   C13   A    
C23   C52   S    
H23   C46   S    
C28   C44   A    
C15   H1    S    
C35   C36   A    
C21   H3    S    
C33   C37   A    
C1    C27   S    
C44   H13   S    
C28   C43   A    
C7    C11   A    
C45   H25   S    
C29   H16   S    
C28   C50   S    
O14   C50   A    
C47   C48   D    
O9    V2    S    
O17   V4    S    
O18   C51   A    
C39   C40   A    
C19   C22   A    
O17   V3    S    
C27   C31   A    
O15   C51   A    
C53   O22   S    
C6    C22   A    
O16   V4    S    
O3    C4    A    
C7    H5    S    
C8    C55   S    
C25   C26   D    
H24   C47   S    
O6    V2    S    
O19   V4    S    
O12   C49   A    
C10   C12   A    
O2    V1    S    
C36   H19   S    
C46   C48   S    
C29   C30   A    
O4    C2    A    
C31   C32   A    
O1    C2    A    
C30   H17   S    
C12   C16   A    
C45   C46   D    
O5    V1    S    
O8    C3    A    
C34   C38   A    
V3    O20   S    
C20   C21   A    
C32   C34   A    
C13   C14   A    
O4    V1    S    
O3    V1    S    
V1    O10   S    
C18   C20   A    
C34   C35   A    
C43   H14   S    
C9    H6    S    
C54   O24   S    
O18   V4    S    
C16   H8    S    
V4    O20   S    
C20   H9    S    
C39   H15   S    
C22   H2    S    
C42   C43   A    
O7    V2    S    
C38   C39   A    
C6    C21   A    
C55   O26   S    
O13   C52   A    
O15   V3    S    
C40   C41   A    
H22   C48   S    
C37   H12   S    
O19   C52   A    
C10   C11   A    
O11   C50   A    
C9    C10   A    
C5    C51   S    
C29   C33   A    
C14   H7    S    
C2    C45   S    
C5    C9    A    
