data_mof_unit_13046.cif
_audit_creation_date              2012-12-10T21:28:07-0500
_audit_creation_method            fapswitch 2.2
_symmetry_space_group_name_H-M    P1
_symmetry_Int_Tables_number       1
_space_group_crystal_system       triclinic
_cell_length_a                    12.745829
_cell_length_b                    16.288983
_cell_length_c                    16.497772
_cell_angle_alpha                 87.446285
_cell_angle_beta                  93.232677
_cell_angle_gamma                 98.258413
_cell_volume                      3381.99457607

loop_
_atom_site_label
_atom_site_type_symbol
_atom_type_description
_atom_site_fract_x
_atom_site_fract_y
_atom_site_fract_z
_atom_type_partial_charge
C1    C     C_R   0.491722 0.488396 0.654025 0.940979
C2    C     C_R   0.505130 0.511523 0.345892 0.983761
C3    C     C_R   0.391399 0.550904 0.850197 0.293529
C4    C     C_R   0.390566 0.454495 0.144258 0.307856
C5    C     C_R   0.371510 0.475042 0.894321 0.077388
C6    C     C_R   0.400523 0.531532 0.099902 0.056348
C7    C     C_R   0.378946 0.401266 0.855756 -0.055189
C8    C     C_R   0.458256 0.602313 0.135938 -0.086482
C9    C     C_R   0.408615 0.403156 0.774794 0.393514
C10   C     C_R   0.506822 0.596509 0.214212 0.441685
C11   C     C_R   0.420403 0.754505 0.495197 0.410758
C12   C     C_R   0.559636 0.238571 0.534257 0.412615
C13   C     C_R   0.416787 0.837476 0.518063 0.219234
C14   C     C_R   0.534201 0.152081 0.552888 0.195584
C15   C     C_R   0.512563 0.892465 0.525080 0.162937
C16   C     C_R   0.455444 0.104940 0.503709 0.168993
C17   C     C_R   0.606770 0.857206 0.532258 -0.016826
C18   C     C_R   0.386030 0.148718 0.455228 -0.092942
C19   C     C_R   0.605181 0.770165 0.529798 0.135955
C20   C     C_R   0.398976 0.237393 0.453707 0.171143
C21   C     C_R   0.702024 0.515369 0.501437 0.919911
C22   C     C_R   0.298167 0.484765 0.497474 0.903444
C23   C     C_R   0.186330 0.477908 0.486856 -0.095555
C24   C     C_R   0.813769 0.522400 0.514625 -0.099294
C25   C     C_R   0.969728 0.534524 0.603539 0.403267
C26   C     C_R   0.030533 0.468827 0.396440 0.403410
C27   C     C_R   0.860044 0.527690 0.593755 -0.077666
C28   C     C_R   0.139797 0.467999 0.408821 -0.031092
C29   C     C_R   0.873447 0.519445 0.447346 0.054991
C30   C     C_R   0.129337 0.490343 0.553300 0.063426
C31   C     C_R   0.976122 0.498653 0.459850 -0.115548
C32   C     C_R   0.026101 0.508532 0.539720 -0.016368
C33   C     C_R   0.456333 0.480764 0.739295 -0.413209
C34   C     C_R   0.497399 0.518325 0.256232 -0.396936
C35   C     C_R   0.453588 0.554703 0.782539 0.281741
C36   C     C_R   0.456205 0.446665 0.213921 0.259020
N1    N     N_2   0.369731 0.470172 0.980492 -0.064098
N2    N     N_2   0.377222 0.537601 0.014603 -0.044458
N3    N     N_R   0.512890 0.717880 0.509760 -0.150322
N4    N     N_R   0.487110 0.282120 0.490240 -0.139139
N5    N     N_2   0.520874 0.981842 0.526619 -0.028275
N6    N     N_2   0.441900 0.015195 0.501295 -0.015682
O1    O     O_R   0.495390 0.422190 0.612650 -0.534392
O2    O     O_R   0.504610 0.577810 0.387350 -0.516615
O3    O     O_R   0.503660 0.562120 0.618910 -0.569915
O4    O     O_R   0.496340 0.437880 0.381090 -0.562483
O5    O     O_R   0.650190 0.441600 0.497400 -0.528863
O6    O     O_R   0.349810 0.558400 0.502600 -0.554932
O7    O     O_R   0.658460 0.581530 0.503670 -0.653970
O8    O     O_R   0.341540 0.418470 0.496330 -0.599845
Zn1   Zn    Zn3+2 0.494480 0.406570 0.495820 1.112176
Zn2   Zn    Zn3+2 0.505520 0.593430 0.504180 1.088868
N7    N     N_3   0.174450 0.479065 0.634178 -0.360533
H1    H     H_    0.191396 0.418274 0.641510 0.222678
H2    H     H_    0.245267 0.519713 0.642141 0.216330
N8    N     N_3   0.834717 0.552180 0.370795 -0.377103
H3    H     H_    0.782486 0.507055 0.340557 0.279147
H4    H     H_    0.897098 0.577867 0.335117 0.269650
N9    N     N_3   0.705626 0.910749 0.543809 -0.342554
H5    H     H_    0.742371 0.893594 0.599001 0.244849
H6    H     H_    0.754325 0.901740 0.497010 0.223464
N10   N     N_3   0.300068 0.102202 0.409808 -0.351415
H7    H     H_    0.228474 0.117599 0.428254 0.217306
H8    H     H_    0.307079 0.118832 0.348228 0.239690
N11   N     N_3   0.704101 0.739821 0.545488 -0.444204
H9    H     H_    0.729211 0.720416 0.491257 0.253103
H10   H     H_    0.695870 0.692994 0.590750 0.258019
N12   N     N_3   0.318277 0.280635 0.415514 -0.360863
H11   H     H_    0.249629 0.265153 0.447946 0.196152
H12   H     H_    0.300364 0.260497 0.356598 0.233682
N13   N     N_3   0.206060 0.458251 0.343262 -0.433857
H13   H     H_    0.180325 0.488971 0.290467 0.253760
H14   H     H_    0.202525 0.395087 0.333733 0.269066
N14   N     N_3   0.798554 0.529056 0.664276 -0.336119
H15   H     H_    0.815672 0.480206 0.703790 0.265179
H16   H     H_    0.717304 0.516677 0.650266 0.215619
S1    S     S_3+6 0.032154 0.587555 0.689557 0.107217
O9    O     O_2   0.054048 0.525684 0.756454 -0.206296
O10   O     O_2   0.134499 0.638605 0.666423 -0.196771
O11   O     O_3   0.953723 0.651493 0.724380 -0.478406
H17   H     H_    0.944225 0.691899 0.678808 0.362977
S2    S     S_3+6 0.964490 0.421289 0.308061 0.024396
O12   O     O_2   0.022836 0.354384 0.280807 -0.241767
O13   O     O_2   0.854096 0.381820 0.325816 -0.269634
O14   O     O_3   0.959882 0.492946 0.231833 -0.548808
H18   H     H_    0.915614 0.463792 0.187710 0.416885
S3    S     S_3+6 0.517552 0.355280 0.227620 0.118774
O15   O     O_2   0.441113 0.285079 0.261197 -0.272290
O16   O     O_2   0.550066 0.331787 0.146586 -0.212845
O17   O     O_3   0.626614 0.371011 0.290288 -0.498558
H19   H     H_    0.640713 0.314705 0.308567 0.416225
S4    S     S_3+6 0.539828 0.649371 0.764238 0.103110
O18   O     O_2   0.489608 0.702470 0.700711 -0.241058
O19   O     O_2   0.561655 0.696380 0.841136 -0.222277
O20   O     O_3   0.656179 0.628861 0.733180 -0.572881
H20   H     H_    0.706291 0.680595 0.741176 0.393613
S5    S     S_3+6 0.286846 0.371950 0.122313 0.093751
O21   O     O_2   0.330442 0.304409 0.081670 -0.253444
O22   O     O_2   0.240484 0.336588 0.200196 -0.264983
O23   O     O_3   0.189920 0.406134 0.062156 -0.495740
H21   H     H_    0.139605 0.355663 0.049284 0.399730
S6    S     S_3+6 0.317674 0.633094 0.866083 0.138664
O24   O     O_2   0.379956 0.696127 0.920191 -0.269342
O25   O     O_2   0.292461 0.675235 0.786005 -0.161272
O26   O     O_3   0.203677 0.594440 0.909285 -0.471842
H22   H     H_    0.163655 0.642132 0.910699 0.409129
N15   N     N_3   0.360158 0.323636 0.900415 -0.286882
H23   H     H_    0.418214 0.323456 0.947705 0.260023
H24   H     H_    0.285144 0.318070 0.924377 0.263741
N16   N     N_3   0.468692 0.680967 0.092604 -0.295706
H25   H     H_    0.392679 0.695274 0.076734 0.255504
H26   H     H_    0.509021 0.676036 0.040007 0.272354
S7    S     S_3+6 0.389469 0.307263 0.723259 0.074501
O27   O     O_2   0.327508 0.316438 0.643993 -0.332398
O28   O     O_2   0.496650 0.285741 0.707304 -0.223709
O29   O     O_3   0.323432 0.227908 0.776860 -0.483449
H27   H     H_    0.327423 0.178041 0.745532 0.404414
S8    S     S_3+6 0.591675 0.684723 0.252364 0.089993
O30   O     O_2   0.525987 0.740460 0.290817 -0.238111
O31   O     O_2   0.672983 0.658751 0.314066 -0.309280
O32   O     O_3   0.656160 0.738103 0.176059 -0.493563
H28   H     H_    0.697016 0.787616 0.201399 0.397956
S9    S     S_3+6 0.694605 0.282357 0.553902 0.110927
O33   O     O_2   0.701650 0.346239 0.617617 -0.278236
O34   O     O_2   0.762999 0.218066 0.582848 -0.212944
O35   O     O_3   0.744944 0.323809 0.466936 -0.523404
H29   H     H_    0.821960 0.338325 0.480215 0.388970
S10   S     S_3+6 0.312048 0.713651 0.427750 0.128601
O36   O     O_2   0.221305 0.671528 0.475516 -0.248802
O37   O     O_2   0.274425 0.784607 0.378414 -0.229078
O38   O     O_3   0.343422 0.647408 0.361430 -0.520105
H30   H     H_    0.280490 0.637226 0.323295 0.368543
S11   S     S_3+6 0.585415 0.107294 0.645618 0.139222
O39   O     O_2   0.675103 0.061016 0.628383 -0.240808
O40   O     O_2   0.625826 0.172425 0.705781 -0.156298
O41   O     O_3   0.488633 0.040999 0.687904 -0.491142
H31   H     H_    0.525160 0.010176 0.731398 0.406401
S12   S     S_3+6 0.295571 0.866916 0.548685 0.138337
O42   O     O_2   0.241390 0.908767 0.478425 -0.234045
O43   O     O_2   0.222511 0.792438 0.578386 -0.176234
O44   O     O_3   0.320673 0.932759 0.625190 -0.477941
H32   H     H_    0.252635 0.953748 0.631998 0.392903

loop_
_geom_bond_atom_site_label_1
_geom_bond_atom_site_label_2
_ccdc_geom_bond_type
C22   O6    A    
S3    O15   D    
C4    C36   A    
O35   H29   S    
C5    N1    S    
N5    N6    D    
O20   H20   S    
C24   C27   A    
C1    O3    A    
S10   O36   D    
C21   O7    A    
S5    O21   D    
C1    C33   S    
S9    O33   D    
O14   H18   S    
O29   H27   S    
N10   H7    S    
N14   H16   S    
C25   S1    S    
O6    Zn2   S    
C20   N4    A    
S9    O34   D    
N8    H3    S    
S6    O26   S    
C15   C17   A    
S8    O30   D    
S4    O18   D    
N10   H8    S    
C17   C19   A    
C24   C29   A    
C1    O1    A    
C2    O2    A    
N12   H11   S    
N11   H10   S    
S11   O41   S    
N15   H23   S    
C6    N2    S    
C27   N14   S    
C18   C20   A    
C22   O8    A    
S7    O29   S    
C35   S4    S    
C2    C34   S    
C25   C32   A    
N7    H2    S    
N3    Zn2   S    
N9    H5    S    
C26   S2    S    
C4    S5    S    
C7    N15   S    
C9    C33   A    
N15   H24   S    
S5    O22   D    
N16   H26   S    
S1    O10   D    
C36   S3    S    
C30   N7    S    
N9    H6    S    
N14   H15   S    
C23   C30   A    
C15   N5    S    
C4    C6    A    
N13   H14   S    
C18   N10   S    
S9    O35   S    
C6    C8    A    
O3    Zn2   S    
S1    O9    D    
O4    Zn1   S    
S4    O20   S    
C2    O4    A    
N16   H25   S    
S8    O32   S    
C12   N4    A    
C11   N3    A    
N1    N2    D    
C10   S8    S    
C8    N16   S    
C31   C32   A    
C3    C35   A    
O7    Zn2   S    
S4    O19   D    
O8    Zn1   S    
C10   C34   A    
C23   C28   A    
S6    O25   D    
O32   H28   S    
C19   N3    A    
C17   N9    S    
C3    S6    S    
C8    C10   A    
C29   N8    S    
C12   C14   A    
N11   H9    S    
S2    O13   D    
C13   C15   A    
S11   O39   D    
C14   C16   A    
S3    O17   S    
C28   N13   S    
O38   H30   S    
S2    O14   S    
S10   O38   S    
C16   N6    S    
S5    O23   S    
C5    C7    A    
S7    O27   D    
S1    O11   S    
C7    C9    A    
C20   N12   S    
O11   H17   S    
C3    C5    A    
S12   O44   S    
S10   O37   D    
O2    Zn2   S    
O5    Zn1   S    
N7    H1    S    
S12   O43   D    
C14   S11   S    
C25   C27   A    
N4    Zn1   S    
O26   H22   S    
C26   C28   A    
C9    S7    S    
C13   S12   S    
S3    O16   D    
C11   S10   S    
N13   H13   S    
C29   C31   A    
O44   H32   S    
C30   C32   A    
C11   C13   A    
O1    Zn1   S    
O17   H19   S    
C12   S9    S    
O23   H21   S    
C33   C35   A    
N8    H4    S    
C19   N11   S    
C34   C36   A    
S6    O24   D    
S8    O31   D    
S12   O42   D    
C26   C31   A    
C16   C18   A    
S2    O12   D    
C21   C24   S    
S11   O40   D    
N12   H12   S    
C22   C23   S    
O41   H31   S    
C21   O5    A    
S7    O28   D    
