data_mof_unit_19407.cif
_audit_creation_date              2012-12-10T16:54:29-0500
_audit_creation_method            fapswitch 2.2
_symmetry_space_group_name_H-M    P1
_symmetry_Int_Tables_number       1
_space_group_crystal_system       triclinic
_cell_length_a                    15.071267
_cell_length_b                    10.9204
_cell_length_c                    9.682563
_cell_angle_alpha                 90.082994
_cell_angle_beta                  89.658376
_cell_angle_gamma                 90.189245
_cell_volume                      1593.5588603

loop_
_atom_site_label
_atom_site_type_symbol
_atom_type_description
_atom_site_fract_x
_atom_site_fract_y
_atom_site_fract_z
_atom_type_partial_charge
C1    C     C_R   0.496944 0.265391 0.499970 0.869711
C2    C     C_R   0.908300 0.541613 0.392668 0.119838
C3    C     C_R   0.946731 0.342867 0.700938 -0.078551
C4    C     C_R   0.039949 0.329579 0.694627 -0.088965
C5    C     C_R   0.091163 0.402661 0.600550 -0.038758
C6    C     C_R   0.045771 0.470037 0.497417 0.053926
C7    C     C_R   0.093382 0.532730 0.392725 0.120897
C8    C     C_R   0.048686 0.595592 0.288270 -0.166072
C9    C     C_R   0.956722 0.599818 0.288097 -0.166698
C10   C     C_R   0.185655 0.412712 0.605521 -0.038093
C11   C     C_R   0.231668 0.479113 0.501089 -0.144430
C12   C     C_R   0.328694 0.493547 0.500582 0.824536
C13   C     C_R   0.185241 0.534051 0.393930 -0.225214
C14   C     C_2   0.494626 0.933043 0.392917 -0.216667
C15   C     C_2   0.524473 0.865540 0.499524 -0.157720
C16   C     C_2   0.500758 0.066611 0.387534 -0.112517
C17   C     C_2   0.488313 0.133651 0.501565 -0.235558
C18   C     C_2   0.459291 0.417452 0.922530 -0.047622
C19   C     C_2   0.454280 0.422460 0.078090 -0.056428
C20   C     C_R   0.505156 0.734693 0.500093 0.790434
C21   C     C_R   0.671143 0.499461 0.499600 0.811256
C22   C     C_R   0.816092 0.548648 0.393345 -0.205249
C23   C     C_R   0.767464 0.493178 0.499015 -0.070763
C24   C     C_R   0.810366 0.427886 0.602731 -0.182993
C25   C     C_R   0.903140 0.416617 0.602885 0.014872
C26   C     C_R   0.952501 0.475634 0.497796 0.068452
Cu1   Cu    Cu3+1 0.500020 0.500020 0.638630 1.015631
Cu2   Cu    Cu3+1 0.499980 0.499980 0.361370 0.970635
H1    H     H_    0.782104 0.598836 0.312909 0.155478
H2    H     H_    0.511215 0.109592 0.287621 0.174071
H3    H     H_    0.471868 0.090754 0.599617 0.164608
H4    H     H_    0.426245 0.341675 0.871789 0.182684
H5    H     H_    0.526414 0.573931 0.893969 0.214094
H6    H     H_    0.411729 0.356261 0.129582 0.153937
H7    H     H_    0.543352 0.556518 0.105504 0.204249
H8    H     H_    0.769998 0.382763 0.680290 0.173739
H9    H     H_    0.220999 0.583651 0.313926 0.164879
H10   H     H_    0.085038 0.642824 0.207290 0.160933
H11   H     H_    0.923443 0.649780 0.206910 0.160822
H12   H     H_    0.459943 0.889450 0.307812 0.175139
N1    N     N_2   0.499020 0.498660 0.846910 -0.273959
N2    N     N_2   0.499000 0.498630 0.153040 -0.277562
O1    O     O_R   0.500020 0.321960 0.617040 -0.566903
O2    O     O_R   0.499980 0.321920 0.382900 -0.586070
O3    O     O_R   0.370270 0.499990 0.617090 -0.557716
O4    O     O_R   0.370240 0.499950 0.382940 -0.579277
O5    O     O_R   0.500020 0.678080 0.617100 -0.539204
O6    O     O_R   0.499980 0.678040 0.382960 -0.583635
O7    O     O_R   0.629760 0.500050 0.617060 -0.571384
O8    O     O_R   0.629730 0.500010 0.382910 -0.575452
C27   C     C_2   0.586523 0.914316 0.606226 0.843830
O9    O     O_2   0.583325 0.875397 0.724524 -0.580662
O10   O     O_R   0.650487 0.001912 0.570047 -0.740676
H13   H     H_    0.688744 0.027296 0.651049 0.343745
C28   C     C_2   0.894693 0.273926 0.806243 0.875616
O11   O     O_2   0.855336 0.329255 0.897684 -0.573282
O12   O     O_R   0.891511 0.146078 0.800767 -0.740293
H14   H     H_    0.854213 0.109635 0.877987 0.342774
C29   C     C_2   0.080325 0.230851 0.778576 0.911580
O13   O     O_2   0.119215 0.146681 0.721172 -0.555585
O14   O     O_R   0.072036 0.232919 0.922482 -0.722496
H15   H     H_    0.101938 0.160448 0.967797 0.340402
C30   C     C_2   0.236501 0.362450 0.722931 0.865892
O15   O     O_2   0.290384 0.280664 0.703203 -0.594408
O16   O     O_R   0.222492 0.409208 0.855740 -0.741406
H16   H     H_    0.259657 0.366384 0.927847 0.323608

loop_
_geom_bond_atom_site_label_1
_geom_bond_atom_site_label_2
_ccdc_geom_bond_type
C2    C22   A    
C29   O13   D    
C11   C12   S    
C30   O16   S    
C6    C7    A    
C22   H1    S    
C15   C27   S    
Cu1   N1    S    
C1    O2    A    
C1    C17   S    
C10   C30   S    
C19   N2    D    
C9    H11   S    
C28   O11   D    
H5    N1    S    
Cu1   O3    S    
C21   O7    A    
C6    C26   A    
C5    C10   A    
C2    C26   A    
C28   O12   S    
C20   O6    A    
O10   H13   S    
C30   O15   D    
C11   C13   A    
Cu2   O4    S    
O12   H14   S    
C24   H8    S    
Cu2   O8    S    
C5    C6    A    
C4    C29   S    
Cu2   N2    S    
C21   O8    A    
C1    O1    A    
O16   H16   S    
C19   H6    S    
C8    H10   S    
C21   C23   S    
O14   H15   S    
C17   H3    S    
C14   C16   S    
C29   O14   S    
C20   O5    A    
C7    C8    A    
C10   C11   A    
C23   C24   A    
C14   H12   S    
C27   O9    D    
C16   H2    S    
C7    C13   A    
C3    C25   A    
C18   H4    S    
C24   C25   A    
C8    C9    A    
C15   C20   S    
C18   C19   S    
C18   N1    D    
Cu1   O5    S    
Cu1   Cu2   S    
H7    N2    S    
Cu1   O1    S    
C14   C15   D    
C4    C5    A    
C27   O10   S    
C25   C26   A    
C22   C23   A    
C2    C9    A    
C13   H9    S    
Cu2   O2    S    
Cu2   O6    S    
C3    C4    A    
Cu1   O7    S    
C16   C17   D    
C12   O3    A    
C3    C28   S    
C12   O4    A    
