data_mof_unit_30760.cif
_audit_creation_date              2012-12-10T20:10:25-0500
_audit_creation_method            fapswitch 2.2
_symmetry_space_group_name_H-M    P1
_symmetry_Int_Tables_number       1
_space_group_crystal_system       triclinic
_cell_length_a                    19.337372
_cell_length_b                    18.431713
_cell_length_c                    11.506734
_cell_angle_alpha                 89.568503
_cell_angle_beta                  89.758733
_cell_angle_gamma                 90.089091
_cell_volume                      4101.08255728

loop_
_atom_site_label
_atom_site_type_symbol
_atom_type_description
_atom_site_fract_x
_atom_site_fract_y
_atom_site_fract_z
_atom_type_partial_charge
C1    C     C_R   0.365695 0.500050 0.500793 0.905719
C2    C     C_R   0.634330 0.499948 0.499273 0.902317
C3    C     C_R   0.071344 0.504075 0.501854 0.200355
C4    C     C_R   0.928738 0.495424 0.499376 0.200899
C5    C     C_R   0.463775 0.726020 0.582698 0.015130
C6    C     C_R   0.536659 0.273993 0.417816 0.015490
C7    C     C_R   0.533310 0.725980 0.413216 0.013389
C8    C     C_R   0.466256 0.273985 0.586287 0.014829
C9    C     C_R   0.461357 0.802116 0.581067 -0.263294
C10   C     C_R   0.539139 0.197891 0.419503 -0.265599
C11   C     C_R   0.533127 0.802056 0.409223 -0.286254
C12   C     C_R   0.466534 0.197900 0.590348 -0.286390
C13   C     C_R   0.496654 0.841155 0.493809 0.151943
C14   C     C_R   0.503489 0.158822 0.506318 0.151894
C15   C     C_R   0.465046 0.964342 0.409282 -0.053836
C16   C     C_R   0.535221 0.035615 0.590757 -0.053687
C17   C     C_R   0.534030 0.958639 0.586363 -0.055282
C18   C     C_R   0.466216 0.041317 0.413690 -0.055250
C19   C     C_R   0.501297 0.077398 0.504410 -0.024601
C20   C     C_R   0.498917 0.922570 0.495683 -0.024748
C21   C     C_R   0.500062 0.500175 0.281662 0.913284
C22   C     C_R   0.500036 0.499840 0.718337 0.911661
C23   C     C_1   0.500298 0.500302 0.161393 -0.205973
C24   C     C_1   0.500135 0.499796 0.838605 -0.207836
C25   C     C_1   0.500375 0.500131 0.059229 -0.046884
C26   C     C_1   0.500270 0.500061 0.940769 -0.047944
C27   C     C_R   0.744735 0.451321 0.576043 -0.169640
C28   C     C_R   0.255194 0.547479 0.422719 -0.171539
C29   C     C_R   0.253291 0.458463 0.583566 -0.160670
C30   C     C_R   0.746967 0.542461 0.418311 -0.158707
C31   C     C_R   0.817348 0.449769 0.577206 0.385762
C32   C     C_R   0.182513 0.548594 0.421528 0.390244
C33   C     C_R   0.180936 0.464630 0.590428 0.379019
C34   C     C_R   0.819382 0.536556 0.411970 0.389658
C35   C     C_R   0.853786 0.492728 0.494867 -0.242209
C36   C     C_R   0.146321 0.507033 0.505960 -0.233401
C37   C     C_R   0.709922 0.498785 0.498677 -0.243337
C38   C     C_R   0.290149 0.501194 0.501691 -0.237175
C39   C     C_R   0.960804 0.555954 0.548428 -0.061668
C40   C     C_R   0.039295 0.443434 0.453121 -0.048703
C41   C     C_R   0.032307 0.560276 0.549758 -0.018966
C42   C     C_R   0.967773 0.439098 0.451760 -0.003976
H1    H     H_    0.930338 0.599450 0.585241 0.144733
H2    H     H_    0.069786 0.399933 0.416380 0.142085
H3    H     H_    0.057324 0.606560 0.589105 0.164338
H4    H     H_    0.942757 0.392751 0.412607 0.153681
H5    H     H_    0.436394 0.696119 0.649814 0.127671
H6    H     H_    0.564348 0.303911 0.351079 0.126853
H7    H     H_    0.559699 0.695730 0.346843 0.149862
H8    H     H_    0.439442 0.304208 0.652224 0.149131
H9    H     H_    0.432777 0.830398 0.647936 0.137703
H10   H     H_    0.568055 0.169626 0.353021 0.137286
H11   H     H_    0.561932 0.830064 0.341659 0.131195
H12   H     H_    0.437421 0.169866 0.657512 0.130864
N1    N     N_R   0.500000 0.689440 0.500000 -0.091573
N2    N     N_R   0.500000 0.310560 0.500000 -0.090865
O1    O     O_R   0.398180 0.560840 0.499970 -0.621319
O2    O     O_R   0.601820 0.439160 0.500030 -0.622107
O3    O     O_R   0.601820 0.560840 0.500030 -0.615915
O4    O     O_R   0.398180 0.439160 0.499970 -0.616658
O5    O     O_R   0.500010 0.560810 0.334440 -0.614462
O6    O     O_R   0.499990 0.439190 0.665560 -0.614513
O7    O     O_R   0.499990 0.560810 0.665560 -0.621408
O8    O     O_R   0.500010 0.439190 0.334440 -0.621542
Zn1   Zn    Zn3+2 0.500000 0.581210 0.500000 0.945674
Zn2   Zn    Zn3+2 0.500000 0.418790 0.500000 0.945583
C43   C     C_R   0.704259 0.404394 0.656397 0.235854
C44   C     C_R   0.679591 0.431895 0.762198 -0.077980
C45   C     C_R   0.638792 0.388309 0.835183 -0.121659
C46   C     C_R   0.620005 0.318469 0.800787 -0.101990
C47   C     C_R   0.643567 0.291320 0.694712 -0.126832
C48   C     C_R   0.686589 0.333543 0.623514 -0.046116
H13   H     H_    0.692346 0.486651 0.788137 0.126205
H14   H     H_    0.620973 0.409001 0.917744 0.138910
H15   H     H_    0.586938 0.285579 0.856082 0.129447
H16   H     H_    0.627952 0.237879 0.666988 0.156485
H17   H     H_    0.704257 0.312134 0.541191 0.120119
C49   C     C_R   0.295615 0.593207 0.340446 0.212490
C50   C     C_R   0.314703 0.663975 0.371598 -0.040665
C51   C     C_R   0.357290 0.705186 0.298164 -0.125657
C52   C     C_R   0.378904 0.677169 0.191520 -0.099852
C53   C     C_R   0.358662 0.607425 0.158846 -0.117039
C54   C     C_R   0.318273 0.564848 0.233996 -0.096394
H18   H     H_    0.298452 0.686101 0.454243 0.122682
H19   H     H_    0.374016 0.758544 0.324526 0.155929
H20   H     H_    0.411549 0.709346 0.134435 0.127996
H21   H     H_    0.375018 0.586010 0.075907 0.140102
H22   H     H_    0.304296 0.510199 0.209249 0.130572
C55   C     C_R   0.289899 0.407721 0.662957 0.210592
C56   C     C_R   0.281389 0.332454 0.650166 -0.051265
C57   C     C_R   0.308132 0.284552 0.733304 -0.161185
C58   C     C_R   0.344431 0.311352 0.828650 -0.146296
C59   C     C_R   0.354561 0.386037 0.840363 -0.111585
C60   C     C_R   0.327711 0.434242 0.757612 -0.066369
H23   H     H_    0.252299 0.311180 0.577733 0.133991
H24   H     H_    0.300695 0.226690 0.723872 0.134003
H25   H     H_    0.365073 0.274234 0.893008 0.123478
H26   H     H_    0.382220 0.406544 0.914712 0.138370
H27   H     H_    0.334222 0.492098 0.769309 0.108015
C61   C     C_R   0.710425 0.593406 0.339118 0.212075
C62   C     C_R   0.673065 0.567059 0.243818 -0.068050
C63   C     C_R   0.646260 0.615421 0.161273 -0.112078
C64   C     C_R   0.656091 0.690103 0.173719 -0.147856
C65   C     C_R   0.691879 0.716727 0.269746 -0.162580
C66   C     C_R   0.718473 0.668660 0.352783 -0.047694
H28   H     H_    0.666829 0.509221 0.231529 0.107566
H29   H     H_    0.618845 0.595034 0.086566 0.138742
H30   H     H_    0.635525 0.727357 0.109492 0.123823
H31   H     H_    0.699009 0.774587 0.279811 0.133640
H32   H     H_    0.747115 0.689813 0.425806 0.135134
S1    S     S_3+6 0.863688 0.393501 0.678566 0.030913
O9    O     O_2   0.892053 0.329449 0.613997 -0.308445
O10   O     O_2   0.922811 0.435561 0.729164 -0.225842
O11   O     O_3   0.814939 0.362599 0.789747 -0.555342
H33   H     H_    0.844934 0.327991 0.832219 0.392306
S2    S     S_3+6 0.135362 0.600965 0.315958 0.034748
O12   O     O_2   0.180061 0.632767 0.221410 -0.275545
O13   O     O_2   0.082043 0.553237 0.260288 -0.246473
O14   O     O_3   0.095209 0.669407 0.384418 -0.568467
H34   H     H_    0.056424 0.683323 0.332935 0.410182
S3    S     S_3+6 0.133096 0.419046 0.703880 0.038298
O15   O     O_2   0.071145 0.462729 0.739446 -0.231095
O16   O     O_2   0.109120 0.346988 0.658739 -0.304852
O17   O     O_3   0.180984 0.405283 0.823685 -0.541401
H35   H     H_    0.154337 0.369942 0.871280 0.393438
S4    S     S_3+6 0.867401 0.584058 0.300700 0.022771
O18   O     O_2   0.931084 0.542711 0.266577 -0.238099
O19   O     O_2   0.888625 0.656675 0.347370 -0.335358
O20   O     O_3   0.820396 0.596706 0.179596 -0.539335
H36   H     H_    0.846037 0.633724 0.133751 0.392597
C67   C     C_R   0.423956 0.928113 0.318027 0.148809
C68   C     C_R   0.455208 0.907051 0.213256 -0.163406
C69   C     C_R   0.415212 0.877169 0.124642 -0.166536
C70   C     C_R   0.343885 0.868719 0.139778 -0.101402
C71   C     C_R   0.312468 0.889848 0.243781 -0.125316
C72   C     C_R   0.352352 0.919394 0.332836 -0.161129
H37   H     H_    0.510170 0.914827 0.199641 0.111331
H38   H     H_    0.439364 0.860979 0.043933 0.123651
H39   H     H_    0.312999 0.845643 0.071055 0.143472
H40   H     H_    0.257245 0.883263 0.255410 0.155750
H41   H     H_    0.327479 0.936260 0.412678 0.131589
C73   C     C_R   0.576382 0.071757 0.682001 0.147935
C74   C     C_R   0.648154 0.079368 0.667922 -0.160923
C75   C     C_R   0.688117 0.108424 0.757293 -0.127071
C76   C     C_R   0.656628 0.130098 0.860930 -0.102540
C77   C     C_R   0.585152 0.122664 0.875400 -0.165577
C78   C     C_R   0.545061 0.093348 0.786426 -0.163438
H42   H     H_    0.673088 0.061988 0.588424 0.131103
H43   H     H_    0.743461 0.114174 0.746208 0.152288
H44   H     H_    0.687579 0.152766 0.929919 0.138061
H45   H     H_    0.560951 0.139220 0.955871 0.122856
H46   H     H_    0.489980 0.086278 0.799601 0.111553
C79   C     C_R   0.571356 0.915472 0.675739 0.147213
C80   C     C_R   0.546076 0.911305 0.790218 -0.142873
C81   C     C_R   0.581036 0.870029 0.873737 -0.143998
C82   C     C_R   0.641050 0.832369 0.843340 -0.103013
C83   C     C_R   0.666311 0.836066 0.729435 -0.121647
C84   C     C_R   0.631700 0.877553 0.645803 -0.137861
H47   H     H_    0.499202 0.939608 0.814404 0.117991
H48   H     H_    0.561575 0.867069 0.961958 0.116068
H49   H     H_    0.667944 0.800285 0.908010 0.126702
H50   H     H_    0.712724 0.806791 0.705945 0.136204
H51   H     H_    0.651723 0.880087 0.557808 0.122949
C85   C     C_R   0.428882 0.084464 0.324328 0.147500
C86   C     C_R   0.368332 0.122057 0.354139 -0.137459
C87   C     C_R   0.333704 0.163540 0.270524 -0.121383
C88   C     C_R   0.359160 0.167562 0.156764 -0.102831
C89   C     C_R   0.419386 0.130233 0.126499 -0.143838
C90   C     C_R   0.454362 0.088959 0.210006 -0.143240
H52   H     H_    0.348163 0.119272 0.442025 0.123252
H53   H     H_    0.287127 0.192561 0.293912 0.136463
H54   H     H_    0.332252 0.199642 0.092106 0.126819
H55   H     H_    0.438998 0.133446 0.038392 0.116013
H56   H     H_    0.501396 0.060913 0.185933 0.117515

loop_
_geom_bond_atom_site_label_1
_geom_bond_atom_site_label_2
_ccdc_geom_bond_type
C15   C18   A    
C66   H32   S    
O7    Zn1   S    
C86   C87   A    
C30   C61   S    
S1    O9    D    
C9    H9    S    
C7    N1    A    
C10   H10   S    
C8    N2    A    
C29   C55   S    
O11   H33   S    
C88   H54   S    
C56   H23   S    
C39   C41   A    
C7    C11   A    
C5    H5    S    
C61   C66   A    
C62   C63   A    
C6    H6    S    
C71   C72   A    
C32   C36   A    
C85   C86   A    
C24   C26   T    
C43   C48   A    
C16   C19   A    
C50   H18   S    
C53   H21   S    
C29   C33   A    
C79   C84   A    
C17   C20   A    
C18   C19   A    
S2    O12   D    
C34   C35   A    
C42   H4    S    
C55   C60   A    
C9    C13   A    
C61   C62   A    
S3    O17   S    
C64   C65   A    
C48   H17   S    
C63   C64   A    
C57   H24   S    
C18   C85   S    
C49   C54   A    
O2    Zn2   S    
C83   C84   A    
C3    C41   A    
C16   C17   A    
C21   O8    A    
C29   C38   A    
C90   H56   S    
C33   C36   A    
C64   H30   S    
C28   C49   S    
C40   H2    S    
C21   O5    A    
C76   H44   S    
C13   C20   S    
C8    C12   A    
C44   H13   S    
C40   C42   A    
C54   H22   S    
C22   O7    A    
C4    C35   S    
C17   C79   S    
C69   H38   S    
C88   C89   A    
C86   H52   S    
C33   S3    S    
C85   C90   A    
C89   H55   S    
C14   C19   S    
C65   C66   A    
N1    Zn1   S    
C58   H25   S    
C76   C77   A    
C45   H14   S    
C71   H40   S    
C30   C34   A    
C27   C31   A    
C43   C44   A    
C28   C32   A    
C7    H7    S    
C67   C72   A    
C10   C14   A    
C1    O4    A    
O1    Zn1   S    
C57   C58   A    
O6    Zn2   S    
C49   C50   A    
C44   C45   A    
C39   H1    S    
S4    O20   S    
C25   C26   S    
C52   C53   A    
C77   H45   S    
C30   C37   A    
C15   C20   A    
O8    Zn2   S    
C16   C73   S    
C5    C9    A    
C51   H19   S    
C1    O1    A    
C22   O6    A    
C4    C39   A    
C28   C38   A    
C34   S4    S    
C82   H49   S    
S3    O15   D    
C63   H29   S    
S1    O10   D    
C59   C60   A    
C32   S2    S    
C80   C81   A    
C46   C47   A    
C1    C38   S    
C84   H51   S    
C89   C90   A    
C12   C14   A    
C3    C40   A    
C21   C23   S    
C69   C70   A    
C31   C35   A    
C67   C68   A    
C55   C56   A    
C8    H8    S    
C47   H16   S    
C70   H39   S    
C77   C78   A    
C62   H28   S    
C82   C83   A    
S4    O19   D    
C75   H43   S    
C81   H48   S    
C2    O3    A    
C73   C78   A    
C5    N1    A    
C52   H20   S    
C6    N2    A    
C51   C52   A    
C11   H11   S    
C6    C10   A    
O14   H34   S    
C2    O2    A    
C70   C71   A    
S2    O14   S    
C75   C76   A    
C3    C36   S    
C47   C48   A    
C78   H46   S    
C68   H37   S    
C80   H47   S    
C41   H3    S    
O3    Zn1   S    
C11   C13   A    
C2    C37   S    
C56   C57   A    
C65   H31   S    
C87   C88   A    
C4    C42   A    
C60   H27   S    
C27   C37   A    
S4    O18   D    
N2    Zn2   S    
C59   H26   S    
C58   C59   A    
C72   H41   S    
S2    O13   D    
C68   C69   A    
S1    O11   S    
C22   C24   S    
C23   C25   T    
C45   C46   A    
C74   H42   S    
S3    O16   D    
C27   C43   S    
O4    Zn2   S    
C50   C51   A    
O5    Zn1   S    
C87   H53   S    
C15   C67   S    
C46   H15   S    
C53   C54   A    
C81   C82   A    
C73   C74   A    
C31   S1    S    
O20   H36   S    
C79   C80   A    
C83   H50   S    
C12   H12   S    
C74   C75   A    
O17   H35   S    
