data_mof_unit_19500.cif
_audit_creation_date              2012-12-11T17:07:49-0500
_audit_creation_method            fapswitch 2.2
_symmetry_space_group_name_H-M    P1
_symmetry_Int_Tables_number       1
_space_group_crystal_system       triclinic
_cell_length_a                    17.551844
_cell_length_b                    17.558248
_cell_length_c                    17.281804
_cell_angle_alpha                 90.120446
_cell_angle_beta                  90.530966
_cell_angle_gamma                 89.539236
_cell_volume                      5325.48811124

loop_
_atom_site_label
_atom_site_type_symbol
_atom_type_description
_atom_site_fract_x
_atom_site_fract_y
_atom_site_fract_z
_atom_type_partial_charge
C1    C     C_R   0.418285 0.324741 0.861476 -0.156518
C2    C     C_R   0.195676 0.898335 0.395470 -0.117145
C3    C     C_R   0.767604 0.846096 0.210364 -0.189519
C4    C     C_R   0.252322 0.306933 0.632384 -0.172805
C5    C     C_R   0.232740 0.855362 0.791450 -0.207609
C6    C     C_R   0.839483 0.754519 0.771577 -0.220573
C7    C     C_R   0.762611 0.156153 0.783289 -0.223897
C8    C     C_R   0.725124 0.190652 0.844693 -0.159437
C9    C     C_R   0.806016 0.722264 0.836513 -0.152085
C10   C     C_R   0.278106 0.812671 0.842208 -0.233464
C11   C     C_R   0.291627 0.350631 0.688213 -0.206246
C12   C     C_R   0.730587 0.808004 0.150254 -0.163071
C13   C     C_R   0.077151 0.169712 0.356978 -0.227161
C14   C     C_R   0.815261 0.280480 0.154961 -0.170896
C15   C     C_R   0.231827 0.216877 0.138421 -0.242242
C16   C     C_R   0.301650 0.658946 0.310997 -0.226316
C17   C     C_3   0.001622 0.270363 0.861608 -0.383991
C18   C     C_3   0.709868 0.986830 0.845521 -0.229665
C19   C     C_3   0.995858 0.814640 0.840955 -0.278215
C20   C     C_3   0.208612 0.160736 0.808215 -0.287197
C21   C     C_3   0.997013 0.697496 0.176380 -0.376863
C22   C     C_3   0.781249 0.016820 0.123434 -0.315451
C23   C     C_3   0.067113 0.324320 0.217510 -0.284435
C24   C     C_R   0.827661 0.082209 0.357539 -0.241559
C25   C     C_3   0.147432 0.810325 0.196456 -0.284341
C26   C     C_3   0.437552 0.894932 0.198998 -0.292090
C27   C     C_3   0.329280 0.358645 0.374925 -0.338421
C28   C     C_3   0.589638 0.216435 0.257935 -0.255447
C29   C     C_3   0.726148 0.619949 0.286839 -0.318198
C30   C     C_3   0.486037 0.144950 0.687570 -0.302768
C31   C     C_3   0.187428 0.586148 0.746234 -0.241600
C32   C     C_3   0.600847 0.738622 0.712506 -0.284129
C33   C     C_3   0.751393 0.386144 0.727171 -0.313719
C34   C     C_3   0.930041 0.418227 0.682025 -0.280704
C35   C     C_R   0.914478 0.181864 0.633431 -0.252286
C36   C     C_3   0.582730 0.933993 0.651238 -0.245700
C37   C     C_3   0.990263 0.614702 0.751391 -0.254619
C38   C     C_3   0.371118 0.999205 0.732284 -0.238217
C39   C     C_3   0.896897 0.586869 0.365807 -0.316613
C40   C     C_3   0.605451 0.018614 0.281600 -0.142499
C41   C     C_3   0.129242 0.389591 0.438927 -0.165636
C42   C     C_3   0.281567 0.999479 0.189659 -0.117846
C43   C     C_3   0.267423 0.835500 0.047259 -0.162367
C44   C     C_3   0.162653 0.493536 0.265455 -0.128637
C45   C     C_3   0.574910 0.064483 0.072963 -0.172076
C46   C     C_R   0.198650 0.104231 0.595182 -0.061726
C47   C     C_3   0.911639 0.515334 0.174955 -0.122866
C48   C     C_3   0.403749 0.122130 0.904700 -0.124744
C49   C     C_3   0.061159 0.591685 0.948672 -0.177248
C50   C     C_3   0.527930 0.921215 0.851349 -0.235559
C51   C     C_3   0.918586 0.466283 0.880905 -0.207732
C52   C     C_3   0.424546 0.724093 0.771727 -0.158011
C53   C     C_3   0.199360 0.406578 0.863813 -0.221273
C54   C     C_3   0.575218 0.292982 0.770655 -0.262213
C55   C     C_3   0.735447 0.566747 0.777341 -0.162566
C56   C     C_3   0.405269 0.184041 0.164810 -0.204589
C57   C     C_R   0.082110 0.824183 0.639343 -0.218428
C58   C     C_3   0.390071 0.495672 0.229640 -0.146899
C59   C     C_3   0.570117 0.739137 0.219433 -0.356425
C60   C     C_3   0.719969 0.428776 0.228132 -0.107266
C61   C     C_3   0.933309 0.285263 0.442734 -0.166217
C62   C     C_3   0.713508 0.933865 0.441251 -0.215408
C63   C     C_3   0.081925 0.678836 0.378667 -0.332865
C64   C     C_3   0.291022 0.079812 0.409625 -0.270834
C65   C     C_3   0.934728 0.712439 0.544310 -0.201998
C66   C     C_3   0.885651 0.004829 0.738760 -0.280744
C67   C     C_3   0.079771 0.292276 0.676775 -0.251093
C68   C     C_R   0.809187 0.901196 0.616704 -0.124588
C69   C     C_3   0.119939 0.007702 0.741842 -0.106548
C70   C     C_3   0.906864 0.322069 0.774370 0.889110
C71   C     C_3   0.669977 0.895973 0.747204 0.895566
C72   C     C_3   0.070176 0.706958 0.806979 0.880582
C73   C     C_R   0.698317 0.392566 0.910740 -0.125322
C74   C     C_3   0.319271 0.122757 0.733522 0.962115
C75   C     C_3   0.890984 0.669206 0.258722 0.878655
C76   C     C_3   0.696716 0.083571 0.209163 0.884169
C77   C     C_3   0.159707 0.327597 0.323412 0.842503
C78   C     C_3   0.267043 0.873000 0.226265 0.882938
C79   C     C_3   0.319921 0.826439 0.171811 0.852940
C80   C     C_3   0.223461 0.375435 0.286315 0.922753
C81   C     C_3   0.648270 0.138651 0.158284 0.880228
C82   C     C_3   0.837619 0.624130 0.203809 0.906275
C83   C     C_3   0.381698 0.167241 0.777814 0.834909
C84   C     C_R   0.605224 0.697229 0.903747 -0.129741
C85   C     C_3   0.128042 0.654218 0.851487 0.867124
C86   C     C_3   0.625033 0.843199 0.801809 0.887926
C87   C     C_3   0.849807 0.365083 0.825645 0.918968
C88   C     C_R   0.392698 0.695041 0.895182 0.597067
C89   C     C_R   0.327283 0.413363 0.857242 0.583178
C90   C     C_R   0.609470 0.304453 0.897406 0.571346
C91   C     C_R   0.694088 0.606888 0.894377 0.569421
C92   C     C_R   0.397320 0.306817 0.112194 0.590069
C93   C     C_R   0.335774 0.582482 0.148044 0.586138
C94   C     C_R   0.609492 0.694793 0.103298 0.598140
C95   C     C_R   0.302128 0.607894 0.905693 -0.139211
C96   C     C_R   0.695892 0.393818 0.103975 0.566697
C97   C     C_R   0.906686 0.180703 0.366221 0.536009
C98   C     C_R   0.818038 0.903019 0.368140 0.536047
C99   C     C_R   0.110803 0.803953 0.400144 0.555144
C100  C     C_R   0.171407 0.084419 0.357349 0.646683
C101  C     C_R   0.898904 0.811897 0.621595 0.512076
C102  C     C_R   0.835175 0.084733 0.647396 0.556785
C103  C     C_R   0.112179 0.195148 0.600181 0.573669
C104  C     C_R   0.161080 0.922396 0.650046 0.568476
C105  C     C_R   0.359446 0.351295 0.816816 -0.127205
C106  C     C_R   0.415523 0.680100 0.133594 -0.157081
C107  C     C_R   0.687507 0.317071 0.895056 -0.122091
C108  C     C_R   0.679964 0.684536 0.885421 -0.162186
C109  C     C_R   0.314533 0.683274 0.889123 -0.147843
C110  C     C_R   0.361135 0.651253 0.179995 -0.085602
C111  C     C_R   0.686991 0.679931 0.111172 -0.144143
C112  C     C_R   0.685068 0.315980 0.107975 -0.156903
C113  C     C_R   0.320995 0.324065 0.130061 -0.179300
C114  C     C_R   0.851335 0.843549 0.325505 -0.030693
C115  C     C_R   0.185167 0.823586 0.380433 -0.068127
C116  C     C_R   0.135868 0.141657 0.314044 -0.130725
C117  C     C_R   0.698085 0.604883 0.094314 -0.114080
C118  C     C_R   0.852197 0.146261 0.319201 -0.056379
C119  C     C_R   0.857442 0.155092 0.678883 -0.070946
C120  C     C_R   0.189625 0.179203 0.611131 -0.128702
C121  C     C_R   0.135474 0.856418 0.687042 -0.130164
C122  C     C_R   0.830469 0.835542 0.654291 -0.052964
C123  C     C_R   0.817003 0.289325 0.843912 -0.177605
C124  C     C_R   0.700973 0.807489 0.820602 -0.224171
C125  C     C_R   0.184812 0.715545 0.839188 -0.148280
C126  C     C_R   0.356916 0.236984 0.730665 -0.214832
C127  C     C_R   0.812636 0.700328 0.171937 -0.175099
C128  C     C_R   0.609450 0.302629 0.091339 -0.170761
C129  C     C_R   0.715701 0.189650 0.161089 -0.174049
C130  C     C_R   0.251017 0.301509 0.248490 -0.231932
C131  C     C_R   0.332958 0.773054 0.240100 -0.212527
C132  C     C_R   0.287283 0.814778 0.287975 -0.170647
C133  C     C_R   0.199977 0.259163 0.288997 -0.174313
C134  C     C_R   0.757638 0.145173 0.209646 -0.232298
C135  C     C_R   0.854507 0.741001 0.224982 -0.210951
C136  C     C_R   0.308801 0.194150 0.685786 -0.213679
C137  C     C_R   0.137647 0.759525 0.795165 -0.211146
C138  C     C_R   0.740038 0.847973 0.766310 -0.164499
C139  C     C_R   0.304749 0.395773 0.103950 -0.056103
C140  C     C_R   0.861975 0.249470 0.792242 -0.233395
C141  C     C_R   0.745467 0.264375 0.866454 0.141315
C142  C     C_R   0.730030 0.740738 0.852798 0.143239
C143  C     C_R   0.257983 0.737435 0.859999 0.145803
C144  C     C_R   0.337395 0.313845 0.744436 0.132664
C145  C     C_R   0.745758 0.730219 0.139510 0.124882
C146  C     C_R   0.739510 0.260533 0.137165 0.151944
C147  C     C_R   0.266152 0.281331 0.171799 0.152656
C148  C     C_R   0.333314 0.693535 0.245481 0.145761
C149  C     C_R   0.245015 0.779566 0.345715 0.106842
C150  C     C_R   0.917904 0.823133 0.362046 -0.208169
C151  C     C_R   0.172997 0.190463 0.260604 0.180621
C152  C     C_R   0.823274 0.174042 0.245149 0.127657
C153  C     C_R   0.824955 0.809803 0.253669 0.106057
C154  C     C_R   0.251984 0.226899 0.639366 0.121380
C155  C     C_R   0.164019 0.826459 0.761084 0.133412
C156  C     C_R   0.801636 0.812165 0.729386 0.096924
C157  C     C_R   0.829842 0.187017 0.752327 0.126816
C158  C     C_R   0.259100 0.702812 0.362755 -0.198047
C159  C     C_R   0.186849 0.169823 0.183906 -0.225274
C160  C     C_R   0.856528 0.238031 0.209833 -0.173261
H1    H     H_    0.451107 0.275187 0.852224 0.248480
H2    H     H_    0.249785 0.926869 0.398300 0.183629
H3    H     H_    0.068090 0.395649 0.422974 0.159296
H4    H     H_    0.160672 0.442005 0.423977 0.123346
H5    H     H_    0.307346 0.054037 0.207957 0.166557
H6    H     H_    0.219576 0.009230 0.182087 0.170372
H7    H     H_    0.307494 0.983576 0.133565 0.098641
H8    H     H_    0.227200 0.806464 0.007388 0.172680
H9    H     H_    0.321004 0.845525 0.015224 0.168797
H10   H     H_    0.240287 0.890348 0.063992 0.122907
H11   H     H_    0.151925 0.536832 0.219897 0.156767
H12   H     H_    0.199859 0.520360 0.309720 0.158042
H13   H     H_    0.045152 0.219872 0.344328 0.234031
H14   H     H_    0.106746 0.479872 0.290998 0.125658
H15   H     H_    0.520449 0.096422 0.077591 0.164465
H16   H     H_    0.577555 0.016687 0.114790 0.139433
H17   H     H_    0.576195 0.038993 0.014191 0.155947
H18   H     H_    0.909742 0.470572 0.129607 0.159627
H19   H     H_    0.884732 0.491474 0.227312 0.146105
H20   H     H_    0.972549 0.526801 0.187567 0.145265
H21   H     H_    0.379038 0.123924 0.963535 0.139469
H22   H     H_    0.464826 0.137639 0.910377 0.187037
H23   H     H_    0.398150 0.063098 0.882798 0.101067
H24   H     H_    0.785154 0.043927 0.338016 0.240671
H25   H     H_    0.050976 0.591735 0.011931 0.158970
H26   H     H_    0.082982 0.534155 0.933186 0.146757
H27   H     H_    0.005724 0.603599 0.919965 0.133031
H28   H     H_    0.503023 0.941553 0.906479 0.156162
H29   H     H_    0.483682 0.886713 0.821692 0.190368
H30   H     H_    0.541684 0.972444 0.817002 0.158660
H31   H     H_    0.919299 0.498687 0.936020 0.164358
H32   H     H_    0.889750 0.502960 0.837278 0.176444
H33   H     H_    0.978603 0.456100 0.864092 0.148552
H34   H     H_    0.365855 0.707877 0.753879 0.092210
H35   H     H_    0.946490 0.232485 0.639365 0.232792
H36   H     H_    0.463490 0.675648 0.758929 0.143046
H37   H     H_    0.438231 0.773244 0.734446 0.186737
H38   H     H_    0.199192 0.349574 0.835572 0.118903
H39   H     H_    0.145158 0.435175 0.847142 0.206428
H40   H     H_    0.200109 0.400511 0.927944 0.117193
H41   H     H_    0.572844 0.356405 0.773085 0.109627
H42   H     H_    0.523199 0.277820 0.738436 0.184183
H43   H     H_    0.625072 0.273244 0.736849 0.149036
H44   H     H_    0.722605 0.624045 0.753584 0.095251
H45   H     H_    0.687113 0.528624 0.763143 0.142007
H46   H     H_    0.251858 0.074598 0.586798 0.173312
H47   H     H_    0.787057 0.547987 0.746091 0.179735
H48   H     H_    0.360755 0.153906 0.131466 0.121112
H49   H     H_    0.385763 0.207590 0.221057 0.139094
H50   H     H_    0.447306 0.139281 0.179705 0.189939
H51   H     H_    0.440368 0.499684 0.190892 0.086199
H52   H     H_    0.384893 0.434811 0.244236 0.183242
H53   H     H_    0.402666 0.527263 0.283753 0.119991
H54   H     H_    0.550512 0.680304 0.232264 0.136570
H55   H     H_    0.529180 0.777952 0.247688 0.173221
H56   H     H_    0.626258 0.749677 0.247103 0.172313
H57   H     H_    0.050585 0.773779 0.648977 0.248047
H58   H     H_    0.703971 0.370300 0.246182 0.083307
H59   H     H_    0.670681 0.467937 0.236687 0.138272
H60   H     H_    0.766548 0.445087 0.268267 0.177888
H61   H     H_    0.884915 0.270457 0.480940 0.134191
H62   H     H_    0.936659 0.348274 0.441166 0.150013
H63   H     H_    0.987940 0.263396 0.467212 0.184279
H64   H     H_    0.650827 0.941477 0.438183 0.153484
H65   H     H_    0.737654 0.986412 0.467299 0.144627
H66   H     H_    0.724908 0.883519 0.478731 0.143377
H67   H     H_    0.020380 0.669315 0.375958 0.235078
H68   H     H_    0.757403 0.933481 0.620377 0.223946
H69   H     H_    0.108438 0.624589 0.398307 0.155298
H70   H     H_    0.103813 0.691699 0.319818 0.161498
H71   H     H_    0.284726 0.141313 0.424652 0.137006
H72   H     H_    0.351518 0.069664 0.394397 0.173704
H73   H     H_    0.278269 0.043519 0.460229 0.124519
H74   H     H_    0.951594 0.651473 0.545514 0.157157
H75   H     H_    0.981279 0.743877 0.516410 0.202116
H76   H     H_    0.881068 0.717807 0.509798 0.154479
H77   H     H_    0.935211 0.994866 0.700271 0.135894
H78   H     H_    0.875304 0.951004 0.770135 0.163932
H79   H     H_    0.232932 0.675697 0.411762 0.166927
H80   H     H_    0.900007 0.048447 0.783086 0.137141
H81   H     H_    0.135462 0.293340 0.706447 0.127990
H82   H     H_    0.044069 0.254187 0.711518 0.183971
H83   H     H_    0.059827 0.351604 0.677689 0.214098
H84   H     H_    0.065491 0.976542 0.732962 0.052414
H85   H     H_    0.105065 0.068277 0.732840 0.141731
H86   H     H_    0.138742 0.999773 0.802786 0.155294
H87   H     H_    0.161448 0.119464 0.159066 0.119751
H88   H     H_    0.911772 0.258475 0.227550 0.167502
H89   H     H_    0.750952 0.420272 0.924967 0.221354
H90   H     H_    0.746588 0.900610 0.227786 0.233318
H91   H     H_    0.213528 0.335375 0.593062 0.168057
H92   H     H_    0.255007 0.908129 0.771924 0.181883
H93   H     H_    0.892881 0.731657 0.752992 0.227192
H94   H     H_    0.732932 0.110356 0.755045 0.218514
H95   H     H_    0.673259 0.165062 0.864979 0.185411
H96   H     H_    0.835177 0.675806 0.865533 0.172584
H97   H     H_    0.331162 0.837050 0.861955 0.163967
H98   H     H_    0.281295 0.411416 0.691115 0.152441
H99   H     H_    0.683186 0.836042 0.121393 0.189882
H100  H     H_    0.577034 0.750912 0.913255 0.230527
H101  H     H_    0.840357 0.331806 0.132403 0.160596
H102  H     H_    0.242314 0.201784 0.078609 0.137037
H103  H     H_    0.305079 0.598465 0.320218 0.173981
H104  H     H_    0.000860 0.212038 0.836481 0.144252
H105  H     H_    0.963426 0.274281 0.912348 0.200070
H106  H     H_    0.060499 0.280949 0.882641 0.173179
H107  H     H_    0.767586 0.010477 0.839716 0.177931
H108  H     H_    0.715736 0.936896 0.883957 0.149159
H109  H     H_    0.674260 0.029144 0.876573 0.173184
H110  H     H_    0.989050 0.825598 0.777921 0.143749
H111  H     H_    0.248166 0.581143 0.915639 0.225480
H112  H     H_    0.040239 0.852270 0.866163 0.148598
H113  H     H_    0.941519 0.829959 0.869493 0.176190
H114  H     H_    0.164786 0.176315 0.764846 0.124509
H115  H     H_    0.239149 0.212801 0.825952 0.167969
H116  H     H_    0.178317 0.139885 0.859953 0.158712
H117  H     H_    0.993938 0.760145 0.184091 0.159282
H118  H     H_    0.965473 0.681262 0.123120 0.209708
H119  H     H_    0.057333 0.680843 0.167408 0.181655
H120  H     H_    0.833168 0.021516 0.160391 0.152951
H121  H     H_    0.778296 0.063602 0.080298 0.182121
H122  H     H_    0.443198 0.733689 0.138374 0.240879
H123  H     H_    0.785776 0.962793 0.090405 0.182953
H124  H     H_    0.048081 0.264481 0.212929 0.148605
H125  H     H_    0.114583 0.334028 0.177203 0.171040
H126  H     H_    0.018920 0.360713 0.197509 0.163915
H127  H     H_    0.100761 0.810414 0.239003 0.150457
H128  H     H_    0.180957 0.757111 0.203995 0.157338
H129  H     H_    0.121491 0.809297 0.137704 0.188885
H130  H     H_    0.432426 0.872020 0.258412 0.140026
H131  H     H_    0.430462 0.957666 0.200587 0.169218
H132  H     H_    0.496678 0.885162 0.179255 0.199923
H133  H     H_    0.751399 0.576355 0.083252 0.215742
H134  H     H_    0.370336 0.336449 0.331704 0.132833
H135  H     H_    0.301625 0.310638 0.405010 0.188821
H136  H     H_    0.362545 0.390492 0.419027 0.176897
H137  H     H_    0.585821 0.276794 0.239824 0.157890
H138  H     H_    0.643219 0.207656 0.291261 0.156554
H139  H     H_    0.541981 0.206373 0.298251 0.162688
H140  H     H_    0.668675 0.615346 0.260578 0.158707
H141  H     H_    0.738576 0.680632 0.298174 0.167592
H142  H     H_    0.723632 0.590859 0.343612 0.166541
H143  H     H_    0.465875 0.194340 0.653011 0.129298
H144  H     H_    0.583773 0.248786 0.077910 0.235833
H145  H     H_    0.473339 0.091643 0.656133 0.180719
H146  H     H_    0.549112 0.148119 0.689550 0.178624
H147  H     H_    0.248636 0.596167 0.758413 0.163617
H148  H     H_    0.165726 0.629987 0.705439 0.158663
H149  H     H_    0.183036 0.530408 0.716280 0.182237
H150  H     H_    0.601798 0.682454 0.741468 0.148267
H151  H     H_    0.657899 0.750258 0.688830 0.161964
H152  H     H_    0.561570 0.734092 0.662108 0.160627
H153  H     H_    0.691458 0.394286 0.743783 0.156794
H154  H     H_    0.760619 0.325538 0.712330 0.160922
H155  H     H_    0.249355 0.422802 0.099149 0.176330
H156  H     H_    0.759123 0.419552 0.673527 0.161940
H157  H     H_    0.955220 0.420072 0.623420 0.161129
H158  H     H_    0.974257 0.437060 0.723995 0.140653
H159  H     H_    0.883061 0.460518 0.682046 0.159109
H160  H     H_    0.566471 0.924141 0.589886 0.149054
H161  H     H_    0.595445 0.995620 0.657369 0.174442
H162  H     H_    0.533134 0.918057 0.686837 0.141119
H163  H     H_    0.954045 0.606131 0.699257 0.186316
H164  H     H_    0.951421 0.625007 0.800570 0.137900
H165  H     H_    0.022147 0.560871 0.760613 0.157294
H166  H     H_    0.958853 0.780588 0.345120 0.181420
H167  H     H_    0.361801 0.946118 0.698749 0.156238
H168  H     H_    0.342077 0.993790 0.788634 0.152866
H169  H     H_    0.432957 0.003212 0.743409 0.136788
H170  H     H_    0.907860 0.590510 0.428865 0.150514
H171  H     H_    0.949543 0.563635 0.339020 0.155591
H172  H     H_    0.850381 0.545381 0.357703 0.173774
H173  H     H_    0.582328 0.013413 0.340778 0.140032
H174  H     H_    0.624933 0.961040 0.263396 0.182016
H175  H     H_    0.557596 0.038459 0.244370 0.112524
H176  H     H_    0.131420 0.383901 0.502611 0.167453
N1    N     N_R   0.425360 0.368540 0.922560 -0.083004
N2    N     N_R   0.131460 0.925360 0.422560 -0.087737
N3    N     N_R   0.074640 0.131460 0.422560 -0.074560
N4    N     N_R   0.868540 0.074640 0.422560 -0.078980
N5    N     N_R   0.925360 0.131460 0.577440 -0.078311
N6    N     N_R   0.131460 0.074640 0.577440 -0.077618
N7    N     N_R   0.074640 0.868540 0.577440 -0.067430
N8    N     N_R   0.868540 0.925360 0.577440 -0.084649
N9    N     N_R   0.425340 0.631500 0.922560 -0.098061
N10   N     N_R   0.368500 0.425340 0.922560 -0.105420
N11   N     N_R   0.574660 0.368500 0.922560 -0.105937
N12   N     N_R   0.631460 0.425360 0.922560 -0.090710
N13   N     N_R   0.631500 0.574660 0.922560 -0.102749
N14   N     N_R   0.425340 0.368500 0.077440 -0.101588
N15   N     N_R   0.368500 0.574660 0.077440 -0.104168
N16   N     N_R   0.574660 0.631500 0.077440 -0.111055
N17   N     N_R   0.631500 0.425340 0.077440 -0.103791
N18   N     N_R   0.925340 0.131500 0.422560 -0.101098
N19   N     N_R   0.868500 0.925340 0.422560 -0.105443
N20   N     N_R   0.074660 0.868500 0.422560 -0.093490
N21   N     N_R   0.131500 0.074660 0.422560 -0.115822
N22   N     N_R   0.925340 0.868500 0.577440 -0.107910
N23   N     N_R   0.574640 0.631460 0.922560 -0.091615
N24   N     N_R   0.868500 0.074660 0.577440 -0.100121
N25   N     N_R   0.074660 0.131500 0.577440 -0.104962
N26   N     N_R   0.131500 0.925340 0.577440 -0.100642
N27   N     N_R   0.368540 0.574640 0.922560 -0.086416
N28   N     N_R   0.425360 0.631460 0.077440 -0.085799
N29   N     N_R   0.631460 0.574640 0.077440 -0.095006
N30   N     N_R   0.574640 0.368540 0.077440 -0.087450
N31   N     N_R   0.368540 0.425360 0.077440 -0.086125
N32   N     N_R   0.925360 0.868540 0.422560 -0.083901
Ni1   Ni    Ni4+2 0.500000 0.369720 0.000000 0.218076
Ni2   Ni    Ni4+2 0.630280 0.500000 0.000000 0.208440
Ni3   Ni    Ni4+2 0.500000 0.630280 0.000000 0.223371
Ni4   Ni    Ni4+2 0.369720 0.500000 0.000000 0.199801
Ni5   Ni    Ni4+2 1.000000 0.869720 0.500000 0.212337
Ni6   Ni    Ni4+2 0.130280 0.000000 0.500000 0.193351
Ni7   Ni    Ni4+2 0.000000 0.130280 0.500000 0.209509
Ni8   Ni    Ni4+2 0.869720 0.000000 0.500000 0.177779
O1    O     O_3   0.982997 0.325809 0.804950 -0.666366
O2    O     O_3   0.275688 0.409426 0.340530 -0.636241
O3    O     O_3   0.580021 0.167755 0.192823 -0.651836
O4    O     O_3   0.778838 0.580542 0.239105 -0.639757
O5    O     O_3   0.459545 0.143587 0.765234 -0.627672
O6    O     O_3   0.145608 0.582255 0.816039 -0.662965
O7    O     O_3   0.571240 0.794613 0.763909 -0.629514
O8    O     O_3   0.798672 0.416537 0.786857 -0.643351
O9    O     O_3   0.902638 0.343518 0.695130 -0.661948
O10   O     O_3   0.647180 0.888361 0.668562 -0.675454
O11   O     O_3   0.040196 0.675927 0.737338 -0.650952
O12   O     O_3   0.676945 0.974066 0.770877 -0.638861
O13   O     O_3   0.345644 0.061597 0.687125 -0.661258
O14   O     O_3   0.875049 0.660193 0.338657 -0.654972
O15   O     O_3   0.666074 0.071134 0.283819 -0.660788
O16   O     O_3   0.162856 0.324064 0.405436 -0.641739
O17   O     O_3   0.296388 0.944831 0.247902 -0.629161
O18   O     O_3   0.280880 0.787524 0.111422 -0.658761
O19   O     O_3   0.196870 0.428917 0.230618 -0.643470
O20   O     O_3   0.637403 0.113961 0.080610 -0.660059
O21   O     O_3   0.875514 0.581652 0.145433 -0.667393
O22   O     O_3   0.364248 0.175334 0.857783 -0.674754
O23   O     O_3   0.013097 0.737400 0.856944 -0.635580
O24   O     O_3   0.114772 0.648508 0.932180 -0.635374
O25   O     O_3   0.594241 0.878458 0.868783 -0.657142
O26   O     O_3   0.881618 0.396525 0.894358 -0.656519
O27   O     O_3   0.432273 0.746037 0.850517 -0.630259
O28   O     O_3   0.260700 0.451349 0.838740 -0.630320
O29   O     O_3   0.575158 0.256955 0.844212 -0.628802
O30   O     O_3   0.750749 0.565855 0.858039 -0.628335
O31   O     O_3   0.439497 0.239408 0.118018 -0.620891
O32   O     O_3   0.320581 0.521227 0.194887 -0.605923
O33   O     O_3   0.571779 0.754258 0.138846 -0.638204
O34   O     O_3   0.255764 0.100794 0.780062 -0.602793
O35   O     O_3   0.746053 0.433313 0.150816 -0.624034
O36   O     O_3   0.921381 0.258401 0.366608 -0.651377
O37   O     O_3   0.741082 0.921664 0.365828 -0.648551
O38   O     O_3   0.095314 0.735274 0.434843 -0.645368
O39   O     O_3   0.245123 0.059456 0.345660 -0.605153
O40   O     O_3   0.924265 0.737143 0.620938 -0.649198
O41   O     O_3   0.818910 0.025289 0.696304 -0.619874
O42   O     O_3   0.080895 0.266921 0.599524 -0.659101
O43   O     O_3   0.180406 0.986781 0.691378 -0.602202
O44   O     O_3   0.970610 0.659628 0.243140 -0.676761
O45   O     O_3   0.715105 0.014201 0.169634 -0.663354
O46   O     O_3   0.083544 0.343203 0.295668 -0.650109
O47   O     O_3   0.187964 0.879010 0.205327 -0.649244
O48   O     O_3   0.387117 0.863060 0.143337 -0.646155

loop_
_geom_bond_atom_site_label_1
_geom_bond_atom_site_label_2
_ccdc_geom_bond_type
C70   C140  S    
C24   H24   S    
C29   O4    S    
C133  C151  A    
C3    H90   S    
C74   C83   S    
C45   O20   S    
C108  C142  S    
C40   H175  S    
N18   Ni7   S    
C43   H8    S    
C13   H13   S    
C95   N27   A    
C17   O1    S    
C90   C107  A    
C33   H156  S    
C59   H55   S    
C98   C114  A    
C61   O36   S    
C94   C111  A    
C103  O42   S    
N19   Ni8   S    
C67   H82   S    
C49   H26   S    
C99   N20   A    
C73   N12   A    
C31   H147  S    
C74   C136  S    
N16   Ni3   S    
N31   Ni4   S    
C121  C155  S    
C28   H139  S    
C93   C110  A    
C126  C136  A    
C106  N28   A    
C160  H88   S    
C37   H163  S    
C43   H10   S    
C16   C158  A    
C65   H74   S    
C76   O45   S    
C101  O40   S    
C95   C109  A    
C60   H59   S    
C63   H67   S    
C23   H124  S    
N11   Ni1   S    
C117  H133  S    
N23   Ni3   S    
C20   H116  S    
C21   H117  S    
C81   C129  S    
N4    Ni8   S    
C123  C141  A    
C41   H176  S    
C104  N26   A    
N6    Ni6   S    
C80   O2    S    
C25   O47   S    
C26   O48   S    
N5    N24   A    
C127  C145  A    
C63   H70   S    
C88   C109  A    
C69   H85   S    
C114  C150  A    
C83   C126  S    
C42   H7    S    
N28   Ni3   S    
C26   H132  S    
C66   H80   S    
C78   C79   S    
N2    N20   A    
C26   H130  S    
C116  C151  S    
C27   H135  S    
C64   H71   S    
C68   H68   S    
C69   H84   S    
C7    C157  A    
C44   O19   S    
C62   H65   S    
C101  C122  A    
C25   H128  S    
C30   H146  S    
C56   H49   S    
C21   O44   S    
N17   N30   A    
C18   H107  S    
N7    N26   A    
C83   O5    S    
N19   N32   A    
C32   H150  S    
C44   H11   S    
C2    N2    A    
C41   H4    S    
C14   C160  A    
C77   O46   S    
C33   O8    S    
C102  C119  A    
C1    C105  A    
C75   O44   S    
C91   N13   A    
C65   H76   S    
C50   H28   S    
C2    H2    S    
C6    C9    A    
C72   C85   S    
C7    C8    A    
C58   H51   S    
C86   O7    S    
C102  N24   A    
C17   H106  S    
C87   O26   S    
C44   H14   S    
C52   O27   S    
C45   H15   S    
C68   N8    A    
C22   H120  S    
C54   H43   S    
C137  C155  A    
C72   O11   S    
N3    Ni7   S    
C50   H29   S    
C78   C132  S    
C61   H62   S    
C19   O23   S    
C69   O43   S    
C91   O30   S    
C113  C139  A    
C8    C141  A    
N10   Ni4   S    
C107  C141  S    
C149  C158  A    
C13   N3    A    
C42   H5    S    
C29   H142  S    
C24   N4    A    
N26   Ni6   S    
C5    H92   S    
C90   N11   A    
C110  C148  S    
C70   C87   S    
C28   H138  S    
C34   H159  S    
C88   O27   S    
C73   H89   S    
C28   O3    S    
C53   H39   S    
C79   O18   S    
C51   H33   S    
C84   N23   A    
C89   N10   A    
C32   H152  S    
C6    H93   S    
C106  H122  S    
C151  C159  A    
C12   C145  A    
C72   O23   S    
C47   H20   S    
C60   H58   S    
C71   C86   S    
C33   H153  S    
C18   O12   S    
C119  C157  S    
C79   C131  S    
C115  C149  S    
C104  O43   S    
C120  C154  S    
C59   O33   S    
C10   H97   S    
C46   C120  A    
C118  C152  S    
N30   Ni1   S    
C78   O47   S    
C20   O34   S    
C139  H155  S    
N1    N10   A    
C7    H94   S    
C86   C124  S    
C36   H162  S    
N6    N25   A    
N2    Ni6   S    
C139  N31   A    
C74   O13   S    
C51   H31   S    
C38   O13   S    
C46   H46   S    
C130  C147  A    
C22   O45   S    
N8    N22   A    
C9    C142  A    
C75   C82   S    
N20   Ni5   S    
C79   O48   S    
C54   H41   S    
C55   H47   S    
N16   N29   A    
C111  C117  A    
N4    N18   A    
C17   H104  S    
C42   O17   S    
C87   C123  S    
C77   C80   S    
C125  C143  A    
C90   O29   S    
C85   O24   S    
C126  C144  A    
C58   O32   S    
C54   O29   S    
C150  N32   A    
C96   O35   S    
C23   H126  S    
C30   H143  S    
C49   H25   S    
C89   C105  A    
N12   Ni2   S    
C34   H157  S    
C6    C156  A    
C4    C154  A    
N9    Ni3   S    
C36   O10   S    
C23   O46   S    
C103  C120  A    
C100  C116  A    
C96   N17   A    
C105  C144  S    
C92   N14   A    
C43   H9    S    
C48   O22   S    
C39   H172  S    
C31   H149  S    
C94   N16   A    
C50   O25   S    
C124  C138  A    
C127  C135  A    
C47   H18   S    
C60   H60   S    
C99   C115  A    
C48   H21   S    
C75   C135  S    
C73   C107  A    
C86   O25   S    
N14   N31   A    
C55   O30   S    
C38   H167  S    
C16   H103  S    
C85   C125  S    
C150  H166  S    
C83   O22   S    
C12   H99   S    
C92   C113  A    
C35   H35   S    
C158  H79   S    
C63   H69   S    
C60   O35   S    
C1    H1    S    
C132  C149  A    
C67   O42   S    
C102  O41   S    
C71   C138  S    
C55   H45   S    
C62   O37   S    
C26   H131  S    
C99   O38   S    
C68   C122  A    
N11   N12   A    
C64   H72   S    
C76   C134  S    
C59   H56   S    
C93   O32   S    
C31   O6    S    
C125  C137  A    
C36   H160  S    
C41   O16   S    
C46   N6    A    
C38   H169  S    
C25   H127  S    
C89   O28   S    
C15   C159  A    
C37   H165  S    
C136  C154  A    
C2    C115  A    
C49   H27   S    
C31   H148  S    
C134  C152  A    
C75   O14   S    
C117  N29   A    
C109  C143  S    
C4    C11   A    
C129  C146  A    
C32   O7    S    
C41   H3    S    
C130  C133  A    
C53   H38   S    
C131  C132  A    
C37   H164  S    
C39   H170  S    
C67   H83   S    
N3    N21   A    
C71   O12   S    
C122  C156  S    
C91   C108  A    
C65   H75   S    
C4    H91   S    
C52   H36   S    
C48   H23   S    
C95   H111  S    
C19   H112  S    
C58   H52   S    
C8    H95   S    
C63   O38   S    
C113  C147  S    
C21   H119  S    
C20   H115  S    
C93   N15   A    
C5    C155  A    
C21   H118  S    
C15   C147  A    
C85   O6    S    
C57   H57   S    
C82   O21   S    
C55   H44   S    
C82   O4    S    
C84   C108  A    
C76   O15   S    
C112  C146  S    
C40   H174  S    
N13   Ni2   S    
C50   H30   S    
C40   O15   S    
C61   H61   S    
N27   Ni4   S    
C112  C128  A    
C13   C116  A    
N15   N28   A    
C128  N30   A    
C129  C134  A    
C58   H53   S    
C69   H86   S    
C5    C10   A    
C52   H37   S    
N17   Ni2   S    
C53   O28   S    
C42   H6    S    
C66   O41   S    
C29   H141  S    
C18   H108  S    
C152  C160  A    
C35   C119  A    
C98   O37   S    
C27   H136  S    
N13   N23   A    
C92   O31   S    
C44   H12   S    
C67   H81   S    
C59   H54   S    
C103  N25   A    
C56   O31   S    
C56   H50   S    
C96   C112  A    
N21   Ni6   S    
C30   H145  S    
N7    Ni5   S    
C22   H123  S    
C111  C145  S    
C29   H140  S    
N32   Ni5   S    
C128  H144  S    
C78   O17   S    
C3    C153  A    
C97   C118  A    
N5    Ni7   S    
C17   H105  S    
C3    C12   A    
C56   H48   S    
C47   H19   S    
N8    Ni8   S    
C80   O19   S    
C11   C144  A    
C47   O21   S    
C114  C153  S    
C45   H17   S    
C71   O10   S    
C35   N5    A    
C100  O39   S    
C124  C142  A    
C77   C133  S    
C94   O33   S    
C64   O39   S    
C100  N21   A    
N14   Ni1   S    
C19   H110  S    
C38   H168  S    
C80   C130  S    
C11   H98   S    
C52   H34   S    
C88   N9    A    
C98   N19   A    
C45   H16   S    
C40   H173  S    
C104  C121  A    
C54   H42   S    
C123  C140  A    
C25   H129  S    
C39   O14   S    
C81   O20   S    
C61   H63   S    
C101  N22   A    
C14   H101  S    
C140  C157  A    
N15   Ni4   S    
N9    N27   A    
C97   N18   A    
C131  C148  A    
C159  H87   S    
N22   Ni5   S    
N29   Ni2   S    
C81   O3    S    
C23   H125  S    
C72   C137  S    
C62   H64   S    
C66   H77   S    
C9    H96   S    
C27   H134  S    
C1    N1    A    
C49   O24   S    
C28   H137  S    
C34   H158  S    
C74   O34   S    
C43   O18   S    
C106  C110  A    
C97   O36   S    
C138  C156  A    
C36   H161  S    
C53   H40   S    
C84   H100  S    
C34   O9    S    
C22   H121  S    
C76   C81   S    
C77   O16   S    
C39   H171  S    
C48   H22   S    
C14   C146  A    
C32   H151  S    
C24   C118  A    
C135  C153  A    
C16   C148  A    
C30   O5    S    
C64   H73   S    
C15   H102  S    
C62   H66   S    
C19   H113  S    
C65   O40   S    
C87   O8    S    
C27   O2    S    
C10   C143  A    
C70   O9    S    
C20   H114  S    
C82   C127  S    
C57   C121  A    
C37   O11   S    
N1    Ni1   S    
C33   H154  S    
N25   Ni7   S    
C51   O26   S    
C18   H109  S    
C66   H78   S    
C51   H32   S    
C57   N7    A    
N24   Ni8   S    
C70   O1    S    
