data_mof_unit_45213.cif
_audit_creation_date              2012-12-10T17:55:29-0500
_audit_creation_method            fapswitch 2.2
_symmetry_space_group_name_H-M    P1
_symmetry_Int_Tables_number       1
_space_group_crystal_system       triclinic
_cell_length_a                    10.836083
_cell_length_b                    9.862449
_cell_length_c                    10.815205
_cell_angle_alpha                 91.674972
_cell_angle_beta                  97.028346
_cell_angle_gamma                 90.44884
_cell_volume                      1146.57321774

loop_
_atom_site_label
_atom_site_type_symbol
_atom_type_description
_atom_site_fract_x
_atom_site_fract_y
_atom_site_fract_z
_atom_type_partial_charge
C1    C     C_R   0.263655 0.500731 0.506939 0.825886
C2    C     C_R   0.735562 0.500972 0.490673 0.824606
C3    C     C_R   0.499181 0.497937 0.266046 0.829344
C4    C     C_R   0.496027 0.501451 0.733563 0.833982
C5    C     C_2   0.439975 0.402119 0.923117 -0.139921
C6    C     C_2   0.432714 0.409486 0.057411 -0.192437
C7    C     C_2   0.484388 0.506449 0.865344 -0.300354
C8    C     C_2   0.506796 0.492746 0.134132 -0.280941
C9    C     C_R   0.061314 0.382578 0.499331 -0.258355
C10   C     C_R   0.933160 0.382842 0.482755 -0.246323
C11   C     C_R   0.868965 0.504748 0.479381 -0.183117
C12   C     C_R   0.128875 0.504397 0.512453 -0.184808
C13   C     C_R   0.935905 0.628393 0.478654 0.354963
C14   C     C_R   0.064154 0.628697 0.517094 0.349543
C15   C     C_R   0.436732 0.069348 0.401538 0.164136
C16   C     C_R   0.564809 0.077374 0.598716 0.202489
C17   C     C_R   0.437118 0.921823 0.402187 0.196922
C18   C     C_R   0.563518 0.929135 0.597212 0.170772
Cu1   Cu    Cu3+1 0.500000 0.640660 0.500000 0.995341
Cu2   Cu    Cu3+1 0.500000 0.359340 0.500000 0.935190
H1    H     H_    0.403540 0.311742 0.871088 0.156709
H2    H     H_    0.364973 0.344694 0.093176 0.150492
H3    H     H_    0.506593 0.600950 0.915247 0.158378
H4    H     H_    0.576203 0.557988 0.101664 0.160035
H5    H     H_    0.106548 0.286185 0.506782 0.196744
H6    H     H_    0.884171 0.286879 0.471547 0.208635
N1    N     N_R   0.500000 0.852070 0.500000 -0.187961
N2    N     N_R   0.500000 0.147940 0.500000 -0.192732
O1    O     O_R   0.319640 0.618740 0.499990 -0.530303
O2    O     O_R   0.680360 0.618740 0.500010 -0.532953
O3    O     O_R   0.319620 0.381170 0.499990 -0.607378
O4    O     O_R   0.680380 0.381170 0.500010 -0.586342
O5    O     O_R   0.500000 0.618750 0.321940 -0.581626
O6    O     O_R   0.500000 0.618750 0.678060 -0.583045
O7    O     O_R   0.499970 0.381180 0.321940 -0.587788
O8    O     O_R   0.500030 0.381180 0.678060 -0.589743
S1    S     S_3+6 0.869499 0.772564 0.401314 0.035009
O9    O     O_2   0.813896 0.864215 0.492361 -0.301978
O10   O     O_2   0.967532 0.849887 0.344691 -0.273912
O11   O     O_3   0.758201 0.722374 0.286581 -0.553908
H7    H     H_    0.720956 0.807565 0.253992 0.355010
S2    S     S_3+6 0.131931 0.775382 0.599926 0.034478
O12   O     O_2   0.188162 0.866554 0.512614 -0.289743
O13   O     O_2   0.034241 0.852217 0.659380 -0.282771
O14   O     O_3   0.242609 0.729360 0.713122 -0.546588
H8    H     H_    0.271792 0.815658 0.756477 0.350556
C19   C     C_3   0.366659 0.135545 0.285557 -0.385257
C20   C     C_3   0.243684 0.204071 0.304451 -0.298336
C21   C     C_3   0.134274 0.162754 0.206553 -0.865358
H9    H     H_    0.155896 0.186587 0.111702 0.244975
H10   H     H_    0.113244 0.052743 0.210238 0.285322
H11   H     H_    0.050300 0.219891 0.225392 0.263520
H12   H     H_    0.255054 0.315004 0.296732 0.230267
H13   H     H_    0.218733 0.174592 0.395920 0.256583
H14   H     H_    0.430289 0.192207 0.235596 0.196732
H15   H     H_    0.338736 0.066397 0.207819 0.188038
C22   C     C_3   0.624387 0.150592 0.722801 -0.308984
C23   C     C_3   0.745466 0.234827 0.732426 -0.349031
C24   C     C_3   0.851750 0.157285 0.683676 -0.710902
H16   H     H_    0.879028 0.070904 0.744150 0.255934
H17   H     H_    0.823831 0.118173 0.587126 0.286578
H18   H     H_    0.934527 0.224704 0.687102 0.235440
H19   H     H_    0.733616 0.336606 0.696667 0.240489
H20   H     H_    0.775780 0.258368 0.833087 0.181230
H21   H     H_    0.552099 0.194940 0.773547 0.170164
H22   H     H_    0.657355 0.081519 0.794806 0.164905
C25   C     C_3   0.356662 0.843794 0.296661 -0.268545
C26   C     C_3   0.413572 0.834613 0.170565 -0.427308
C27   C     C_3   0.316529 0.782832 0.065317 -0.800526
H23   H     H_    0.280654 0.681569 0.087022 0.266611
H24   H     H_    0.238033 0.854787 0.051723 0.259979
H25   H     H_    0.358974 0.773583 0.977434 0.241515
H26   H     H_    0.454579 0.930419 0.142974 0.190460
H27   H     H_    0.495126 0.769545 0.173993 0.247538
H28   H     H_    0.328602 0.743261 0.323615 0.239650
H29   H     H_    0.263591 0.890843 0.282812 0.197525
C28   C     C_3   0.638283 0.856962 0.703844 -0.273781
C29   C     C_3   0.574617 0.856156 0.825628 -0.414969
C30   C     C_3   0.668158 0.817821 0.936003 -0.844673
H30   H     H_    0.709085 0.717332 0.917970 0.259326
H31   H     H_    0.743901 0.895164 0.952415 0.266668
H32   H     H_    0.621487 0.813064 0.021177 0.233787
H33   H     H_    0.530030 0.952466 0.849065 0.188282
H34   H     H_    0.493043 0.789268 0.817102 0.247405
H35   H     H_    0.665035 0.754782 0.676835 0.243339
H36   H     H_    0.732181 0.903576 0.721829 0.191212

loop_
_geom_bond_atom_site_label_1
_geom_bond_atom_site_label_2
_ccdc_geom_bond_type
C16   N2    A    
C4    O8    A    
Cu1   Cu2   S    
C15   C19   S    
C22   H22   S    
C15   N2    A    
C9    H5    S    
C28   C29   S    
C20   H13   S    
S1    O11   S    
C5    C6    S    
C3    O5    A    
C26   H27   S    
C6    H2    S    
C1    O3    A    
C2    O4    A    
C27   H24   S    
Cu2   O7    S    
C29   H33   S    
C26   C27   S    
C21   H10   S    
Cu1   N1    S    
C9    C10   A    
C13   S1    S    
C14   S2    S    
C10   H6    S    
C28   H35   S    
C24   H16   S    
C13   C14   A    
C1    C12   S    
S2    O13   D    
C4    C7    S    
C2    C11   S    
C5    C7    D    
C23   H20   S    
C20   H12   S    
C4    O6    A    
C17   C25   S    
C24   H17   S    
C25   C26   S    
C17   N1    A    
C3    C8    S    
Cu1   O5    S    
C30   H31   S    
C29   C30   S    
C6    C8    D    
Cu2   N2    S    
C26   H26   S    
O14   H8    S    
S2    O14   S    
C27   H25   S    
S1    O9    D    
C19   C20   S    
C3    O7    A    
C21   H11   S    
C1    O1    A    
C20   C21   S    
C12   C14   A    
C28   H36   S    
C25   H28   S    
S2    O12   D    
Cu1   O1    S    
C19   H14   S    
Cu2   O4    S    
C23   H19   S    
C15   C17   A    
O11   H7    S    
C24   H18   S    
C18   N1    A    
C22   H21   S    
Cu1   O6    S    
C30   H32   S    
C2    O2    A    
C23   C24   S    
S1    O10   D    
C11   C13   A    
C22   C23   S    
C18   C28   S    
C7    H3    S    
C8    H4    S    
C16   C22   S    
C27   H23   S    
C9    C12   A    
C10   C11   A    
C30   H30   S    
Cu2   O8    S    
C29   H34   S    
C5    H1    S    
C16   C18   A    
C21   H9    S    
C25   H29   S    
Cu1   O2    S    
C19   H15   S    
Cu2   O3    S    
