data_mof_unit_45269.cif
_audit_creation_date              2013-03-05T15:42:25-0500
_audit_creation_method            fapswitch 2.2
_symmetry_space_group_name_H-M    P1
_symmetry_Int_Tables_number       1
_space_group_crystal_system       triclinic
_cell_length_a                    12.987548
_cell_length_b                    11.007283
_cell_length_c                    9.918254
_cell_angle_alpha                 90.52926
_cell_angle_beta                  96.580961
_cell_angle_gamma                 94.930864
_cell_volume                      1403.07348767

loop_
_atom_site_label
_atom_site_type_symbol
_atom_site_description
_atom_site_fract_x
_atom_site_fract_y
_atom_site_fract_z
_atom_type_partial_charge
O1    O     O_R   0.500020 0.321960 0.617050 -0.581324
O2    O     O_R   0.499980 0.321920 0.382890 -0.603303
C1    C     C_R   0.502665 0.265691 0.500079 0.733143
O3    O     O_R   0.349010 0.500000 0.598060 -0.597685
O4    O     O_R   0.348980 0.499950 0.363910 -0.580784
C2    C     C_R   0.301561 0.505333 0.473699 0.794794
Cu1   Cu    Cu3+1 0.500020 0.500020 0.638640 0.969409
Cu2   Cu    Cu3+1 0.499980 0.499980 0.361360 0.948278
O5    O     O_R   0.500020 0.678080 0.617110 -0.609896
O6    O     O_R   0.499980 0.678040 0.382950 -0.568269
O7    O     O_R   0.651020 0.500050 0.636090 -0.524157
O8    O     O_R   0.650990 0.500000 0.401940 -0.612952
C3    C     C_R   0.499485 0.733205 0.500659 0.783751
C4    C     C_R   0.698934 0.499505 0.526170 0.794640
C5    C     C_R   0.812072 0.496064 0.540803 -0.150244
C6    C     C_R   0.189160 0.517361 0.457073 -0.092831
C7    C     C_R   0.028171 0.571241 0.327564 0.185491
C8    C     C_R   0.138268 0.574840 0.343576 0.144941
C9    C     C_R   0.132658 0.472082 0.559946 -0.290704
C10   C     C_R   0.026635 0.481746 0.553174 0.058862
C11   C     C_R   0.973125 0.529923 0.436517 0.119846
C12   C     C_R   0.865769 0.536995 0.432853 -0.322704
C13   C     C_R   0.866263 0.448001 0.656543 0.478834
C14   C     C_R   0.973646 0.442619 0.662402 -0.273442
H1    H     H_    0.822896 0.576660 0.346929 0.166816
H2    H     H_    0.015454 0.407442 0.752588 0.148452
H3    H     H_    0.171754 0.429931 0.647412 0.165897
C15   C     C_2   0.518366 0.931424 0.399920 -0.104435
C16   C     C_2   0.490856 0.862782 0.502050 -0.292566
H4    H     H_    0.547195 0.890668 0.312883 0.155784
H5    H     H_    0.456178 0.900824 0.585404 0.167464
C17   C     C_2   0.496395 0.059544 0.393230 0.107350
C18   C     C_2   0.520640 0.134731 0.504097 0.327311
C19   C     C_2   0.434747 0.429720 0.912212 0.389797
N1    N     N_2   0.498860 0.498660 0.846770 0.011467
C20   C     C_2   0.434559 0.429947 0.067116 0.384003
N2    N     N_2   0.498840 0.498630 0.152900 0.020022
O9    O     O_3   0.580118 0.091855 0.617001 -0.600611
C21   C     C_3   0.529111 0.097918 0.735203 -0.345647
H6    H     H_    0.442644 0.093711 0.713985 0.142153
H7    H     H_    0.559233 0.181233 0.795972 0.212503
H8    H     H_    0.547966 0.018763 0.799006 0.174702
C22   C     C_3   0.351650 0.342761 0.833234 -0.925111
H9    H     H_    0.360568 0.248022 0.866190 0.199030
H10   H     H_    0.273102 0.368377 0.849028 0.213558
H11   H     H_    0.355233 0.335397 0.724765 0.281900
O10   O     O_3   0.595361 0.526081 0.910994 -0.483081
C23   C     C_3   0.629905 0.645964 0.874290 0.019638
H12   H     H_    0.574082 0.712982 0.895459 0.129305
H13   H     H_    0.646144 0.657265 0.769887 0.167654
H14   H     H_    0.706919 0.672286 0.931944 0.080922
C24   C     C_3   0.350578 0.345420 0.119867 -0.923496
H15   H     H_    0.351330 0.251400 0.080621 0.214903
H16   H     H_    0.357517 0.337181 0.229320 0.291237
H17   H     H_    0.273275 0.378350 0.087934 0.221527
O11   O     O_3   0.524729 0.612067 0.110156 -0.493948
C25   C     C_3   0.628051 0.649245 0.167826 -0.038927
H18   H     H_    0.682846 0.580170 0.149422 0.153317
H19   H     H_    0.637812 0.673840 0.275393 0.163638
H20   H     H_    0.653656 0.736839 0.122912 0.062974
O12   O     O_3   0.815442 0.411086 0.766278 -0.559807
C26   C     C_3   0.800232 0.282683 0.763366 -0.240459
H21   H     H_    0.875577 0.241061 0.781510 0.134765
H22   H     H_    0.756165 0.247675 0.665792 0.182881
H23   H     H_    0.753574 0.253636 0.846192 0.193097
C27   C     C_3   0.969389 0.608350 0.195142 -0.895606
H24   H     H_    0.018160 0.616645 0.110528 0.248816
H25   H     H_    0.905859 0.536991 0.160673 0.240765
H26   H     H_    0.936007 0.696439 0.209629 0.221370
C28   C     C_3   0.200695 0.648898 0.247748 -0.799237
H27   H     H_    0.216898 0.590132 0.162477 0.241859
H28   H     H_    0.159387 0.727334 0.207279 0.220974
H29   H     H_    0.274741 0.691674 0.301561 0.241583
C29   C     C_3   0.440030 0.096165 0.261093 -0.938339
H30   H     H_    0.418821 0.016647 0.190463 0.240514
H31   H     H_    0.366363 0.133205 0.280944 0.232559
H32   H     H_    0.490818 0.162467 0.209574 0.265065

loop_
_geom_bond_atom_site_label_1
_geom_bond_atom_site_label_2
_geom_bond_distance
_ccdc_geom_bond_type
C8    C28   1.517419 S    
O4    Cu2   1.964149 S    
C27   H25   1.110674 S    
C13   C14   1.395557 A    
O6    C3    1.311877 A    
C26   H21   1.112678 S    
C9    H3    1.082876 S    
C26   H22   1.113934 S    
C18   O9    1.395560 S    
C20   C24   1.514730 S    
C24   H17   1.109710 S    
C15   C17   1.463292 S    
Cu2   O8    1.956395 S    
N1    O10   1.347624 S    
C17   C18   1.360970 D    
C10   C11   1.411843 A    
C28   H29   1.109616 S    
C23   H13   1.086332 S    
C7    C8    1.417556 A    
C25   H18   1.112703 S    
C24   H16   1.084267 S    
Cu1   Cu2   2.750069 S    
C21   H7    1.109692 S    
C6    C8    1.420860 A    
O1    Cu1   1.969653 S    
C11   C12   1.399478 A    
O11   C25   1.421506 S    
Cu1   O7    1.964149 S    
C22   H10   1.109060 S    
C7    C27   1.519332 S    
O4    C2    1.314284 A    
C29   H31   1.108656 S    
C23   H14   1.107886 S    
O3    Cu1   1.956395 S    
C23   H12   1.112601 S    
C5    C13   1.408208 A    
C15   C16   1.332399 D    
O7    C4    1.316005 A    
O8    C4    1.315589 A    
O2    C1    1.320215 A    
C21   H8    1.109459 S    
C19   C20   1.536640 S    
C6    C9    1.395027 A    
C22   H9    1.107299 S    
C17   C29   1.502176 S    
O12   C26   1.409751 S    
Cu2   O6    1.969653 S    
C22   H11   1.084727 S    
C7    C11   1.419842 A    
C25   H19   1.088731 S    
C27   H26   1.110291 S    
C29   H30   1.111629 S    
C1    C18   1.480140 S    
C2    C6    1.467724 S    
C21   H6    1.115460 S    
O10   C23   1.421136 S    
C10   C14   1.400464 A    
C13   O12   1.382777 S    
C28   H27   1.109989 S    
O9    C21   1.414884 S    
C24   H15   1.103541 S    
O3    C2    1.318299 A    
C19   N1    1.309516 D    
Cu2   N2    2.065823 S    
C3    C16   1.440324 S    
C27   H24   1.107783 S    
Cu1   O5    1.973515 S    
O5    C3    1.309222 A    
C4    C5    1.463691 S    
C20   N2    1.307373 D    
C25   H20   1.106993 S    
C28   H28   1.109507 S    
C26   H23   1.109013 S    
C16   H5    1.083067 S    
N2    O11   1.349871 S    
Cu1   N1    2.066251 S    
C29   H32   1.109140 S    
C5    C12   1.400614 A    
O2    Cu2   1.973515 S    
C19   C22   1.519644 S    
C9    C10   1.384197 A    
C14   H2    1.084477 S    
C15   H4    1.087397 S    
O1    C1    1.315394 A    
C12   H1    1.080199 S    
