data_mof_unit_33907.cif
_audit_creation_date              2012-12-11T15:34:21-0500
_audit_creation_method            fapswitch 2.2
_symmetry_space_group_name_H-M    P1
_symmetry_Int_Tables_number       1
_space_group_crystal_system       triclinic
_cell_length_a                    15.053823
_cell_length_b                    15.076575
_cell_length_c                    34.901553
_cell_angle_alpha                 90.505418
_cell_angle_beta                  89.949481
_cell_angle_gamma                 60.041583
_cell_volume                      6862.4899717

loop_
_atom_site_label
_atom_site_type_symbol
_atom_type_description
_atom_site_fract_x
_atom_site_fract_y
_atom_site_fract_z
_atom_type_partial_charge
C1    C     C_R   0.302364 0.608300 0.555733 0.545014
C2    C     C_R   0.657377 0.672758 0.667470 -0.009010
C3    C     C_R   0.272257 0.641705 0.265101 -0.119057
C4    C     C_R   0.203567 0.627932 0.288101 0.023725
C5    C     C_R   0.129373 0.610757 0.270910 -0.113752
C6    C     C_R   0.120861 0.612151 0.231164 -0.073446
C7    C     C_R   0.187676 0.628788 0.208194 0.058666
C8    C     C_R   0.213119 0.554861 0.352661 -0.119674
C9    C     C_R   0.233934 0.552063 0.391675 -0.124734
C10   C     C_R   0.236947 0.710834 0.386230 -0.123726
C11   C     C_R   0.217042 0.713047 0.347239 -0.122062
C12   C     C_R   0.209104 0.633010 0.329985 0.030081
C13   C     C_R   0.561566 0.726470 0.649762 -0.137224
C14   C     C_R   0.250507 0.627717 0.408415 0.023259
C15   C     C_R   0.736225 0.025101 0.943233 0.548942
C16   C     C_R   0.746202 0.723046 0.944937 0.550855
C17   C     C_R   0.037384 0.734513 0.948033 0.539474
C18   C     C_R   0.722620 0.039736 0.052646 0.565195
C19   C     C_R   0.733298 0.734422 0.054675 0.544465
C20   C     C_R   0.027704 0.744663 0.057816 0.543499
C21   C     C_R   0.549271 0.703932 0.612099 -0.181216
C22   C     C_R   0.680823 0.680591 0.786614 0.396248
C23   C     C_R   0.666379 0.682515 0.709148 0.350006
C24   C     C_R   0.767211 0.599062 0.848849 0.171424
C25   C     C_R   0.780194 0.610071 0.887846 -0.091992
C26   C     C_R   0.633149 0.781361 0.887702 -0.131237
C27   C     C_R   0.619520 0.770964 0.848823 -0.123284
C28   C     C_R   0.688779 0.681937 0.828614 0.053645
C29   C     C_R   0.610942 0.588747 0.555153 0.569357
C30   C     C_R   0.716265 0.702634 0.907168 -0.010195
C31   C     C_R   0.724697 0.070805 0.905138 0.023978
C32   C     C_R   0.631444 0.109360 0.885429 -0.109735
C33   C     C_R   0.626747 0.130698 0.846468 -0.065319
C34   C     C_R   0.715126 0.113509 0.826765 0.088555
C35   C     C_R   0.806692 0.081186 0.846694 -0.064676
C36   C     C_R   0.811414 0.060431 0.885716 -0.108384
C37   C     C_R   0.717486 0.205977 0.768271 0.143951
C38   C     C_R   0.711582 0.217040 0.728590 -0.091137
C39   C     C_R   0.700104 0.147435 0.705138 -0.041349
C40   C     C_R   0.590611 0.300037 0.553449 0.543158
C41   C     C_R   0.697433 0.064508 0.721661 -0.092899
C42   C     C_R   0.704767 0.051682 0.761314 0.139604
C43   C     C_R   0.713013 0.123659 0.784941 0.027831
C44   C     C_R   0.597290 0.171220 0.646341 -0.107124
C45   C     C_R   0.570244 0.208443 0.609188 -0.117921
C46   C     C_R   0.720430 0.227889 0.605384 -0.130252
C47   C     C_R   0.746669 0.191923 0.642624 -0.120181
C48   C     C_R   0.683393 0.166686 0.663789 0.031564
C49   C     C_R   0.629517 0.240834 0.588944 0.020587
C50   C     C_R   0.086925 0.700004 0.910081 0.020622
C51   C     C_R   0.300692 0.610039 0.445922 0.544566
C52   C     C_R   0.108358 0.765307 0.888390 -0.118343
C53   C     C_R   0.127305 0.748614 0.849181 -0.115208
C54   C     C_R   0.126674 0.665616 0.831026 0.031744
C55   C     C_R   0.114395 0.595114 0.853086 -0.099524
C56   C     C_R   0.094276 0.612350 0.892362 -0.116179
C57   C     C_R   0.201951 0.564700 0.770738 -0.094129
C58   C     C_R   0.211312 0.559571 0.730869 -0.059750
C59   C     C_R   0.149560 0.646047 0.708632 0.059222
C60   C     C_R   0.077274 0.737266 0.726801 -0.093516
C61   C     C_R   0.068722 0.742742 0.766632 -0.088940
C62   C     C_R   0.607920 0.589639 0.445237 0.546139
C63   C     C_R   0.132252 0.657023 0.788903 0.030218
C64   C     C_R   0.195069 0.717126 0.653334 -0.151154
C65   C     C_R   0.231599 0.709156 0.616081 -0.134712
C66   C     C_R   0.213555 0.560118 0.604998 -0.091806
C67   C     C_R   0.175818 0.568367 0.642285 0.167628
C68   C     C_R   0.170419 0.644970 0.667264 0.036685
C69   C     C_R   0.244938 0.628269 0.592046 -0.010398
C70   C     C_R   0.690898 0.718174 0.090299 0.018871
C71   C     C_R   0.604433 0.799868 0.107968 -0.124950
C72   C     C_R   0.576863 0.790371 0.145256 -0.119706
C73   C     C_R   0.587862 0.303082 0.443690 0.542797
C74   C     C_R   0.635126 0.699035 0.165414 0.027925
C75   C     C_R   0.716780 0.615045 0.146645 -0.109453
C76   C     C_R   0.744303 0.624472 0.109439 -0.110957
C77   C     C_R   0.630980 0.603937 0.223143 -0.115744
C78   C     C_R   0.631175 0.594093 0.262803 -0.116347
C79   C     C_R   0.618732 0.674518 0.286964 0.026281
C80   C     C_R   0.601627 0.766593 0.270911 -0.114357
C81   C     C_R   0.602223 0.776222 0.231205 -0.110670
C82   C     C_R   0.619026 0.694173 0.206959 0.028714
C83   C     C_R   0.549144 0.735012 0.352939 -0.121954
C84   C     C_R   0.632035 0.625745 0.591474 0.033695
C85   C     C_R   0.548192 0.715560 0.391915 -0.125487
C86   C     C_R   0.704024 0.551989 0.383587 -0.123595
C87   C     C_R   0.704353 0.571100 0.344633 -0.121090
C88   C     C_R   0.625011 0.661065 0.328814 0.029714
C89   C     C_R   0.623543 0.622109 0.407309 0.023963
C90   C     C_R   0.697104 0.103948 0.087646 0.030562
C91   C     C_R   0.761121 0.140306 0.102145 0.152672
C92   C     C_R   0.745604 0.179991 0.139427 -0.088632
C93   C     C_R   0.666426 0.185613 0.162326 -0.004082
C94   C     C_R   0.597119 0.159319 0.146574 -0.119844
C95   C     C_R   0.730378 0.575593 0.608256 0.261167
C96   C     C_R   0.612187 0.119091 0.109645 -0.145324
C97   C     C_R   0.569349 0.267205 0.222566 -0.111750
C98   C     C_R   0.565036 0.272843 0.262422 -0.115159
C99   C     C_R   0.654529 0.216994 0.284053 0.026043
C100  C     C_R   0.749036 0.159184 0.265217 -0.114723
C101  C     C_R   0.753373 0.153653 0.225351 -0.112508
C102  C     C_R   0.663277 0.205906 0.203766 0.024315
C103  C     C_R   0.719205 0.234046 0.347847 -0.121986
C104  C     C_R   0.704956 0.251410 0.387216 -0.126268
C105  C     C_R   0.554400 0.232387 0.384228 -0.124257
C106  C     C_R   0.742520 0.601887 0.645856 -0.102352
C107  C     C_R   0.568764 0.214975 0.344877 -0.120869
C108  C     C_R   0.648699 0.219991 0.326191 0.031082
C109  C     C_R   0.619626 0.255491 0.405442 0.022548
C110  C     C_R   0.086678 0.706619 0.093331 -0.012702
C111  C     C_R   0.115558 0.608058 0.106460 -0.090337
C112  C     C_R   0.156088 0.577899 0.143091 0.164175
C113  C     C_R   0.167123 0.647355 0.167069 0.035424
C114  C     C_R   0.145695 0.742642 0.152771 -0.152673
C115  C     C_R   0.106056 0.772011 0.116164 -0.129734
C116  C     C_R   0.264300 0.642195 0.225362 -0.114166
Cr1   Cr    Cr6+3 0.421670 0.426920 0.499620 1.020564
Cr2   Cr    Cr6+3 0.427030 0.651190 0.500980 1.013886
Cr3   Cr    Cr6+3 0.651280 0.421870 0.499380 1.017206
Cr4   Cr    Cr6+3 0.910810 0.908010 0.001130 1.082725
Cr5   Cr    Cr6+3 0.682800 0.909890 0.998370 1.027598
Cr6   Cr    Cr6+3 0.908370 0.682300 0.002180 1.036513
H1    H     H_    0.884547 0.030209 0.900026 0.134190
H2    H     H_    0.814094 0.187774 0.655495 0.112694
H3    H     H_    0.712064 0.282373 0.716133 0.153284
H4    H     H_    0.555375 0.156490 0.831286 0.135049
H5    H     H_    0.689398 0.009950 0.703720 0.154857
H6    H     H_    0.547323 0.152338 0.662311 0.126220
H7    H     H_    0.500058 0.217077 0.597197 0.140102
H8    H     H_    0.875356 0.067942 0.831685 0.133449
H9    H     H_    0.473006 0.743657 0.600010 0.140433
H10   H     H_    0.768404 0.250889 0.590313 0.119999
H11   H     H_    0.103587 0.833358 0.901102 0.135651
H12   H     H_    0.077940 0.560715 0.908259 0.138089
H13   H     H_    0.269618 0.489311 0.717472 0.148060
H14   H     H_    0.251875 0.497974 0.787452 0.119538
H15   H     H_    0.138627 0.802786 0.832708 0.115137
H16   H     H_    0.029441 0.804933 0.710171 0.120154
H17   H     H_    0.013303 0.814330 0.780137 0.132025
H18   H     H_    0.191419 0.776640 0.672025 0.119137
H19   H     H_    0.843661 0.547637 0.902548 0.163359
H20   H     H_    0.255010 0.762932 0.606937 0.137082
H21   H     H_    0.114092 0.530318 0.839566 0.140408
H22   H     H_    0.221223 0.498445 0.586581 0.154396
H23   H     H_    0.561423 0.872927 0.093854 0.131855
H24   H     H_    0.810984 0.559984 0.096517 0.149767
H25   H     H_    0.764734 0.513949 0.326562 0.107974
H26   H     H_    0.642036 0.523201 0.274665 0.112908
H27   H     H_    0.642382 0.540183 0.205130 0.112187
H28   H     H_    0.512499 0.855716 0.158873 0.110728
H29   H     H_    0.591838 0.829504 0.289083 0.107298
H30   H     H_    0.817822 0.563364 0.658688 0.158945
H31   H     H_    0.594354 0.846121 0.219570 0.108072
H32   H     H_    0.487420 0.805099 0.341279 0.103764
H33   H     H_    0.485158 0.771036 0.409479 0.123408
H34   H     H_    0.763696 0.543922 0.161528 0.119664
H35   H     H_    0.763175 0.479288 0.394517 0.127543
H36   H     H_    0.560760 0.093466 0.099399 0.144083
H37   H     H_    0.514991 0.201593 0.328785 0.107034
H38   H     H_    0.491609 0.320232 0.276372 0.117621
H39   H     H_    0.499113 0.308850 0.206429 0.138199
H40   H     H_    0.494811 0.782959 0.665497 0.150145
H41   H     H_    0.797662 0.203230 0.151055 0.139376
H42   H     H_    0.818941 0.115442 0.281327 0.105768
H43   H     H_    0.826474 0.104503 0.211466 0.112001
H44   H     H_    0.781582 0.238009 0.334047 0.102287
H45   H     H_    0.756658 0.268850 0.402795 0.125108
H46   H     H_    0.535443 0.162817 0.163742 0.132070
H47   H     H_    0.488383 0.234335 0.397504 0.128320
H48   H     H_    0.103569 0.555554 0.088803 0.160318
H49   H     H_    0.085088 0.848199 0.106686 0.165552
H50   H     H_    0.211971 0.775133 0.330209 0.106502
H51   H     H_    0.331171 0.653392 0.277945 0.114124
H52   H     H_    0.315831 0.655990 0.208022 0.115072
H53   H     H_    0.075594 0.600393 0.288252 0.109248
H54   H     H_    0.059371 0.604619 0.218387 0.144056
H55   H     H_    0.206588 0.492737 0.339789 0.109396
H56   H     H_    0.243638 0.487236 0.408110 0.125770
H57   H     H_    0.153709 0.797022 0.170840 0.119542
H58   H     H_    0.248840 0.770492 0.398308 0.129066
H59   H     H_    0.582242 0.853559 0.901864 0.144971
H60   H     H_    0.558101 0.835252 0.834079 0.160637
H61   H     H_    0.563485 0.118073 0.899619 0.133710
N1    N     N_R   0.766199 0.631629 0.764390 -0.130479
N2    N     N_R   0.759116 0.631822 0.726424 -0.193590
N3    N     N_R   0.581116 0.733779 0.731385 -0.218637
N4    N     N_R   0.588230 0.733386 0.769374 -0.217482
O1    O     O_R   0.502070 0.323090 0.541280 -0.513725
O2    O     O_R   0.520720 0.641670 0.461580 -0.501921
O3    O     O_R   0.674120 0.502090 0.457500 -0.518776
O4    O     O_R   0.640110 0.338380 0.459630 -0.506143
O5    O     O_3   0.499990 0.499990 0.499990 -0.241351
O6    O     O_R   0.017640 0.822070 0.960410 -0.516409
O7    O     O_R   0.822000 0.989470 0.960340 -0.494169
O8    O     O_R   0.666920 0.007430 0.955290 -0.516690
O9    O     O_R   0.694410 0.812480 0.959650 -0.499623
O10   O     O_R   0.831550 0.656950 0.958960 -0.513703
O11   O     O_R   0.998590 0.685540 0.963930 -0.501973
O12   O     O_R   0.338340 0.520690 0.539540 -0.499483
O13   O     O_R   0.008220 0.831200 0.045060 -0.491195
O14   O     O_R   0.813270 0.997930 0.038810 -0.445620
O15   O     O_R   0.657500 0.016560 0.039940 -0.528140
O16   O     O_R   0.685680 0.820940 0.038120 -0.503873
O17   O     O_R   0.822130 0.666070 0.043610 -0.509653
O18   O     O_R   0.989860 0.694000 0.042400 -0.504110
O19   O     O_3   0.833990 0.833400 0.000560 -0.253680
O20   O     O_R   0.324760 0.674070 0.543580 -0.517712
O21   O     O_R   0.522400 0.640310 0.540110 -0.515370
O22   O     O_R   0.675940 0.500630 0.542210 -0.470573
O23   O     O_R   0.641790 0.337020 0.538150 -0.510073
O24   O     O_R   0.500260 0.324550 0.456580 -0.518451
O25   O     O_R   0.336660 0.522040 0.461020 -0.501498
O26   O     O_R   0.322940 0.675540 0.458880 -0.519419
O27   O     O_3   0.814183 0.503597 0.587244 -0.530632
C117  C     C_3   0.858782 0.407426 0.605443 0.009602
H62   H     H_    0.799671 0.390267 0.616763 0.118830
H63   H     H_    0.908987 0.404761 0.629270 0.160065
C118  C     C_3   0.924693 0.323951 0.576562 -0.349305
H64   H     H_    0.986061 0.337154 0.565241 0.173134
H65   H     H_    0.960569 0.248078 0.590594 0.090193
H66   H     H_    0.876744 0.323881 0.552406 0.163613
Br1   Br    Br    0.725925 0.308236 0.798654 -0.448831
Br2   Br    Br    0.704475 0.933997 0.781868 -0.538072
Br3   Br    Br    0.132188 0.473982 0.657553 -0.526583
Br4   Br    Br    0.871856 0.137145 0.073531 -0.496426
Br5   Br    Br    0.859302 0.468998 0.825395 -0.408232
Br6   Br    Br    0.194367 0.441995 0.159152 -0.554660

loop_
_geom_bond_atom_site_label_1
_geom_bond_atom_site_label_2
_ccdc_geom_bond_type
C80   H29   S    
C96   H36   S    
C55   C56   A    
C45   H7    S    
C101  C102  A    
C52   H11   S    
C83   C88   A    
C41   C42   A    
Cr6   O19   S    
C32   H61   S    
C17   O6    A    
C111  C112  A    
Cr3   O3    S    
C117  H62   S    
C97   C98   A    
C57   C58   A    
C13   H40   S    
C39   C41   A    
C83   H32   S    
C31   C32   A    
C77   C78   A    
C52   C53   A    
C99   C108  S    
C105  C107  A    
C46   C49   A    
C26   C27   A    
C93   C94   A    
C29   O21   A    
C105  H47   S    
C53   H15   S    
C20   O18   A    
C92   C93   A    
Cr1   O5    S    
Cr3   O4    S    
C37   Br1   S    
C3    C116  A    
C117  H63   S    
C46   H10   S    
C5    C6    A    
Cr2   O2    S    
C66   C69   A    
C66   H22   S    
C54   C63   S    
C16   C30   S    
C40   C49   S    
C62   C89   S    
C40   O23   A    
C81   H31   S    
N1    N2    A    
C34   C35   A    
C85   H33   S    
Cr6   O17   S    
C22   N4    A    
C61   C63   A    
C2    C13   A    
C41   H5    S    
C110  C111  A    
C21   H9    S    
C22   N1    A    
C103  C104  A    
C46   C47   A    
C15   O7    A    
Cr2   O5    S    
C75   H34   S    
C3    H51   S    
C20   O13   A    
C47   C48   A    
C8    C9    A    
C50   C52   A    
C107  C108  A    
C57   H14   S    
C103  C108  A    
C47   H2    S    
C4    C12   S    
C50   C56   A    
Cr5   O9    S    
C97   C102  A    
Cr1   O12   S    
C78   H26   S    
C94   C96   A    
C15   O8    A    
C51   O26   A    
C1    C69   S    
C66   C67   A    
C76   H24   S    
C11   H50   S    
C112  Br6   S    
C22   C28   S    
C91   Br4   S    
Cr4   O14   S    
C5    H53   S    
Cr6   O18   S    
C1    O12   A    
Cr5   O19   S    
C74   C82   S    
C24   Br5   S    
C51   O25   A    
C79   C88   S    
C57   C63   A    
C62   O2    A    
C31   C36   A    
Cr3   O22   S    
C106  H30   S    
C74   C75   A    
C67   C68   A    
C18   C90   S    
Cr1   O24   S    
C36   H1    S    
C55   H21   S    
C24   C25   A    
Cr5   O16   S    
C29   C84   S    
C115  H49   S    
C10   C14   A    
C114  C115  A    
C77   H27   S    
C91   C92   A    
C23   N2    A    
C9    C14   A    
C85   C89   A    
C78   C79   A    
C61   H17   S    
C58   C59   A    
C53   C54   A    
C15   C31   S    
C86   C89   A    
C81   C82   A    
C32   C33   A    
C33   H4    S    
C60   C61   A    
C84   C95   A    
C7    C116  A    
C37   C43   A    
C17   C50   S    
Cr2   O21   S    
C75   C76   A    
C100  H42   S    
C59   C60   A    
C37   C38   A    
C16   O9    A    
C95   C106  A    
C59   C68   S    
C18   O14   A    
C118  H65   S    
C14   C51   S    
C21   C84   A    
C45   C49   A    
C8    C12   A    
C107  H37   S    
C62   O3    A    
C19   O16   A    
C33   C34   A    
C13   C21   A    
C17   O11   A    
C18   O15   A    
Cr3   O5    S    
C90   C96   A    
C35   H8    S    
C73   O4    A    
C87   H25   S    
C103  H44   S    
C20   C110  S    
C92   H41   S    
C72   C74   A    
C83   C85   A    
C98   H38   S    
C98   C99   A    
C72   H28   S    
C70   C76   A    
C117  C118  S    
C42   C43   A    
C94   H46   S    
C3    C4    A    
C64   C68   A    
C27   C28   A    
C38   H3    S    
C44   C45   A    
C118  H66   S    
C113  C114  A    
C64   H18   S    
C25   C30   A    
C105  C109  A    
C54   C55   A    
C44   H6    S    
Cr3   O23   S    
C71   H23   S    
C86   C87   A    
C73   O24   A    
Cr1   O25   S    
C25   H19   S    
C34   C43   S    
C24   C28   A    
C80   C81   A    
Cr1   O1    S    
C93   C102  S    
Cr5   O15   S    
C23   N3    A    
C56   H12   S    
C11   C12   A    
C29   O22   A    
C6    C7    A    
C40   O1    A    
C58   H13   S    
C97   H39   S    
Cr4   O6    S    
C99   C100  A    
C116  H52   S    
C42   Br2   S    
C111  H48   S    
C10   H58   S    
C64   C65   A    
C7    C113  S    
Cr2   O20   S    
C27   H60   S    
Cr4   O19   S    
C71   C72   A    
C101  H43   S    
C104  H45   S    
C65   H20   S    
Cr6   O11   S    
C118  H64   S    
C38   C39   A    
C6    H54   S    
C77   C82   A    
C65   C69   A    
O27   C117  S    
C19   O17   A    
Cr4   O13   S    
C2    C106  A    
C8    H55   S    
Cr2   O26   S    
C112  C113  A    
C73   C109  S    
Cr6   O10   S    
C67   Br3   S    
C1    O20   A    
C86   H35   S    
Cr4   O7    S    
C70   C71   A    
C10   C11   A    
C9    H56   S    
C79   C80   A    
C26   H59   S    
C44   C48   A    
C4    C5    A    
C87   C88   A    
C114  H57   S    
C2    C23   S    
C95   O27   S    
C104  C109  A    
C19   C70   S    
C100  C101  A    
C35   C36   A    
N3    N4    A    
C110  C115  A    
Cr5   O8    S    
C16   O10   A    
C90   C91   A    
C60   H16   S    
C39   C48   S    
C26   C30   A    
