data_mof_unit_49047.cif
_audit_creation_date              2013-03-05T15:41:56-0500
_audit_creation_method            fapswitch 2.2
_symmetry_space_group_name_H-M    P1
_symmetry_Int_Tables_number       1
_space_group_crystal_system       triclinic
_cell_length_a                    19.400314
_cell_length_b                    7.246102
_cell_length_c                    17.719371
_cell_angle_alpha                 89.931512
_cell_angle_beta                  107.705694
_cell_angle_gamma                 90.079434
_cell_volume                      2372.93461928

loop_
_atom_site_label
_atom_site_type_symbol
_atom_site_description
_atom_site_fract_x
_atom_site_fract_y
_atom_site_fract_z
_atom_type_partial_charge
O1    O     O_R   0.414820 0.494320 0.416790 -0.546576
O2    O     O_R   0.585180 0.994320 0.583210 -0.550661
O3    O     O_R   0.560270 0.819500 0.430140 -0.545340
O4    O     O_R   0.439730 0.319500 0.569860 -0.547986
C1    C     C_R   0.581232 0.655674 0.414866 0.828661
C2    C     C_R   0.419094 0.155195 0.585511 0.832950
O5    O     O_R   0.413840 0.823740 0.407440 -0.523410
O6    O     O_R   0.586160 0.323740 0.592560 -0.523037
O7    O     O_R   0.437710 0.998590 0.560350 -0.561335
O8    O     O_R   0.562290 0.498590 0.439650 -0.562028
C3    C     C_R   0.388217 0.655357 0.384275 0.861191
C4    C     C_R   0.611777 0.155363 0.615722 0.858981
O9    O     O_3   0.508000 0.662290 0.550200 -0.266245
O10   O     O_3   0.492000 0.162290 0.449800 -0.265631
V1    V     V_3+5 0.498520 0.935380 0.490690 1.255270
V2    V     V_3+5 0.501480 0.435380 0.509310 1.256185
C5    C     C_2   0.778856 0.267403 0.798103 -0.122924
C6    C     C_2   0.220841 0.767903 0.202297 -0.122966
C7    C     C_2   0.817700 0.111575 0.820641 -0.245463
C8    C     C_2   0.182247 0.611712 0.179399 -0.247718
H1    H     H_    0.799660 0.394765 0.828933 0.149721
H2    H     H_    0.199847 0.895487 0.171761 0.150421
H3    H     H_    0.796800 0.980004 0.794458 0.117164
H4    H     H_    0.203288 0.480044 0.205335 0.118396
C9    C     C_2   0.705547 0.277707 0.737738 0.329413
C10   C     C_2   0.294094 0.778619 0.262719 0.326400
C11   C     C_2   0.680083 0.143665 0.682512 -0.225147
C12   C     C_2   0.319923 0.643612 0.317458 -0.226790
H5    H     H_    0.711946 0.020665 0.683241 0.074689
H6    H     H_    0.288370 0.519631 0.316318 0.080806
C13   C     C_R   0.321416 0.000895 0.627684 -0.035610
C14   C     C_R   0.682135 0.788045 0.371907 -0.017044
C15   C     C_R   0.371062 0.145855 0.636417 -0.126858
C16   C     C_R   0.630204 0.649240 0.365010 -0.125974
C17   C     C_R   0.374174 0.283147 0.692947 0.031294
C18   C     C_R   0.624920 0.506232 0.310478 0.021271
C19   C     C_R   0.328035 0.278576 0.740872 -0.020955
C20   C     C_R   0.670644 0.500493 0.262007 0.015792
C21   C     C_R   0.277240 0.132952 0.730783 -0.012558
C22   C     C_R   0.723569 0.640330 0.270052 -0.020780
C23   C     C_R   0.274790 0.990341 0.674938 0.032984
C24   C     C_R   0.728644 0.787710 0.324351 0.032822
C25   C     C_R   0.330402 0.419341 0.797021 0.378170
C26   C     C_R   0.665352 0.355749 0.206883 0.345665
C27   C     C_R   0.280129 0.419435 0.840113 0.076053
C28   C     C_R   0.715118 0.345693 0.162938 0.055956
C29   C     C_R   0.228937 0.274743 0.829986 -0.011319
C30   C     C_R   0.768345 0.483731 0.171518 0.045942
C31   C     C_R   0.228408 0.130575 0.775968 0.043043
C32   C     C_R   0.771740 0.632369 0.224156 0.014808
C33   C     C_R   0.178640 0.983741 0.766887 0.022583
C34   C     C_R   0.823684 0.773220 0.231044 0.007213
C35   C     C_R   0.177170 0.842705 0.712621 -0.119665
C36   C     C_R   0.827826 0.918878 0.283953 -0.131972
C37   C     C_R   0.224406 0.843702 0.666515 0.360969
C38   C     C_R   0.781096 0.928570 0.330598 0.353466
C39   C     C_R   0.179017 0.269006 0.873688 -0.083160
C40   C     C_R   0.817844 0.477631 0.127418 -0.064022
C41   C     C_R   0.130523 0.120964 0.865900 -0.092696
C42   C     C_R   0.868772 0.619203 0.133220 -0.114255
C43   C     C_R   0.130884 0.978750 0.812421 -0.096190
C44   C     C_R   0.870920 0.767304 0.184749 -0.081016
H7    H     H_    0.318107 0.900601 0.581675 0.137279
H8    H     H_    0.686912 0.892733 0.416549 0.132857
H9    H     H_    0.412054 0.395547 0.697993 0.160870
H10   H     H_    0.585130 0.398987 0.306722 0.147734
H11   H     H_    0.178526 0.377004 0.915607 0.082643
H12   H     H_    0.816067 0.364622 0.086897 0.119214
H13   H     H_    0.093317 0.864504 0.805566 0.089183
H14   H     H_    0.910331 0.876567 0.189846 0.092589
H15   H     H_    0.139339 0.729299 0.706497 0.113104
H16   H     H_    0.867289 0.027698 0.288452 0.121868
O11   O     O_R   0.937810 0.773680 0.060480 -0.552189
O12   O     O_R   0.062190 0.273680 0.939520 -0.556809
O13   O     O_R   0.086190 0.439740 0.092580 -0.550503
O14   O     O_R   0.913810 0.939740 0.907420 -0.550166
C45   C     C_R   0.112966 0.607963 0.114101 0.841967
C46   C     C_R   0.887017 0.107921 0.885913 0.845532
O15   O     O_R   0.939760 0.444210 0.069890 -0.562610
O16   O     O_R   0.060240 0.944210 0.930110 -0.563273
O17   O     O_R   0.914790 0.269640 0.916760 -0.556800
O18   O     O_R   0.085210 0.769640 0.083240 -0.556610
C47   C     C_R   0.918984 0.612259 0.084705 0.814527
C48   C     C_R   0.080808 0.112643 0.915038 0.812519
O19   O     O_3   0.992050 0.601530 0.949880 -0.285888
O20   O     O_3   0.007950 0.101530 0.050120 -0.284308
V3    V     V_3+5 0.001480 0.328340 0.009300 1.151793
V4    V     V_3+5 0.998520 0.828340 0.990700 1.151558
N1    N     N_R   0.220250 0.694047 0.612066 0.070046
O21   O     O_R   0.278430 0.605651 0.611629 -0.399044
O22   O     O_R   0.157500 0.625797 0.572759 -0.343805
N2    N     N_R   0.787889 0.083028 0.383302 0.072725
O23   O     O_R   0.731180 0.178224 0.383534 -0.394757
O24   O     O_R   0.851675 0.148346 0.420564 -0.342260
N3    N     N_R   0.661993 0.436570 0.740828 0.106613
O25   O     O_R   0.691746 0.599082 0.754855 -0.363997
O26   O     O_R   0.596316 0.414679 0.743996 -0.314327
N4    N     N_R   0.337192 0.939078 0.260207 0.106349
O27   O     O_R   0.307065 0.101184 0.247347 -0.365491
O28   O     O_R   0.402707 0.919523 0.256274 -0.302935
N5    N     N_R   0.385212 0.560251 0.812543 0.105480
O29   O     O_R   0.367735 0.733335 0.813346 -0.333103
O30   O     O_R   0.453266 0.514401 0.835972 -0.298076
N6    N     N_R   0.607618 0.223343 0.192668 0.087270
O31   O     O_R   0.621570 0.047956 0.202656 -0.357681
O32   O     O_R   0.540692 0.277679 0.165620 -0.303466
N7    N     N_3   0.283849 0.565228 0.896026 -0.419705
H17   H     H_    0.234258 0.634475 0.880424 0.172998
H18   H     H_    0.293828 0.507871 0.952497 0.206139
N8    N     N_3   0.710136 0.199201 0.107018 -0.486967
H19   H     H_    0.657793 0.197302 0.067224 0.245749
H20   H     H_    0.719860 0.073856 0.137576 0.215213

loop_
_geom_bond_atom_site_label_1
_geom_bond_atom_site_label_2
_geom_bond_distance
_ccdc_geom_bond_type
C20   C22   1.417636 A    
O4    V2    2.016970 S    
N5    O29   1.300885 A    
C11   H5    1.083178 S    
N3    O25   1.301232 A    
O1    C3    1.333842 A    
O16   C48   1.335218 A    
O2    C4    1.333783 A    
C2    O7    1.310419 A    
O15   V3    2.019458 S    
C26   N6    1.436819 S    
C21   C23   1.422317 A    
O5    C3    1.334053 A    
C8    C45   1.483249 S    
C45   O18   1.335138 A    
C17   C19   1.409131 A    
O14   C46   1.334429 A    
C42   C47   1.483274 S    
C18   H10   1.082317 S    
C39   C41   1.404806 A    
C17   H9    1.081629 S    
C40   C42   1.405259 A    
C44   H14   1.084463 S    
C42   C44   1.402190 A    
C27   C29   1.416664 A    
N8    H19   1.045469 S    
C23   C37   1.419689 A    
C24   C38   1.420701 A    
C8    H4    1.083524 S    
C26   C28   1.414727 A    
C31   C33   1.411816 A    
C6    C10   1.498774 S    
C32   C34   1.412352 A    
N7    H17   1.045477 S    
C13   C15   1.400657 A    
O12   V3    1.990264 S    
N1    O22   1.301965 A    
O14   V4    2.013878 S    
C16   C18   1.399945 A    
C30   C32   1.413917 A    
O6    V2    2.013973 S    
N7    H18   1.045419 S    
C39   H11   1.081628 S    
N6    O32   1.301157 A    
N6    O31   1.300380 A    
C34   C36   1.398461 A    
C28   C30   1.411346 A    
C35   C37   1.400925 A    
C36   C38   1.402154 A    
C41   C43   1.402264 A    
C4    C11   1.486613 S    
C13   H7    1.079976 S    
C41   C48   1.484075 S    
C14   H8    1.080009 S    
C29   C31   1.415614 A    
O20   V3    1.783952 S    
C5    C7    1.349289 D    
O5    V1    2.013560 S    
C5    H1    1.085861 S    
C33   C35   1.398358 A    
C14   C16   1.401482 A    
C19   C25   1.416643 A    
C7    C46   1.483502 S    
C7    H3    1.083570 S    
C25   N5    1.438278 S    
O11   V4    1.989026 S    
C20   C26   1.416261 A    
C29   C39   1.412539 A    
O13   C45   1.334166 A    
O6    C4    1.334330 A    
C1    C16   1.481889 S    
N2    O24   1.301321 A    
C22   C32   1.414425 A    
O1    V2    2.005094 S    
O2    V1    2.004936 S    
C25   C27   1.409707 A    
O17   V3    2.005109 S    
C10   N4    1.439705 S    
O13   V3    2.013465 S    
C21   C31   1.414261 A    
C9    N3    1.439814 S    
N4    O28   1.301835 A    
C28   N8    1.435924 S    
O4    C2    1.311516 A    
C18   C20   1.410640 A    
C35   H15   1.084345 S    
O3    V1    2.019421 S    
N5    O30   1.301274 A    
O19   V4    1.785224 S    
C43   H13   1.084411 S    
C13   C23   1.409090 A    
C6    H2    1.085873 S    
O12   C48   1.333406 A    
O3    C1    1.310298 A    
N3    O26   1.301810 A    
C30   C40   1.411161 A    
C9    C11   1.360860 D    
C10   C12   1.361015 D    
C2    C15   1.482395 S    
C5    C9    1.499052 S    
C12   H6    1.083155 S    
O7    V1    2.003427 S    
C1    O8    1.311224 A    
O16   V4    2.017008 S    
O8    V2    2.002004 S    
O15   C47   1.334412 A    
C33   C43   1.401856 A    
C46   O17   1.335254 A    
C40   H12   1.083304 S    
C3    C12   1.486667 S    
O18   V4    2.005267 S    
C22   C24   1.421424 A    
N2    O23   1.300412 A    
C15   C17   1.400760 A    
C6    C8    1.349125 D    
C37   N1    1.438139 S    
N8    H20   1.044455 S    
C38   N2    1.438539 S    
C36   H16   1.084260 S    
C19   C21   1.416658 A    
N4    O27   1.301368 A    
O9    V2    1.786317 S    
C14   C24   1.409500 A    
O10   V1    1.785045 S    
C34   C44   1.404265 A    
N1    O21   1.300631 A    
O11   C47   1.333699 A    
C27   N7    1.435831 S    
