data_mof_unit_11120.cif
_audit_creation_date              2013-03-05T16:47:31-0500
_audit_creation_method            fapswitch 2.2
_symmetry_space_group_name_H-M    P1
_symmetry_Int_Tables_number       1
_space_group_crystal_system       triclinic
_cell_length_a                    10.915998
_cell_length_b                    10.949443
_cell_length_c                    9.81377
_cell_angle_alpha                 99.425249
_cell_angle_beta                  98.344941
_cell_angle_gamma                 93.874696
_cell_volume                      1139.87094789

loop_
_atom_site_label
_atom_site_type_symbol
_atom_site_description
_atom_site_fract_x
_atom_site_fract_y
_atom_site_fract_z
_atom_type_partial_charge
O1    O     O_R   0.517830 0.337490 0.617920 -0.538703
O2    O     O_R   0.482170 0.662510 0.382080 -0.538720
O3    O     O_R   0.482150 0.301790 0.382070 -0.571049
O4    O     O_R   0.517850 0.698210 0.617930 -0.571007
C1    C     C_R   0.500222 0.261893 0.498940 0.899214
C2    C     C_R   0.499771 0.738105 0.501059 0.899348
O5    O     O_R   0.337480 0.517860 0.617920 -0.589073
O6    O     O_R   0.662520 0.482140 0.382080 -0.589064
O7    O     O_R   0.301810 0.482160 0.382070 -0.577035
O8    O     O_R   0.698190 0.517840 0.617930 -0.577054
C3    C     C_R   0.262086 0.502376 0.499433 0.808499
C4    C     C_R   0.737918 0.497660 0.500568 0.808640
Cu1   Cu    Cu3+1 0.521120 0.521140 0.639640 0.989714
Cu2   Cu    Cu3+1 0.478880 0.478860 0.360360 0.989703
H1    H     H_    0.176820 0.401190 0.860147 0.135580
H2    H     H_    0.823378 0.599220 0.139953 0.135618
C5    C     C_R   0.178165 0.534232 0.048509 -0.105284
C6    C     C_R   0.821948 0.466109 0.951624 -0.105555
H3    H     H_    0.229785 0.607889 0.013483 0.138122
H4    H     H_    0.770353 0.392479 0.986723 0.138153
C7    C     C_R   0.140751 0.555318 0.180051 -0.032035
C8    C     C_R   0.859310 0.444956 0.820059 -0.031919
H5    H     H_    0.163437 0.645846 0.246022 0.169544
H6    H     H_    0.836613 0.354401 0.754147 0.169709
C9    C     C_R   0.077621 0.458395 0.227996 0.102545
C10   C     C_R   0.922407 0.541841 0.772018 0.102590
C11   C     C_R   0.045004 0.343305 0.138640 -0.145140
C12   C     C_R   0.955051 0.656963 0.861309 -0.145188
H7    H     H_    0.993247 0.268654 0.171996 0.159042
H8    H     H_    0.006791 0.731584 0.827885 0.158782
C13   C     C_R   0.078502 0.324430 0.005249 -0.131695
C14   C     C_R   0.921615 0.675903 0.994731 -0.131692
H9    H     H_    0.050077 0.237137 0.934937 0.171252
H10   H     H_    0.950072 0.763220 0.064995 0.170928
C15   C     C_R   0.147949 0.418312 0.961782 -0.161199
C16   C     C_R   0.852193 0.582057 0.038289 -0.161143
C17   C     C_R   0.915281 0.471183 0.375904 -0.213565
C18   C     C_R   0.084732 0.528964 0.624095 -0.213608
H11   H     H_    0.849939 0.447889 0.279287 0.151583
H12   H     H_    0.150077 0.552290 0.720705 0.151611
C19   C     C_R   0.872099 0.495281 0.503730 -0.058909
C20   C     C_R   0.127911 0.504826 0.496274 -0.058989
C21   C     C_R   0.958340 0.521844 0.630510 0.015403
C22   C     C_R   0.041673 0.478312 0.369494 0.015370
H13   H     H_    0.227542 0.112278 0.874741 0.212831
H14   H     H_    0.772515 0.887975 0.125325 0.212986
C23   C     C_R   0.196613 0.073077 0.075340 -0.234638
C24   C     C_R   0.803360 0.927206 0.924707 -0.234568
H15   H     H_    0.096952 0.058692 0.044003 0.179314
H16   H     H_    0.903023 0.941725 0.955991 0.179158
C25   C     C_R   0.250063 0.063297 0.211590 0.288799
C26   C     C_R   0.749843 0.936871 0.788461 0.289080
C27   C     C_R   0.381561 0.078159 0.247962 -0.028206
C28   C     C_R   0.618374 0.921848 0.752068 -0.028058
C29   C     C_R   0.455888 0.109465 0.149923 0.421184
C30   C     C_R   0.544086 0.890501 0.850119 0.421201
C31   C     C_R   0.398734 0.124585 0.016643 -0.261252
C32   C     C_R   0.601288 0.875450 0.983412 -0.261572
H17   H     H_    0.453794 0.149839 0.940646 0.154697
H18   H     H_    0.546264 0.850151 0.059422 0.154824
C33   C     C_R   0.270293 0.103722 0.978973 -0.190552
C34   C     C_R   0.729730 0.896468 0.021085 -0.190219
C35   C     C_R   0.440345 0.912398 0.382793 0.371568
C36   C     C_R   0.559630 0.087595 0.617204 0.371326
C37   C     C_R   0.497825 0.872348 0.503542 -0.119233
C38   C     C_R   0.502154 0.127646 0.496457 -0.119235
C39   C     C_R   0.556519 0.959886 0.622045 -0.026984
C40   C     C_R   0.443441 0.040107 0.377963 -0.026553
H19   H     H_    0.419754 0.415779 0.864604 0.163398
H20   H     H_    0.580267 0.584201 0.135396 0.163404
N1    N     N_2   0.447120 0.447110 0.150550 -0.279674
N2    N     N_2   0.552880 0.552890 0.849450 -0.279683
C41   C     C_2   0.510250 0.511302 0.079122 -0.078345
C42   C     C_2   0.489761 0.488688 0.920878 -0.078356
H21   H     H_    0.618048 0.621959 0.905526 0.215051
H22   H     H_    0.381939 0.378053 0.094474 0.215070
O9    O     O_3   0.583775 0.123960 0.186889 -0.711367
H23   H     H_    0.621504 0.148967 0.108392 0.318549
O10   O     O_3   0.416198 0.875923 0.813168 -0.711327
H24   H     H_    0.378502 0.850943 0.891699 0.318456
O11   O     O_3   0.376461 0.824045 0.273393 -0.730467
H25   H     H_    0.372082 0.854487 0.183643 0.303416
O12   O     O_3   0.623523 0.175946 0.726599 -0.730218
H26   H     H_    0.627800 0.145541 0.816363 0.303471
N3    N     N_R   0.170530 0.035067 0.309658 0.141220
O13   O     O_R   0.204988 0.072217 0.443546 -0.352332
O14   O     O_R   0.057845 0.983238 0.264966 -0.374242
N4    N     N_R   0.829256 0.965214 0.690369 0.141378
O15   O     O_R   0.795434 0.926673 0.556661 -0.352506
O16   O     O_R   0.941281 0.018699 0.735019 -0.374121

loop_
_geom_bond_atom_site_label_1
_geom_bond_atom_site_label_2
_geom_bond_distance
_ccdc_geom_bond_type
C32   C34   1.390506 A    
O5    Cu1   1.982154 S    
C38   C40   1.420340 A    
C35   C37   1.407758 A    
C11   H7    1.083225 S    
Cu2   N1    2.005669 S    
C25   N3    1.441949 S    
O11   H25   0.987557 S    
C23   H15   1.080169 S    
N3    O13   1.301621 A    
O5    C3    1.302683 A    
C30   O10   1.381968 S    
H14   C34   1.082416 S    
O1    C1    1.297027 A    
C14   C16   1.394825 A    
C18   C20   1.394788 A    
N1    H22   1.028680 S    
C29   O9    1.381982 S    
C31   H17   1.081270 S    
C32   H18   1.081285 S    
C3    C20   1.462631 S    
C41   C42   1.512881 S    
H13   C33   1.082419 S    
O4    Cu1   1.986987 S    
C27   C40   1.489806 S    
C2    C37   1.467740 S    
C37   C39   1.420328 A    
C13   H9    1.080624 S    
C24   H16   1.080186 S    
Cu1   Cu2   2.669757 S    
C19   C21   1.422447 A    
O2    C2    1.297018 A    
C20   C22   1.422413 A    
N2    H21   1.028684 S    
C9    C22   1.483371 S    
H1    C15   1.080421 S    
C26   C28   1.419245 A    
C10   C21   1.483402 S    
C27   C29   1.413685 A    
C28   C30   1.413650 A    
N3    O14   1.301937 A    
C11   C13   1.396657 A    
C36   C39   1.405192 A    
C12   C14   1.396666 A    
N2    C42   1.302459 D    
N1    C41   1.302462 D    
C23   C25   1.403106 A    
C28   C39   1.489821 S    
O9    H23   0.991951 S    
C5    C7    1.398119 A    
C25   C27   1.419513 A    
C36   C38   1.407733 A    
O7    Cu2   1.977181 S    
C36   O12   1.387872 S    
C4    C19   1.462624 S    
C24   C34   1.393640 A    
O12   H26   0.987559 S    
C26   N4    1.441597 S    
O6    C4    1.302690 A    
H20   C41   1.084871 S    
H19   C42   1.084868 S    
O7    C3    1.279862 A    
O3    Cu2   1.986987 S    
O8    C4    1.279852 A    
O4    C2    1.286577 A    
C35   O11   1.387878 S    
C29   C31   1.405511 A    
C8    H6    1.083107 S    
O1    Cu1   1.984425 S    
C7    C9    1.407608 A    
C35   C40   1.405186 A    
O6    Cu2   1.982153 S    
C6    C8    1.398120 A    
N4    O16   1.301532 A    
C1    C38   1.467771 S    
O3    C1    1.286581 A    
O8    Cu1   1.977181 S    
C23   C33   1.393600 A    
C31   C33   1.390411 A    
Cu1   N2    2.005669 S    
C9    C11   1.403782 A    
C10   C12   1.403801 A    
C17   C22   1.387757 A    
C7    H5    1.083104 S    
C18   C21   1.387762 A    
C17   H11   1.082930 S    
H2    C16   1.080437 S    
C18   H12   1.082918 S    
C13   C15   1.394810 A    
C12   H8    1.083226 S    
C5    H3    1.082462 S    
C30   C32   1.405574 A    
C6    H4    1.082461 S    
C17   C19   1.394809 A    
O2    Cu2   1.984425 S    
O10   H24   0.991950 S    
C24   C26   1.402942 A    
N4    O15   1.301215 A    
C8    C10   1.407609 A    
C5    C15   1.397263 A    
C6    C16   1.397267 A    
C14   H10   1.080654 S    
