data_mof_unit_52993.cif
_audit_creation_date              2012-12-10T20:26:30-0500
_audit_creation_method            fapswitch 2.2
_symmetry_space_group_name_H-M    P1
_symmetry_Int_Tables_number       1
_space_group_crystal_system       triclinic
_cell_length_a                    10.681719
_cell_length_b                    10.678641
_cell_length_c                    9.880914
_cell_angle_alpha                 89.821425
_cell_angle_beta                  90.898343
_cell_angle_gamma                 90.154997
_cell_volume                      1126.93074825

loop_
_atom_site_label
_atom_site_type_symbol
_atom_type_description
_atom_site_fract_x
_atom_site_fract_y
_atom_site_fract_z
_atom_type_partial_charge
C1    C     C_R   0.503668 0.259958 0.500216 0.867866
C2    C     C_R   0.557961 0.592431 0.072530 -0.092058
C3    C     C_R   0.558677 0.591996 0.928678 -0.075962
C4    C     C_R   0.262663 0.505601 0.498269 0.881756
C5    C     C_R   0.448793 0.402224 0.929116 0.133315
C6    C     C_3   0.315037 0.357074 0.929052 -0.294585
C7    C     C_3   0.324827 0.347574 0.082609 -0.559580
C8    C     C_R   0.504072 0.739965 0.499897 0.895827
C9    C     C_R   0.737285 0.492343 0.501270 0.937449
C10   C     C_2   0.932442 0.459541 0.392139 -0.106116
C11   C     C_2   0.868483 0.470358 0.505717 -0.274626
C12   C     C_R   0.523594 0.128545 0.501117 -0.096474
C13   C     C_2   0.066762 0.455639 0.402119 -0.244318
C14   C     C_2   0.131589 0.528810 0.489006 -0.122892
C15   C     C_R   0.522626 0.063321 0.623241 0.141740
C16   C     C_2   0.219585 0.453201 0.885029 1.044979
C17   C     C_2   0.083535 0.646766 0.550450 0.910290
C18   C     C_R   0.548593 0.065238 0.380300 -0.223498
C19   C     C_R   0.548880 0.935706 0.380115 -0.206494
C20   C     C_R   0.524146 0.871351 0.500735 -0.097457
C21   C     C_R   0.522993 0.935559 0.623059 0.111226
C22   C     C_3   0.432786 0.927256 0.736912 -0.432911
C23   C     C_3   0.432046 0.069114 0.736793 -0.501402
C24   C     C_R   0.453255 0.399915 0.071451 0.210366
H1    H     H_    0.887445 0.452950 0.293027 0.177371
H2    H     H_    0.559175 0.114623 0.285198 0.170776
H3    H     H_    0.559615 0.887080 0.284954 0.168401
H4    H     H_    0.341366 0.885260 0.705960 0.240556
H5    H     H_    0.476342 0.886368 0.829867 0.203059
H6    H     H_    0.340261 0.109446 0.705054 0.208976
H7    H     H_    0.154215 0.629396 0.903801 0.365447
H8    H     H_    0.960908 0.790267 0.540902 0.339351
H9    H     H_    0.474936 0.110164 0.829856 0.203699
H10   H     H_    0.602697 0.668404 0.127098 0.137655
H11   H     H_    0.604356 0.667366 0.875068 0.136139
H12   H     H_    0.302534 0.264470 0.879919 0.145928
H13   H     H_    0.261008 0.410090 0.138932 0.234468
H14   H     H_    0.326530 0.249308 0.120062 0.192578
H15   H     H_    0.914800 0.466759 0.604557 0.177691
H16   H     H_    0.113002 0.383872 0.343202 0.156878
N1    N     N_R   0.499170 0.499140 0.142800 -0.095245
N2    N     N_R   0.499170 0.499180 0.857150 -0.101317
O1    O     O_R   0.500020 0.316790 0.614690 -0.625162
O2    O     O_R   0.227740 0.575864 0.933867 -0.784523
O3    O     O_2   0.136829 0.691471 0.649515 -0.644199
O4    O     O_R   0.982979 0.711025 0.490406 -0.796732
O5    O     O_R   0.500000 0.316760 0.385350 -0.628384
O6    O     O_R   0.319080 0.500020 0.614640 -0.572325
O7    O     O_R   0.319070 0.499980 0.385300 -0.623089
O8    O     O_R   0.500000 0.683240 0.614650 -0.613550
O9    O     O_R   0.499980 0.683210 0.385310 -0.623896
O10   O     O_R   0.680930 0.500020 0.614700 -0.623611
O11   O     O_R   0.680920 0.499980 0.385360 -0.619979
O12   O     O_2   0.132849 0.422303 0.810082 -0.653123
Zn1   Zn    Zn3+2 0.500010 0.500020 0.653130 0.982358
Zn2   Zn    Zn3+2 0.499990 0.499980 0.346870 0.957363

loop_
_geom_bond_atom_site_label_1
_geom_bond_atom_site_label_2
_ccdc_geom_bond_type
O6    Zn1   S    
C5    N2    A    
O10   Zn1   S    
N1    Zn2   S    
C6    C7    S    
C22   H5    S    
N2    Zn1   S    
O7    Zn2   S    
C19   H3    S    
C16   O2    S    
C19   C20   A    
C18   H2    S    
C12   C15   A    
C3    H11   S    
C4    O7    A    
C2    H10   S    
C15   C23   S    
C2    C3    A    
C7    H13   S    
C3    N2    A    
C22   H4    S    
C21   C22   S    
C20   C21   A    
C11   H15   S    
C24   N1    A    
C9    C11   S    
C14   C17   S    
C8    C20   S    
C5    C24   A    
C10   H1    S    
O1    Zn1   S    
C7    H14   S    
C17   O3    D    
C18   C19   A    
C9    O10   A    
C4    C14   S    
C5    C6    S    
C16   O12   D    
C9    O11   A    
H7    O2    S    
C2    N1    A    
C6    C16   S    
C7    C24   S    
C23   H6    S    
C8    O8    A    
C15   C21   A    
C17   O4    S    
C4    O6    A    
O9    Zn2   S    
C10   C11   D    
O11   Zn2   S    
C12   C18   A    
C22   C23   S    
C1    O5    A    
C13   H16   S    
C8    O9    A    
C13   C14   D    
H8    O4    S    
C1    O1    A    
C1    C12   S    
O8    Zn1   S    
C6    H12   S    
O5    Zn2   S    
C23   H9    S    
C10   C13   S    
