data_mof_unit_54020.cif
_audit_creation_date              2013-03-05T16:12:47-0500
_audit_creation_method            fapswitch 2.2
_symmetry_space_group_name_H-M    P1
_symmetry_Int_Tables_number       1
_space_group_crystal_system       triclinic
_cell_length_a                    10.633951
_cell_length_b                    9.832158
_cell_length_c                    27.721151
_cell_angle_alpha                 89.901731
_cell_angle_beta                  90.433693
_cell_angle_gamma                 90.03389
_cell_volume                      2898.2884701

loop_
_atom_site_label
_atom_site_type_symbol
_atom_site_description
_atom_site_fract_x
_atom_site_fract_y
_atom_site_fract_z
_atom_type_partial_charge
O1    O     O_R   0.316770 0.614620 0.500000 -0.618728
O2    O     O_R   0.683230 0.385380 0.500000 -0.618586
O3    O     O_R   0.683230 0.614620 0.500000 -0.614888
O4    O     O_R   0.316770 0.385380 0.500000 -0.615551
C1    C     C_R   0.260340 0.499960 0.499979 0.954156
C2    C     C_R   0.739639 0.500051 0.500048 0.951040
O5    O     O_R   0.500030 0.614650 0.428760 -0.611004
O6    O     O_R   0.499970 0.385350 0.571240 -0.611577
O7    O     O_R   0.499970 0.614650 0.571240 -0.593488
O8    O     O_R   0.500030 0.385350 0.428760 -0.597076
C3    C     C_R   0.501481 0.500116 0.406071 0.911523
C4    C     C_R   0.500420 0.499997 0.594073 0.906544
Zn1   Zn    Zn3+2 0.500000 0.653120 0.500000 0.975078
Zn2   Zn    Zn3+2 0.500000 0.346880 0.500000 0.973502
C5    C     C_R   0.418636 0.564482 0.178027 0.523089
C6    C     C_R   0.626893 0.502428 0.822961 0.520752
O9    O     O_2   0.318336 0.607923 0.203276 -0.560334
O10   O     O_2   0.734335 0.490542 0.797679 -0.560436
N1    N     N_R   0.521247 0.513096 0.201698 -0.348158
N2    N     N_R   0.513462 0.504854 0.799402 -0.346463
C7    C     C_R   0.625311 0.469680 0.177648 0.510602
C8    C     C_R   0.402651 0.514556 0.823830 0.508684
C9    C     C_R   0.588259 0.601464 0.279730 -0.144110
C10   C     C_R   0.453940 0.393783 0.723694 -0.137342
C11   C     C_R   0.584398 0.599375 0.330066 0.035371
C12   C     C_R   0.448080 0.392291 0.673286 0.033282
C13   C     C_R   0.442405 0.403307 0.326143 0.038501
C14   C     C_R   0.561445 0.609295 0.671949 0.043196
C15   C     C_R   0.448418 0.407030 0.275937 -0.158912
C16   C     C_R   0.563664 0.609506 0.722158 -0.162338
C17   C     C_R   0.520022 0.506426 0.252993 0.277683
C18   C     C_R   0.510887 0.502135 0.747914 0.267089
C19   C     C_R   0.523467 0.528121 0.102011 -0.055270
C20   C     C_R   0.519100 0.521643 0.899170 -0.056255
C21   C     C_R   0.417582 0.572480 0.127659 -0.046327
C22   C     C_R   0.631872 0.511590 0.873293 -0.045463
C23   C     C_R   0.314639 0.626879 0.102744 -0.189490
C24   C     C_R   0.746924 0.515029 0.897906 -0.187930
C25   C     C_R   0.628666 0.476801 0.127289 -0.013182
C26   C     C_R   0.403301 0.522501 0.874176 -0.009570
C27   C     C_R   0.509229 0.500865 0.353455 -0.056238
C28   C     C_R   0.503132 0.500476 0.647029 -0.063536
H1    H     H_    0.396133 0.333676 0.254637 0.145427
H2    H     H_    0.607208 0.693399 0.741324 0.151229
H3    H     H_    0.235777 0.669150 0.122198 0.191672
H4    H     H_    0.834583 0.515975 0.878203 0.191540
C29   C     C_R   0.408162 0.550977 0.975396 0.068339
C30   C     C_R   0.634754 0.499044 0.025821 0.065544
C31   C     C_R   0.638017 0.516469 0.975101 0.036746
C32   C     C_R   0.412838 0.572315 0.025885 0.036772
C33   C     C_R   0.521911 0.530196 0.950013 0.023379
C34   C     C_R   0.523824 0.533844 0.051111 0.024125
C35   C     C_R   0.293353 0.542209 0.949715 -0.185211
C36   C     C_R   0.735819 0.440862 0.051891 -0.183560
C37   C     C_R   0.291036 0.529690 0.899885 -0.157811
C38   C     C_R   0.733209 0.431024 0.101815 -0.157041
O11   O     O_2   0.292444 0.518530 0.799368 -0.562143
O12   O     O_2   0.724670 0.419434 0.202470 -0.561936
C39   C     C_R   0.311924 0.629854 0.052403 0.072916
C40   C     C_R   0.751509 0.520458 0.948217 0.077984
H5    H     H_    0.412873 0.311619 0.744372 0.148556
H6    H     H_    0.643999 0.677008 0.261057 0.142297
H7    H     H_    0.200668 0.524744 0.881650 0.187742
H8    H     H_    0.813200 0.386212 0.120318 0.190316
H9    H     H_    0.203793 0.537795 0.967647 0.164309
H10   H     H_    0.815281 0.395201 0.034236 0.169317
C41   C     C_R   0.064340 0.430649 0.463112 0.017823
C42   C     C_R   0.935561 0.569457 0.536928 0.018489
C43   C     C_R   0.933878 0.430877 0.463076 0.006718
C44   C     C_R   0.066037 0.569262 0.536953 0.009116
C45   C     C_R   0.871975 0.500166 0.500014 -0.066587
C46   C     C_R   0.127962 0.499891 0.500028 -0.067453
C47   C     C_R   0.578606 0.071877 0.530031 -0.061885
C48   C     C_R   0.421397 0.928127 0.469967 -0.060824
C49   C     C_R   0.421401 0.072096 0.469961 -0.066579
C50   C     C_R   0.578669 0.927916 0.530008 -0.067063
H11   H     H_    0.641410 0.126416 0.554030 0.133816
H12   H     H_    0.358596 0.873587 0.445967 0.133158
H13   H     H_    0.358588 0.126808 0.445962 0.142145
H14   H     H_    0.641643 0.873231 0.553940 0.143424
N3    N     N_R   0.500000 0.857200 0.500000 -0.081140
N4    N     N_R   0.500000 0.142800 0.500000 -0.081733
N5    N     N_3   0.366030 0.302611 0.349206 -0.442418
H15   H     H_    0.274467 0.311168 0.335532 0.186278
H16   H     H_    0.400187 0.206809 0.339579 0.192169
N6    N     N_3   0.620855 0.718604 0.646505 -0.437524
H17   H     H_    0.714942 0.723360 0.657601 0.186574
H18   H     H_    0.577474 0.809509 0.656607 0.187746
N7    N     N_3   0.384025 0.283236 0.648805 -0.424244
H19   H     H_    0.355727 0.208486 0.673317 0.183460
H20   H     H_    0.301898 0.323584 0.633531 0.188964
N8    N     N_3   0.658041 0.695010 0.357535 -0.422055
H21   H     H_    0.703028 0.764117 0.334713 0.185359
H22   H     H_    0.729021 0.640304 0.375233 0.182626
N9    N     N_3   0.212259 0.703462 0.029034 -0.470213
H23   H     H_    0.126624 0.661094 0.039756 0.185439
H24   H     H_    0.214897 0.804055 0.041194 0.199283
N10   N     N_3   0.871054 0.543802 0.971026 -0.477431
H25   H     H_    0.932168 0.465818 0.960830 0.174729
H26   H     H_    0.907534 0.635356 0.957907 0.196740
N11   N     N_3   0.133359 0.364164 0.425558 -0.452026
H27   H     H_    0.109474 0.261047 0.425258 0.185650
H28   H     H_    0.107829 0.407248 0.392422 0.183774
N12   N     N_3   0.866475 0.636103 0.574441 -0.454706
H29   H     H_    0.890428 0.739202 0.574721 0.184159
H30   H     H_    0.891701 0.593100 0.607627 0.186017
N13   N     N_3   0.863104 0.364707 0.425470 -0.452994
H31   H     H_    0.886838 0.408206 0.392338 0.180912
H32   H     H_    0.887038 0.261646 0.424991 0.196510
N14   N     N_3   0.136794 0.635587 0.574526 -0.451549
H33   H     H_    0.112977 0.592267 0.607678 0.184173
H34   H     H_    0.112876 0.738656 0.574935 0.194828

loop_
_geom_bond_atom_site_label_1
_geom_bond_atom_site_label_2
_geom_bond_distance
_ccdc_geom_bond_type
C10   H5    1.083370 S    
C13   C15   1.394117 A    
N9    H23   1.046119 S    
O3    C2    1.276525 A    
N1    C17   1.423513 S    
C8    O11   1.350092 S    
N12   H30   1.045033 S    
C43   N13   1.437487 S    
C12   N7    1.438354 S    
C5    N1    1.365707 A    
C41   N11   1.436731 S    
C20   C33   1.412161 A    
C19   C25   1.408789 A    
C31   C40   1.423698 A    
C20   C26   1.408386 A    
C32   C39   1.423410 A    
N1    C7    1.365281 A    
C10   C12   1.398384 A    
C1    C46   1.407706 S    
C40   N10   1.434047 S    
N6    H18   1.045658 S    
Zn1   N3    2.006547 S    
C41   C46   1.399957 A    
C14   C28   1.414824 A    
C43   C45   1.399651 A    
O7    Zn1   2.010114 S    
N14   H33   1.045078 S    
C4    C28   1.468090 S    
C44   N14   1.437397 S    
C9    H6    1.083411 S    
C25   C38   1.396673 A    
C31   C33   1.418866 A    
C37   H7    1.083534 S    
C32   C34   1.418501 A    
N13   H31   1.045078 S    
C38   H8    1.083441 S    
N7    H20   1.045757 S    
C35   H9    1.078449 S    
O3    Zn1   1.985108 S    
C6    N2    1.367508 A    
C29   C35   1.411286 A    
N11   H28   1.044960 S    
C15   H1    1.083501 S    
N13   H32   1.045063 S    
C16   H2    1.083692 S    
O2    C2    1.276793 A    
C39   N9    1.433716 S    
C5    C21   1.398289 A    
N12   H29   1.045079 S    
O5    C3    1.290946 A    
C29   C32   1.416105 A    
C35   C37   1.387041 A    
C2    C45   1.407259 S    
C36   C38   1.387658 A    
C48   C49   1.415518 A    
N11   H27   1.045077 S    
C42   N12   1.437008 S    
O8    Zn2   2.010119 S    
C11   C27   1.414995 A    
N6    H17   1.045546 S    
C29   C33   1.419038 A    
C19   C34   1.412046 A    
C9    C17   1.393720 A    
C30   C36   1.411410 A    
C10   C18   1.395698 A    
C13   C27   1.411309 A    
N5    H15   1.045579 S    
C7    C25   1.398371 A    
O5    Zn1   2.011393 S    
O6    C4    1.293711 A    
C26   C37   1.396885 A    
C8    C26   1.397918 A    
N8    H22   1.045797 S    
C23   C39   1.395847 A    
C24   C40   1.396267 A    
C6    O10   1.350091 S    
C30   C31   1.416819 A    
N5    H16   1.045532 S    
N2    C8    1.366980 A    
N10   H26   1.045790 S    
C14   N6    1.433534 S    
C47   C50   1.415444 A    
O1    C1    1.276801 A    
O1    Zn1   1.984669 S    
Zn2   N4    2.006547 S    
C48   N3    1.366118 A    
C23   H3    1.083927 S    
C47   N4    1.366078 A    
C12   C28   1.416697 A    
N2    C18   1.427661 S    
C5    O9    1.350116 S    
C11   N8    1.438688 S    
O6    Zn2   2.011388 S    
C21   C23   1.396229 A    
C50   H14   1.081741 S    
O4    C1    1.276733 A    
C50   N3    1.366020 A    
N9    H24   1.045741 S    
C49   N4    1.366030 A    
C36   H10   1.078224 S    
C22   C24   1.396759 A    
C7    O12   1.349932 S    
C15   C17   1.394180 A    
C6    C22   1.398924 A    
C16   C18   1.393564 A    
C42   C45   1.399952 A    
C14   C16   1.391880 A    
N8    H21   1.045710 S    
C19   C21   1.406180 A    
C3    C27   1.461554 S    
C20   C22   1.405654 A    
C9    C11   1.396424 A    
O4    Zn2   1.985108 S    
O2    Zn2   1.984669 S    
O7    C4    1.291878 A    
N14   H34   1.045074 S    
C24   H4    1.083978 S    
O8    C3    1.291043 A    
C13   N5    1.432949 S    
C30   C34   1.419121 A    
C42   C44   1.387480 A    
N10   H25   1.046058 S    
C48   H12   1.081782 S    
C47   H11   1.081791 S    
C44   C46   1.399908 A    
C41   C43   1.387330 A    
N7    H19   1.045727 S    
C49   H13   1.081940 S    
