data_mof_unit_47485.cif
_audit_creation_date              2012-10-26T17:11:02-0400
_audit_creation_method            fapswitch 2.2
_symmetry_space_group_name_H-M    P1
_symmetry_Int_Tables_number       1
_space_group_crystal_system       triclinic
_cell_length_a                    28.050211
_cell_length_b                    18.709707
_cell_length_c                    16.87415
_cell_angle_alpha                 89.888703
_cell_angle_beta                  62.491008
_cell_angle_gamma                 89.830404
_cell_volume                      7854.46242706

loop_
_atom_site_label
_atom_site_type_symbol
_atom_type_description
_atom_site_fract_x
_atom_site_fract_y
_atom_site_fract_z
_atom_type_partial_charge
C1    C     C_R   0.295005 0.728265 0.329699 0.553674
C2    C     C_R   0.470451 0.119197 0.427647 -0.138262
C3    C     C_R   0.926480 0.096858 0.066611 0.554102
C4    C     C_R   0.426439 0.403238 0.066698 0.553893
C5    C     C_R   0.573561 0.596762 0.933302 0.553894
C6    C     C_R   0.573520 0.403142 0.933389 0.554103
C7    C     C_R   0.426480 0.596857 0.066612 0.554102
C8    C     C_R   0.048573 0.499546 0.506832 0.032924
C9    C     C_R   0.951426 0.500454 0.493171 0.032923
C10   C     C_R   0.548569 0.999545 0.506851 0.032919
C11   C     C_R   0.451421 0.000454 0.493193 0.032916
C12   C     C_R   0.035457 0.559320 0.468431 0.013095
C13   C     C_R   0.426958 0.884438 0.565209 -0.140031
C14   C     C_R   0.964541 0.440680 0.531574 0.013096
C15   C     C_R   0.986313 0.560215 0.462637 0.012117
C16   C     C_R   0.013686 0.439785 0.537366 0.012117
C17   C     C_R   0.535461 0.059312 0.468428 0.013097
C18   C     C_R   0.464532 0.940682 0.531605 0.013100
C19   C     C_R   0.486313 0.060212 0.462647 0.012120
C20   C     C_R   0.513676 0.939787 0.537404 0.012122
C21   C     C_R   0.114125 0.437383 0.542574 0.009048
C22   C     C_R   0.885874 0.562617 0.457426 0.009048
C23   C     C_R   0.869888 0.439179 0.508685 0.007998
C24   C     C_R   0.573046 0.115537 0.434775 -0.140043
C25   C     C_R   0.130111 0.560821 0.491317 0.007999
C26   C     C_R   0.614122 0.937384 0.542593 0.009045
C27   C     C_R   0.385872 0.062618 0.457440 0.009048
C28   C     C_R   0.369884 0.939180 0.508699 0.007999
C29   C     C_R   0.630111 0.060817 0.491322 0.007999
C30   C     C_R   0.166254 0.435507 0.537655 -0.029194
C31   C     C_R   0.833746 0.564493 0.462345 -0.029194
C32   C     C_R   0.826053 0.436576 0.488033 -0.026194
C33   C     C_R   0.173946 0.563424 0.511968 -0.026194
C34   C     C_R   0.666253 0.935506 0.537663 -0.029193
C35   C     C_R   0.029546 0.380806 0.572374 -0.138274
C36   C     C_R   0.333745 0.064494 0.462351 -0.029192
C37   C     C_R   0.326052 0.936577 0.488037 -0.026192
C38   C     C_R   0.673946 0.063423 0.511973 -0.026197
C39   C     C_R   0.192904 0.499820 0.530332 -0.164822
C40   C     C_R   0.807096 0.500180 0.469669 -0.164822
C41   C     C_R   0.692904 0.999819 0.530337 -0.164819
C42   C     C_R   0.307096 0.000180 0.469670 -0.164822
C43   C     C_R   0.097366 0.499376 0.514155 0.036272
C44   C     C_R   0.902633 0.500624 0.485847 0.036272
C45   C     C_R   0.597363 0.999375 0.514172 0.036273
C46   C     C_R   0.970454 0.619193 0.427624 -0.138273
C47   C     C_R   0.402629 0.000625 0.485864 0.036270
C48   C     C_R   0.578391 0.879774 0.574876 -0.116821
C49   C     C_R   0.421601 0.120233 0.425174 -0.116811
C50   C     C_R   0.380931 0.883870 0.554162 -0.117577
C51   C     C_R   0.619069 0.116116 0.445837 -0.117564
C52   C     C_R   0.078396 0.379771 0.574846 -0.116814
C53   C     C_R   0.921604 0.620228 0.425151 -0.116813
C54   C     C_R   0.880938 0.383870 0.554148 -0.117569
C55   C     C_R   0.119060 0.616130 0.445856 -0.117569
C56   C     C_R   0.926967 0.384442 0.565191 -0.140048
C57   C     C_R   0.073030 0.615560 0.434816 -0.140048
C58   C     C_R   0.221121 0.767126 0.952720 0.031814
C59   C     C_R   0.778879 0.232874 0.047279 0.031817
C60   C     C_R   0.778915 0.767537 0.047123 0.029984
C61   C     C_R   0.704996 0.271736 0.670301 0.553671
C62   C     C_R   0.221085 0.232461 0.952877 0.029979
C63   C     C_R   0.721121 0.267127 0.952720 0.031817
C64   C     C_R   0.278880 0.732875 0.047279 0.031814
C65   C     C_R   0.278915 0.267538 0.047123 0.029979
C66   C     C_R   0.721085 0.732463 0.952877 0.029984
C67   C     C_R   0.277528 0.771122 0.910584 -0.110101
C68   C     C_R   0.722471 0.228864 0.089414 -0.110102
C69   C     C_R   0.722425 0.770410 0.089627 -0.109225
C70   C     C_R   0.277573 0.229592 0.910375 -0.109225
C71   C     C_R   0.777530 0.271137 0.910586 -0.110102
C72   C     C_R   0.705021 0.728207 0.670251 0.553874
C73   C     C_R   0.222473 0.728879 0.089415 -0.110101
C74   C     C_R   0.222427 0.270407 0.089624 -0.109225
C75   C     C_R   0.777575 0.729590 0.910373 -0.109225
C76   C     C_R   0.306110 0.754099 0.957367 -0.110927
C77   C     C_R   0.693889 0.245888 0.042630 -0.110927
C78   C     C_R   0.693832 0.752981 0.043045 -0.110365
C79   C     C_R   0.306166 0.247022 0.956956 -0.110365
C80   C     C_R   0.806112 0.254113 0.957369 -0.110927
C81   C     C_R   0.193890 0.745902 0.042632 -0.110926
C82   C     C_R   0.193834 0.252977 0.043043 -0.110365
C83   C     C_R   0.294979 0.271793 0.329749 0.553877
C84   C     C_R   0.806168 0.747019 0.956955 -0.110365
C85   C     C_R   0.144745 0.829498 0.943616 -0.118345
C86   C     C_R   0.855256 0.170504 0.056382 -0.118345
C87   C     C_R   0.855198 0.829980 0.056389 -0.117297
C88   C     C_R   0.144803 0.170018 0.943610 -0.117297
C89   C     C_R   0.644744 0.329496 0.943617 -0.118344
C90   C     C_R   0.355256 0.670502 0.056384 -0.118345
C91   C     C_R   0.355197 0.329982 0.056390 -0.117297
C92   C     C_R   0.644802 0.670019 0.943611 -0.117297
C93   C     C_R   0.117917 0.851802 0.895094 -0.014047
C94   C     C_R   0.795004 0.228264 0.329699 0.553671
C95   C     C_R   0.882083 0.148198 0.104905 -0.014047
C96   C     C_R   0.882011 0.852053 0.104978 -0.013760
C97   C     C_R   0.117989 0.147946 0.895022 -0.013759
C98   C     C_R   0.617917 0.351801 0.895094 -0.014047
C99   C     C_R   0.382083 0.648198 0.104906 -0.014047
C100  C     C_R   0.382011 0.352054 0.104978 -0.013759
C101  C     C_R   0.617989 0.647947 0.895022 -0.013760
C102  C     C_R   0.136508 0.829594 0.806958 -0.137127
C103  C     C_R   0.863491 0.170405 0.193041 -0.137128
C104  C     C_R   0.863410 0.829700 0.193101 -0.139594
C105  C     C_R   0.204995 0.771735 0.670301 0.553673
C106  C     C_R   0.136590 0.170300 0.806899 -0.139593
C107  C     C_R   0.636509 0.329594 0.806959 -0.137127
C108  C     C_R   0.363492 0.670405 0.193042 -0.137127
C109  C     C_R   0.363410 0.329700 0.193101 -0.139593
C110  C     C_R   0.636590 0.670300 0.806899 -0.139594
C111  C     C_R   0.182537 0.787490 0.765777 -0.014717
C112  C     C_R   0.817462 0.212508 0.234223 -0.014718
C113  C     C_R   0.817484 0.787621 0.234202 -0.014513
C114  C     C_R   0.182516 0.212379 0.765798 -0.014513
C115  C     C_R   0.682538 0.287492 0.765777 -0.014717
C116  C     C_R   0.205021 0.228207 0.670251 0.553875
C117  C     C_R   0.317463 0.712510 0.234223 -0.014717
C118  C     C_R   0.317485 0.287621 0.234202 -0.014513
C119  C     C_R   0.682516 0.712379 0.765798 -0.014513
C120  C     C_R   0.209325 0.765291 0.814396 -0.120528
C121  C     C_R   0.790674 0.234706 0.185605 -0.120530
C122  C     C_R   0.790827 0.765537 0.185468 -0.116927
C123  C     C_R   0.209172 0.234463 0.814532 -0.116927
C124  C     C_R   0.709326 0.265294 0.814395 -0.120528
C125  C     C_R   0.290676 0.734710 0.185604 -0.120529
C126  C     C_R   0.290828 0.265537 0.185468 -0.116928
C127  C     C_R   0.794979 0.771793 0.329749 0.553875
C128  C     C_R   0.709173 0.734463 0.814532 -0.116927
C129  C     C_R   0.190809 0.786475 0.903415 -0.008715
C130  C     C_R   0.809190 0.213525 0.096585 -0.008717
C131  C     C_R   0.809223 0.786932 0.096470 -0.009176
C132  C     C_R   0.190777 0.213067 0.903530 -0.009176
C133  C     C_R   0.690810 0.286475 0.903415 -0.008717
C134  C     C_R   0.309191 0.713526 0.096585 -0.008715
C135  C     C_R   0.309223 0.286932 0.096470 -0.009176
C136  C     C_R   0.690777 0.713068 0.903530 -0.009176
C137  C     C_R   0.200630 0.630876 0.514249 0.554610
C138  C     C_R   0.529534 0.880814 0.572430 -0.138269
C139  C     C_R   0.799369 0.369124 0.485752 0.554609
C140  C     C_R   0.803346 0.631780 0.472110 0.550090
C141  C     C_R   0.196654 0.368220 0.527889 0.550090
C142  C     C_R   0.700630 0.130876 0.514250 0.554606
C143  C     C_R   0.299369 0.869123 0.485753 0.554610
C144  C     C_R   0.303346 0.131780 0.472112 0.550091
C145  C     C_R   0.696654 0.868220 0.527892 0.550090
C146  C     C_R   0.926439 0.903237 0.066698 0.553893
C147  C     C_R   0.073561 0.096762 0.933302 0.553893
C148  C     C_R   0.073520 0.903143 0.933388 0.554103
Cu1   Cu    Cu3+1 0.209920 0.785290 0.495070 0.915750
Cu2   Cu    Cu3+1 0.504760 0.500000 0.075850 0.921592
Cu3   Cu    Cu3+1 0.995240 0.000000 0.924150 0.921592
Cu4   Cu    Cu3+1 0.004760 0.000000 0.075850 0.921591
Cu5   Cu    Cu3+1 0.790080 0.214710 0.504930 0.915751
Cu6   Cu    Cu3+1 0.790080 0.785290 0.504930 0.918411
Cu7   Cu    Cu3+1 0.209920 0.214710 0.495070 0.918412
Cu8   Cu    Cu3+1 0.709920 0.285290 0.495070 0.915761
Cu9   Cu    Cu3+1 0.290080 0.714710 0.504930 0.915746
Cu10  Cu    Cu3+1 0.290080 0.285290 0.504930 0.918408
Cu11  Cu    Cu3+1 0.709920 0.714710 0.495070 0.918414
Cu12  Cu    Cu3+1 0.495240 0.500000 0.924150 0.921591
H1    H     H_    0.229887 0.499988 0.535832 0.160648
H2    H     H_    0.913380 0.665945 0.394117 0.142246
H3    H     H_    0.852997 0.340824 0.586099 0.146073
H4    H     H_    0.147001 0.659176 0.413905 0.146075
H5    H     H_    0.505517 0.833469 0.597704 0.101885
H6    H     H_    0.494460 0.166560 0.402419 0.101879
H7    H     H_    0.431315 0.839816 0.601687 0.099333
H8    H     H_    0.568709 0.160111 0.398217 0.099339
H9    H     H_    0.005537 0.333452 0.597610 0.101887
H10   H     H_    0.994465 0.666544 0.402382 0.101887
H11   H     H_    0.931321 0.339845 0.601698 0.099341
H12   H     H_    0.770112 0.500012 0.464167 0.160648
H13   H     H_    0.068675 0.660157 0.398313 0.099343
H14   H     H_    0.150494 0.741584 0.076429 0.103784
H15   H     H_    0.849509 0.258442 0.923575 0.103784
H16   H     H_    0.849616 0.743481 0.922776 0.107198
H17   H     H_    0.150387 0.256513 0.077221 0.107201
H18   H     H_    0.650491 0.241559 0.076424 0.103783
H19   H     H_    0.349507 0.758417 0.923570 0.103783
H20   H     H_    0.349613 0.243487 0.922779 0.107201
H21   H     H_    0.650384 0.756518 0.077224 0.107198
H22   H     H_    0.299529 0.788608 0.841813 0.101455
H23   H     H_    0.729889 0.999988 0.535833 0.160649
H24   H     H_    0.700469 0.211366 0.158183 0.101450
H25   H     H_    0.700315 0.787326 0.158596 0.109310
H26   H     H_    0.299683 0.212678 0.841407 0.109313
H27   H     H_    0.799531 0.288634 0.841816 0.101454
H28   H     H_    0.200472 0.711394 0.158187 0.101454
H29   H     H_    0.200318 0.287322 0.158593 0.109312
H30   H     H_    0.799685 0.712673 0.841404 0.109310
H31   H     H_    0.131233 0.848003 0.011439 0.130312
H32   H     H_    0.868770 0.152003 0.988556 0.130313
H33   H     H_    0.868685 0.848629 0.988588 0.131208
H34   H     H_    0.270114 0.000012 0.464163 0.160646
H35   H     H_    0.131316 0.151368 0.011409 0.131208
H36   H     H_    0.631231 0.347998 0.011443 0.130313
H37   H     H_    0.368768 0.651998 0.988560 0.130311
H38   H     H_    0.368684 0.348632 0.988590 0.131208
H39   H     H_    0.631315 0.651371 0.011411 0.131208
H40   H     H_    0.116333 0.847533 0.769076 0.155530
H41   H     H_    0.883666 0.152467 0.230924 0.155530
H42   H     H_    0.883520 0.847488 0.231019 0.153273
H43   H     H_    0.116479 0.152512 0.768981 0.153273
H44   H     H_    0.616333 0.347533 0.769076 0.155530
H45   H     H_    0.586620 0.834056 0.605899 0.142246
H46   H     H_    0.383666 0.652466 0.230924 0.155530
H47   H     H_    0.383521 0.347488 0.231019 0.153273
H48   H     H_    0.616480 0.652512 0.768981 0.153273
H49   H     H_    0.245102 0.732409 0.782730 0.128079
H50   H     H_    0.754895 0.267585 0.217271 0.128081
H51   H     H_    0.755223 0.732546 0.217072 0.130929
H52   H     H_    0.244777 0.267454 0.782928 0.130929
H53   H     H_    0.745105 0.232415 0.782729 0.128081
H54   H     H_    0.254899 0.767592 0.217269 0.128079
H55   H     H_    0.255224 0.232546 0.217072 0.130929
H56   H     H_    0.413379 0.165954 0.394143 0.142253
H57   H     H_    0.744777 0.767454 0.782928 0.130929
H58   H     H_    0.352992 0.840817 0.586100 0.146079
H59   H     H_    0.647016 0.159155 0.413876 0.146057
H60   H     H_    0.086620 0.334052 0.605878 0.142249
O1    O     O_R   0.255040 0.869590 0.478480 -0.508137
O2    O     O_R   0.817950 0.203450 0.375560 -0.508486
O3    O     O_R   0.817950 0.796550 0.375560 -0.515320
O4    O     O_R   0.182050 0.203450 0.624440 -0.515319
O5    O     O_R   0.682050 0.296550 0.624440 -0.508486
O6    O     O_R   0.317950 0.703450 0.375560 -0.508486
O7    O     O_R   0.317950 0.296550 0.375560 -0.515319
O8    O     O_R   0.682050 0.703450 0.624440 -0.515320
O9    O     O_R   0.250530 0.763330 0.367210 -0.521830
O10   O     O_R   0.749470 0.236670 0.632790 -0.521830
O11   O     O_R   0.749470 0.763330 0.632790 -0.511241
O12   O     O_R   0.744960 0.130410 0.521520 -0.508139
O13   O     O_R   0.250530 0.236670 0.367210 -0.511240
O14   O     O_R   0.750530 0.263330 0.367210 -0.521829
O15   O     O_R   0.249470 0.736670 0.632790 -0.521832
O16   O     O_R   0.249470 0.263330 0.632790 -0.511241
O17   O     O_R   0.750530 0.736670 0.367210 -0.511240
O18   O     O_R   0.177260 0.690030 0.513710 -0.515022
O19   O     O_R   0.822740 0.309970 0.486290 -0.515021
O20   O     O_R   0.822740 0.690030 0.486290 -0.513439
O21   O     O_R   0.177260 0.309970 0.513710 -0.513441
O22   O     O_R   0.677260 0.190030 0.513710 -0.515010
O23   O     O_R   0.744960 0.869590 0.521520 -0.507188
O24   O     O_R   0.322740 0.809970 0.486290 -0.515026
O25   O     O_R   0.322740 0.190030 0.486290 -0.513446
O26   O     O_R   0.677260 0.809970 0.513710 -0.513437
O27   O     O_R   0.051640 0.926880 0.885090 -0.511469
O28   O     O_R   0.948360 0.073120 0.114910 -0.511468
O29   O     O_R   0.948360 0.926880 0.114910 -0.512526
O30   O     O_R   0.051640 0.073120 0.885090 -0.512526
O31   O     O_R   0.551640 0.426880 0.885090 -0.511468
O32   O     O_R   0.448360 0.573120 0.114910 -0.511469
O33   O     O_R   0.448360 0.426880 0.114910 -0.512526
O34   O     O_R   0.255040 0.130410 0.478480 -0.507185
O35   O     O_R   0.551640 0.573120 0.885090 -0.512526
O36   O     O_R   0.940620 0.926560 0.986760 -0.513324
O37   O     O_R   0.059380 0.073440 0.013240 -0.513325
O38   O     O_R   0.059380 0.926560 0.013240 -0.514268
O39   O     O_R   0.940620 0.073440 0.986760 -0.514267
O40   O     O_R   0.440620 0.426560 0.986760 -0.513325
O41   O     O_R   0.559380 0.573440 0.013240 -0.513324
O42   O     O_R   0.559380 0.426560 0.013240 -0.514267
O43   O     O_R   0.440620 0.573440 0.986760 -0.514268
O44   O     O_R   0.755040 0.369590 0.478480 -0.508138
O45   O     O_R   0.244960 0.630410 0.521520 -0.508137
O46   O     O_R   0.244960 0.369590 0.521520 -0.507186
O47   O     O_R   0.755040 0.630410 0.478480 -0.507186
O48   O     O_R   0.182050 0.796550 0.624440 -0.508486

loop_
_geom_bond_atom_site_label_1
_geom_bond_atom_site_label_2
_ccdc_geom_bond_type
Cu8   O5    S    
C1    O6    A    
C14   C56   A    
C11   C18   A    
C116  O4    A    
C65   C79   A    
C72   O11   A    
C123  C132  A    
C105  O15   A    
C122  C131  A    
C11   C47   A    
C88   H35   S    
C8    C43   A    
Cu12  O40   S    
C121  C130  A    
C76   H19   S    
C25   C43   A    
Cu7   O4    S    
Cu3   O39   S    
C147  O30   A    
C90   H37   S    
C83   O7    A    
C59   C130  S    
C99   C108  A    
C49   H56   S    
C11   C19   A    
C33   C39   A    
C30   C141  S    
Cu2   Cu12  S    
C145  O26   A    
C106  C114  A    
C138  H5    S    
Cu10  O46   S    
C6    C98   S    
Cu12  O35   S    
C24   H8    S    
Cu9   O24   S    
C29   C51   A    
C55   H4    S    
C102  H40   S    
C128  C136  A    
C16   C35   A    
Cu3   O27   S    
C90   C134  A    
C34   C145  S    
C3    O39   A    
C75   C84   A    
C13   H7    S    
Cu7   O13   S    
C58   C129  S    
C87   C131  A    
Cu6   O20   S    
C140  O20   A    
C31   C40   A    
C145  O23   A    
C93   C148  S    
C109  H47   S    
C20   C138  A    
C37   C42   A    
C42   H34   S    
C71   C80   A    
Cu7   O21   S    
C26   C45   A    
C85   C129  A    
C106  H43   S    
Cu8   O44   S    
C91   H38   S    
C85   C93   A    
Cu4   O37   S    
C26   C34   A    
C22   C44   A    
C113  C122  A    
C83   O13   A    
C10   C20   A    
C6    O31   A    
C29   C38   A    
C61   C115  S    
Cu12  O43   S    
C64   C73   A    
Cu5   O12   S    
C7    O43   A    
Cu8   O22   S    
Cu10  O25   S    
C54   H3    S    
C39   H1    S    
C92   H39   S    
C2    H6    S    
C21   C30   A    
C88   C97   A    
C127  O3    A    
Cu10  O16   S    
C119  C128  A    
C24   C51   A    
C105  C111  S    
C100  C109  A    
C8    C16   A    
C21   C43   A    
C139  O44   A    
C123  H52   S    
Cu7   Cu10  S    
C5    O41   A    
C97   C147  S    
Cu12  O31   S    
C12   C57   A    
C69   C78   A    
C92   C136  A    
C34   C41   A    
Cu1   O1    S    
C4    O33   A    
C74   C82   A    
C1    O9    A    
C72   C119  S    
C60   C131  S    
C73   C81   A    
Cu4   O29   S    
Cu10  O7    S    
C95   C103  A    
C109  C118  A    
C61   O10   A    
C22   C53   A    
C5    C101  S    
C124  H53   S    
C14   C16   A    
Cu11  O17   S    
C66   C78   A    
C54   C56   A    
C52   H60   S    
C17   C24   A    
C89   C133  A    
C22   C31   A    
Cu5   O19   S    
C146  O29   A    
C139  O19   A    
C120  C129  A    
C64   C134  S    
C62   C132  S    
C81   H14   S    
C21   C52   A    
C75   H30   S    
C87   H33   S    
C32   C139  S    
C108  H46   S    
C126  H55   S    
C58   C81   A    
C33   C137  S    
C13   C18   A    
C28   C50   A    
C94   O14   A    
Cu2   O33   S    
C148  O38   A    
C51   H59   S    
C101  C110  A    
C142  O22   A    
C89   H36   S    
C144  O34   A    
C50   H58   S    
C148  O27   A    
C61   O5    A    
C65   C74   A    
C46   H10   S    
C29   C45   A    
C103  C112  A    
C105  O48   A    
C104  H42   S    
C147  O37   A    
C9    C14   A    
C103  H41   S    
Cu11  O26   S    
C2    C49   A    
C36   C42   A    
C59   C68   A    
C74   H29   S    
C125  H54   S    
C58   C67   A    
C59   C80   A    
C142  O12   A    
C12   C15   A    
Cu3   Cu4   S    
C87   C96   A    
C116  O16   A    
C10   C45   A    
C46   C53   A    
Cu1   O18   S    
C64   C76   A    
C140  O47   A    
C91   C135  A    
C6    O42   A    
C1    C117  S    
C121  H50   S    
Cu6   O11   S    
Cu5   Cu8   S    
C102  C111  A    
C107  C115  A    
C65   C135  S    
C68   C77   A    
C7    C99   S    
Cu9   O6    S    
C38   C41   A    
C66   C136  S    
C114  C123  A    
C124  C133  A    
C28   C47   A    
C107  H44   S    
Cu2   O42   S    
C126  C135  A    
C127  O17   A    
C55   C57   A    
C56   H11   S    
C137  O45   A    
Cu8   O14   S    
C91   C100  A    
Cu5   O2    S    
C57   H13   S    
Cu5   O10   S    
Cu6   O3    S    
C36   C144  S    
C3    O28   A    
C97   C106  A    
C17   C19   A    
C69   H25   S    
C90   C99   A    
C40   H12   S    
C73   H28   S    
C96   C146  S    
C27   C49   A    
C83   C118  S    
C23   C54   A    
C63   C77   A    
C27   C47   A    
C120  H49   S    
C96   C104  A    
Cu6   O23   S    
C68   H24   S    
C9    C44   A    
C115  C124  A    
C37   C143  S    
C146  O36   A    
C2    C19   A    
C137  O18   A    
C93   C102  A    
C108  C117  A    
C86   C130  A    
C25   C55   A    
C80   H15   S    
C71   H27   S    
C110  C119  A    
C143  O1    A    
C114  C116  S    
C62   C70   A    
Cu2   O32   S    
C92   C101  A    
C113  C127  S    
C26   C48   A    
C27   C36   A    
C85   H31   S    
Cu9   O45   S    
C63   C133  S    
C7    O32   A    
C86   H32   S    
C77   H18   S    
C15   C46   A    
C48   C138  A    
C89   C98   A    
C78   H21   S    
Cu1   O9    S    
C141  O46   A    
C5    O35   A    
C4    C100  S    
C9    C15   A    
C28   C37   A    
C79   H20   S    
C112  C121  A    
C118  C126  A    
C125  C134  A    
C84   H16   S    
C23   C32   A    
C48   H45   S    
C60   C84   A    
C70   C79   A    
C117  C125  A    
C60   C69   A    
C143  O24   A    
C35   H9    S    
C66   C75   A    
C128  H57   S    
C82   H17   S    
C94   C112  S    
C104  C113  A    
Cu7   O34   S    
C3    C95   S    
C30   C39   A    
C38   C142  S    
C18   C20   A    
C32   C40   A    
C62   C82   A    
C53   H2    S    
C141  O21   A    
Cu4   O28   S    
Cu11  O8    S    
C86   C95   A    
C98   C107  A    
Cu2   O41   S    
C13   C50   A    
Cu4   O38   S    
Cu3   O30   S    
Cu6   Cu11  S    
Cu9   O15   S    
C4    O40   A    
C72   O8    A    
C35   C52   A    
C94   O2    A    
C88   C132  A    
C122  H51   S    
C41   H23   S    
C110  H48   S    
C67   C76   A    
C10   C17   A    
Cu1   O48   S    
Cu1   Cu9   S    
C31   C140  S    
C144  O25   A    
Cu11  O47   S    
C63   C71   A    
C70   H26   S    
C8    C12   A    
C67   H22   S    
C25   C33   A    
Cu3   O36   S    
C23   C44   A    
C111  C120  A    
