data_mof_unit_55225.cif
_audit_creation_date              2012-12-11T17:05:32-0500
_audit_creation_method            fapswitch 2.2
_symmetry_space_group_name_H-M    P1
_symmetry_Int_Tables_number       1
_space_group_crystal_system       triclinic
_cell_length_a                    6.958174
_cell_length_b                    14.516226
_cell_length_c                    16.012599
_cell_angle_alpha                 90.260973
_cell_angle_beta                  89.97277
_cell_angle_gamma                 89.998705
_cell_volume                      1617.35844067

loop_
_atom_site_label
_atom_site_type_symbol
_atom_type_description
_atom_site_fract_x
_atom_site_fract_y
_atom_site_fract_z
_atom_type_partial_charge
O1    O     O_R   0.494380 0.415640 0.412830 -0.534827
O2    O     O_R   0.823960 0.405540 0.586560 -0.542385
O3    O     O_R   0.994270 0.584360 0.587170 -0.541980
C1    C     C_R   0.655176 0.383442 0.615171 0.693102
O4    O     O_R   0.824090 0.404620 0.413450 -0.541870
O5    O     O_R   0.994400 0.583430 0.412820 -0.539102
C2    C     C_R   0.655378 0.382346 0.384605 0.704430
O6    O     O_R   0.494250 0.416570 0.587180 -0.536566
O7    O     O_3   0.660800 0.558670 0.500000 -0.371499
V1    V     V_3+5 0.935650 0.489120 0.500000 1.379386
O8    O     O_R   0.324110 0.594460 0.413440 -0.538770
C3    C     C_R   0.155106 0.616619 0.384752 0.694083
O9    O     O_R   0.323980 0.595380 0.586550 -0.543656
C4    C     C_R   0.154771 0.617592 0.615557 0.648790
V2    V     V_3+5 0.435660 0.510880 0.500000 1.382975
O10   O     O_3   0.160640 0.441330 0.500000 -0.366308
C5    C     C_3   0.930170 0.704779 0.713061 -0.306978
H1    H     H_    0.845790 0.730636 0.658957 0.137292
H2    H     H_    0.862912 0.638974 0.733342 0.131287
C6    C     C_3   0.917760 0.775543 0.785150 -0.317297
H3    H     H_    0.844785 0.743260 0.839544 0.134283
H4    H     H_    0.827807 0.834892 0.765109 0.134281
H5    H     H_    0.152033 0.808308 0.604588 0.120841
H6    H     H_    0.133483 0.913711 0.711892 0.119980
C7    C     C_3   0.229936 0.781420 0.660043 -0.324743
C8    C     C_3   0.253764 0.653046 0.764377 -0.323988
C9    C     C_3   0.142686 0.687553 0.686449 0.119806
H7    H     H_    0.407384 0.641135 0.748191 0.137023
H8    H     H_    0.193413 0.585964 0.785179 0.117750
C10   C     C_3   0.121176 0.809667 0.810929 0.121314
C11   C     C_3   0.217327 0.852671 0.732623 -0.319296
C12   C     C_3   0.241103 0.724223 0.837006 -0.320864
H9    H     H_    0.174594 0.691261 0.892569 0.118907
H10   H     H_    0.388824 0.745832 0.855153 0.140161
H11   H     H_    0.383000 0.772168 0.641630 0.137572
H12   H     H_    0.364498 0.877196 0.748416 0.136044
C13   C     C_R   0.274740 0.750989 0.187978 0.090122
C14   C     C_R   0.118310 0.811001 0.179786 -0.110608
C15   C     C_R   0.965951 0.800964 0.236975 -0.169977
H13   H     H_    0.842825 0.846060 0.233415 0.132070
C16   C     C_R   0.977506 0.737399 0.303129 -0.183918
H14   H     H_    0.861834 0.734582 0.348135 0.128656
C17   C     C_R   0.142430 0.682502 0.314424 -0.111029
C18   C     C_R   0.286604 0.688410 0.253641 0.100061
C19   C     C_3   0.496361 0.704966 0.264370 -0.413293
C20   C     C_3   0.483511 0.772742 0.192583 -0.395256
H15   H     H_    0.583307 0.642827 0.249298 0.170745
H16   H     H_    0.529316 0.738378 0.325286 0.169847
H17   H     H_    0.562384 0.749637 0.135850 0.169318
H18   H     H_    0.509776 0.845381 0.211713 0.172785
C21   C     C_R   0.491507 0.251590 0.687648 0.100573
C22   C     C_R   0.647091 0.312323 0.681014 -0.110478
C23   C     C_R   0.799496 0.301308 0.737910 -0.182093
H19   H     H_    0.922286 0.346712 0.735227 0.127875
C24   C     C_R   0.788294 0.236225 0.802723 -0.182165
H20   H     H_    0.903652 0.232729 0.847796 0.128282
C25   C     C_R   0.623827 0.180753 0.812763 -0.107619
C26   C     C_R   0.480013 0.187472 0.751988 0.094139
C27   C     C_3   0.269809 0.202821 0.762674 -0.414677
C28   C     C_3   0.282261 0.272396 0.692292 -0.393925
H21   H     H_    0.235539 0.234597 0.824171 0.169507
H22   H     H_    0.184244 0.140672 0.746203 0.168622
H23   H     H_    0.254542 0.344454 0.712806 0.163807
H24   H     H_    0.204435 0.250365 0.634973 0.172881
C29   C     C_R   0.498286 0.247204 0.312311 0.043296
C30   C     C_R   0.647820 0.311641 0.317533 -0.098239
C31   C     C_R   0.796258 0.304284 0.257854 -0.185497
H25   H     H_    0.916641 0.351346 0.259916 0.122216
C32   C     C_R   0.784006 0.240433 0.191294 -0.188708
H26   H     H_    0.895947 0.239799 0.144384 0.128566
C33   C     C_R   0.623546 0.181752 0.182735 -0.139326
C34   C     C_R   0.487250 0.183617 0.247044 0.109954
C35   C     C_3   0.273366 0.190187 0.243855 0.037852
C36   C     C_3   0.285621 0.259743 0.315671 -0.440516
H27   H     H_    0.219533 0.218897 0.184080 0.131686
H28   H     H_    0.223465 0.235382 0.375615 0.173109
H29   H     H_    0.242389 0.330507 0.297402 0.156554
O11   O     O_R   0.771490 0.080820 0.910070 -0.540974
O12   O     O_R   0.441590 0.092730 0.083780 -0.532277
O13   O     O_R   0.271350 0.913900 0.084390 -0.531753
C37   C     C_R   0.610593 0.115101 0.112528 0.709592
O14   O     O_R   0.441780 0.091820 0.910670 -0.541506
O15   O     O_R   0.271540 0.912980 0.910040 -0.541860
C38   C     C_R   0.610854 0.114086 0.882207 0.686535
O16   O     O_R   0.771300 0.081740 0.084420 -0.535562
O17   O     O_3   0.604960 0.938700 0.997240 -0.373563
V3    V     V_3+5 0.330090 0.008230 0.997220 1.408467
O18   O     O_R   0.941820 0.901930 0.910640 -0.545533
C39   C     C_R   0.110640 0.879675 0.881728 0.646938
O19   O     O_R   0.941630 0.902840 0.083750 -0.543967
C40   C     C_R   0.110331 0.881068 0.112754 0.722733
V4    V     V_3+5 0.830090 0.986410 0.997190 1.388788
O20   O     O_3   0.105080 0.055990 0.997200 -0.366680
N1    N     N_3   0.181323 0.103150 0.266787 -0.654228
H30   H     H_    0.035641 0.116285 0.277335 0.242332
H31   H     H_    0.238462 0.078663 0.322935 0.228135

loop_
_geom_bond_atom_site_label_1
_geom_bond_atom_site_label_2
_ccdc_geom_bond_type
C7    C11   S    
O15   V3    S    
C24   H20   S    
C8    C12   S    
C16   C17   A    
C35   C36   S    
C1    O6    A    
O12   V3    S    
O19   C40   A    
C15   C16   A    
C6    C10   S    
C19   C20   S    
C22   C23   A    
C20   H17   S    
C8    C9    S    
C36   H28   S    
C1    C22   S    
C28   H23   S    
C3    C17   S    
O5    C3    A    
C10   C11   S    
O14   V3    S    
C5    C6    S    
C16   H14   S    
C32   C33   A    
O8    V2    S    
O18   V4    S    
C36   H29   S    
O1    V2    S    
C4    C9    S    
O7    V1    S    
C19   H15   S    
C30   C31   A    
C27   C28   S    
O9    C4    A    
C35   H27   S    
C32   H26   S    
C35   N1    S    
C10   C39   S    
O16   V4    S    
C23   C24   A    
O15   C39   A    
C27   H21   S    
C31   H25   S    
C5    C9    S    
C15   H13   S    
O4    C2    A    
O17   V3    S    
O11   V4    S    
C26   C27   S    
C23   H19   S    
C14   C40   S    
C29   C36   S    
C21   C22   A    
C31   C32   A    
C12   H10   S    
O2    C1    A    
C17   C18   A    
C13   C14   A    
O19   V4    S    
C5    H1    S    
C25   C38   S    
C21   C26   A    
C6    H3    S    
N1    H31   S    
O3    C4    A    
O13   V3    S    
C7    H11   S    
C6    H4    S    
O6    V2    S    
O14   C38   A    
O9    V2    S    
O2    V1    S    
C18   C19   S    
O12   C37   A    
C19   H16   S    
C27   H22   S    
O1    C2    A    
C34   C35   S    
O5    V1    S    
O8    C3    A    
C7    C9    S    
C29   C34   A    
C20   H18   S    
C8    H7    S    
C28   H24   S    
C12   H9    S    
C13   C18   A    
C24   C25   A    
O7    V2    S    
H6    C11   S    
O4    V1    S    
O3    V1    S    
V1    O10   S    
C2    C30   S    
C10   C12   S    
C25   C26   A    
C14   C15   A    
O13   C40   A    
V3    O20   S    
V4    O20   S    
C5    H2    S    
H5    C7    S    
N1    H30   S    
O11   C38   A    
C33   C34   A    
O18   C39   A    
C8    H8    S    
C29   C30   A    
C11   H12   S    
O17   V4    S    
C21   C28   S    
C13   C20   S    
C37   O16   A    
V2    O10   S    
C33   C37   S    
