data_mof_unit_27552.cif
_audit_creation_date              2012-12-10T20:28:00-0500
_audit_creation_method            fapswitch 2.2
_symmetry_space_group_name_H-M    P1
_symmetry_Int_Tables_number       1
_space_group_crystal_system       triclinic
_cell_length_a                    12.89907
_cell_length_b                    10.682649
_cell_length_c                    9.853671
_cell_angle_alpha                 90.139284
_cell_angle_beta                  96.84197
_cell_angle_gamma                 89.981752
_cell_volume                      1348.125251

loop_
_atom_site_label
_atom_site_type_symbol
_atom_type_description
_atom_site_fract_x
_atom_site_fract_y
_atom_site_fract_z
_atom_type_partial_charge
Br1   Br    Br    0.497495 0.862394 0.901311 -0.546809
C1    C     C_R   0.497270 0.259906 0.499527 0.890574
C2    C     C_R   0.457933 0.934879 0.373911 -0.185080
C3    C     C_R   0.480295 0.871388 0.498391 -0.160068
C4    C     C_R   0.298175 0.500501 0.473593 0.884257
C5    C     C_R   0.483551 0.936487 0.621499 0.141071
C6    C     C_3   0.560629 0.929253 0.747361 0.107723
C7    C     C_3   0.563077 0.071247 0.745872 -0.511382
C8    C     C_R   0.411349 0.470669 0.057385 0.227314
C9    C     C_R   0.584664 0.539849 0.085198 -0.095183
C10   C     C_R   0.584770 0.539511 0.941258 -0.078017
C11   C     C_R   0.411248 0.471045 0.914762 0.247481
C12   C     C_R   0.028933 0.506671 0.565272 0.185325
C13   C     C_3   0.352520 0.350763 0.899056 -0.508814
C14   C     C_3   0.353262 0.349844 0.053258 -0.518920
C15   C     C_R   0.496726 0.740050 0.499700 0.886081
C16   C     C_R   0.701828 0.499978 0.526421 0.883811
C17   C     C_R   0.813855 0.500764 0.541893 -0.051903
C18   C     C_R   0.186158 0.501119 0.458143 -0.049070
C19   C     C_R   0.021113 0.489713 0.316735 -0.217877
C20   C     C_R   0.128991 0.492066 0.328428 -0.198400
C21   C     C_R   0.136085 0.509546 0.575866 -0.274448
C22   C     C_R   0.971083 0.496464 0.434739 0.187227
C23   C     C_R   0.863948 0.493307 0.424121 -0.275811
C24   C     C_R   0.870985 0.510426 0.671610 -0.204574
C25   C     C_R   0.978882 0.513416 0.683276 -0.216277
C26   C     C_R   0.485040 0.064218 0.621070 0.078708
C27   C     C_R   0.481677 0.128445 0.497924 -0.108654
C28   C     C_R   0.458565 0.064299 0.373725 -0.207016
H1    H     H_    0.819896 0.485263 0.323592 0.155107
H2    H     H_    0.400708 0.272612 0.103984 0.217178
H3    H     H_    0.832530 0.516336 0.763333 0.155420
H4    H     H_    0.977051 0.482221 0.216255 0.136594
H5    H     H_    0.022953 0.521087 0.783738 0.138533
H6    H     H_    0.167375 0.486162 0.236711 0.156949
H7    H     H_    0.180157 0.517971 0.676305 0.160100
H8    H     H_    0.448074 0.112888 0.276823 0.173070
H9    H     H_    0.447162 0.885594 0.277024 0.202392
H10   H     H_    0.635793 0.884865 0.729262 0.124825
H11   H     H_    0.530379 0.115763 0.833452 0.230426
H12   H     H_    0.639400 0.109951 0.724101 0.180649
H13   H     H_    0.653553 0.570556 0.149939 0.146926
H14   H     H_    0.653680 0.569799 0.897842 0.143188
H15   H     H_    0.273125 0.363005 0.843230 0.200878
H16   H     H_    0.398832 0.273722 0.860210 0.221963
H17   H     H_    0.274253 0.360761 0.085966 0.199134
N1    N     N_R   0.499290 0.499140 0.142710 -0.112559
N2    N     N_R   0.499290 0.499180 0.857070 -0.107048
O1    O     O_R   0.500010 0.316790 0.614690 -0.618736
O2    O     O_R   0.500000 0.316760 0.385350 -0.625447
O3    O     O_R   0.346360 0.499990 0.595720 -0.621634
O4    O     O_R   0.346350 0.499960 0.366370 -0.626752
O5    O     O_R   0.500000 0.683240 0.614650 -0.588384
O6    O     O_R   0.499990 0.683210 0.385310 -0.612464
O7    O     O_R   0.653650 0.500040 0.633630 -0.635452
O8    O     O_R   0.653640 0.500010 0.404280 -0.630672
Zn1   Zn    Zn3+2 0.500010 0.500020 0.653130 0.967729
Zn2   Zn    Zn3+2 0.499990 0.499980 0.346870 0.956820

loop_
_geom_bond_atom_site_label_1
_geom_bond_atom_site_label_2
_ccdc_geom_bond_type
C3    C15   S    
C22   C23   A    
C4    O4    A    
C10   H14   S    
C5    C6    S    
C4    C18   S    
C1    O1    A    
C9    H13   S    
C21   H7    S    
C16   O7    A    
C5    C26   A    
C19   C22   A    
C11   N2    A    
C24   H3    S    
C16   C17   S    
C8    C14   S    
C6    C7    S    
Br1   C6    S    
C19   C20   A    
N1    Zn2   S    
C14   H2    S    
C16   O8    A    
C10   N2    A    
C7    H11   S    
C17   C24   A    
O4    Zn2   S    
C20   H6    S    
C19   H4    S    
C13   H15   S    
C27   C28   A    
C18   C20   A    
C11   C13   S    
C12   C21   A    
C8    N1    A    
C13   H16   S    
C15   O6    A    
O7    Zn1   S    
C8    C11   A    
C23   H1    S    
C12   C25   A    
C9    C10   A    
C2    C3    A    
O2    Zn2   S    
O3    Zn1   S    
N2    Zn1   S    
C18   C21   A    
O1    Zn1   S    
C7    H12   S    
C12   C22   A    
C17   C23   A    
C3    C5    A    
O6    Zn2   S    
C28   H8    S    
C9    N1    A    
C2    C28   A    
C7    C26   S    
C6    H10   S    
C13   C14   S    
C4    O3    A    
C1    C27   S    
C1    O2    A    
C14   H17   S    
C24   C25   A    
C15   O5    A    
C25   H5    S    
C2    H9    S    
O8    Zn2   S    
C26   C27   A    
O5    Zn1   S    
