data_mof_unit_56703.cif
_audit_creation_date              2012-12-10T18:52:10-0500
_audit_creation_method            fapswitch 2.2
_symmetry_space_group_name_H-M    P1
_symmetry_Int_Tables_number       1
_space_group_crystal_system       triclinic
_cell_length_a                    15.738612
_cell_length_b                    10.644762
_cell_length_c                    10.018239
_cell_angle_alpha                 90.008618
_cell_angle_beta                  89.778013
_cell_angle_gamma                 93.756362
_cell_volume                      1674.77509062

loop_
_atom_site_label
_atom_site_type_symbol
_atom_type_description
_atom_site_fract_x
_atom_site_fract_y
_atom_site_fract_z
_atom_type_partial_charge
C1    C     C_R   0.501457 0.260927 0.500130 0.872910
C2    C     C_R   0.498543 0.739073 0.499870 0.873519
C3    C     C_R   0.436920 0.931827 0.423860 0.194554
C4    C     C_R   0.563080 0.068173 0.576143 0.195033
C5    C     C_R   0.497560 0.871679 0.499263 -0.060671
C6    C     C_R   0.502441 0.128321 0.500739 -0.060796
C7    C     C_R   0.554730 0.581382 0.071320 0.197301
C8    C     C_R   0.445267 0.418621 0.928679 0.199755
C9    C     C_R   0.554727 0.581357 0.928068 0.213918
C10   C     C_R   0.445275 0.418640 0.071930 0.211339
C11   C     C_R   0.338356 0.499448 0.500216 0.881435
C12   C     C_R   0.661644 0.500559 0.499790 0.881992
C13   C     C_3   0.967421 0.418568 0.596589 -0.320870
C14   C     C_3   0.032590 0.581867 0.404702 -0.284823
C15   C     C_3   0.022665 0.384937 0.475370 0.234244
C16   C     C_3   0.977321 0.615548 0.525960 0.237511
C17   C     C_1   0.249590 0.499718 0.500789 -0.181055
C18   C     C_1   0.750415 0.500410 0.499298 -0.180564
C19   C     C_3   0.028581 0.536266 0.619892 0.212608
C20   C     C_3   0.971518 0.464206 0.381443 0.235505
C21   C     C_3   0.083680 0.500780 0.500602 -0.002831
C22   C     C_3   0.916327 0.499639 0.500415 0.000732
C23   C     C_1   0.174424 0.500143 0.501007 -0.045001
C24   C     C_1   0.825587 0.500123 0.499400 -0.041199
C25   C     C_R   0.440434 0.061626 0.425264 -0.244112
C26   C     C_R   0.559566 0.938374 0.574739 -0.242468
H1    H     H_    0.940060 0.352652 0.673679 0.160863
H2    H     H_    0.059891 0.647527 0.327322 0.156852
H3    H     H_    0.394125 0.111270 0.369410 0.144548
H4    H     H_    0.605874 0.888730 0.630594 0.143992
N1    N     N_R   0.499980 0.499970 0.857200 -0.116383
N2    N     N_R   0.500020 0.500030 0.142800 -0.116660
O1    O     O_R   0.499990 0.316750 0.614620 -0.624108
O2    O     O_R   0.500010 0.683250 0.385380 -0.624086
O3    O     O_R   0.500000 0.316780 0.385290 -0.623814
O4    O     O_R   0.500000 0.683220 0.614710 -0.623804
O5    O     O_R   0.376780 0.499970 0.614640 -0.617708
O6    O     O_R   0.623220 0.500030 0.385360 -0.616339
O7    O     O_R   0.376780 0.500000 0.385310 -0.618675
O8    O     O_R   0.623220 0.500000 0.614690 -0.620288
Zn1   Zn    Zn3+2 0.500000 0.499980 0.653120 0.932053
Zn2   Zn    Zn3+2 0.500000 0.500020 0.346880 0.933185
N3    N     N_2   0.050623 0.260844 0.447157 -0.307147
H5    H     H_    0.097551 0.234940 0.511128 0.223042
C27   C     C_3   0.982907 0.163691 0.430953 -0.785302
H6    H     H_    0.010267 0.075638 0.397016 0.240038
H7    H     H_    0.936769 0.191187 0.354553 0.275603
H8    H     H_    0.949064 0.145882 0.527300 0.229887
N4    N     N_2   0.948817 0.739607 0.552713 -0.300481
H9    H     H_    0.900867 0.740253 0.622973 0.220173
C28   C     C_3   0.015927 0.837112 0.571819 -0.783755
H10   H     H_    0.987458 0.928093 0.590306 0.232529
H11   H     H_    0.056771 0.846581 0.481266 0.244586
H12   H     H_    0.055484 0.815608 0.659343 0.263465
N5    N     N_2   0.937289 0.424660 0.253165 -0.301413
H13   H     H_    0.893043 0.483459 0.217594 0.229638
C29   C     C_3   0.000256 0.396361 0.154087 -0.792645
H14   H     H_    0.967724 0.360518 0.062292 0.233999
H15   H     H_    0.040918 0.322545 0.190793 0.274271
H16   H     H_    0.040983 0.482355 0.129282 0.233720
N6    N     N_2   0.063951 0.575346 0.747656 -0.297371
H17   H     H_    0.110523 0.518746 0.779668 0.230368
C30   C     C_3   0.002123 0.597478 0.850607 -0.810957
H18   H     H_    0.035659 0.631230 0.942360 0.239225
H19   H     H_    0.963292 0.509252 0.873618 0.237954
H20   H     H_    0.959699 0.670921 0.819207 0.250976
C31   C     C_3   0.367380 0.860193 0.346204 -0.870138
H21   H     H_    0.331783 0.791543 0.412561 0.231408
H22   H     H_    0.321090 0.923995 0.304450 0.225178
H23   H     H_    0.395252 0.809656 0.261416 0.262892
C32   C     C_3   0.632621 0.139806 0.653799 -0.869759
H24   H     H_    0.668217 0.208457 0.587441 0.231662
H25   H     H_    0.604748 0.190344 0.738587 0.262616
H26   H     H_    0.678910 0.076005 0.695553 0.224598
C33   C     C_3   0.616632 0.673537 0.141689 -0.813726
H27   H     H_    0.603348 0.771487 0.115026 0.216825
H28   H     H_    0.614322 0.668847 0.249730 0.287973
H29   H     H_    0.682986 0.655622 0.113413 0.213043
C34   C     C_3   0.383355 0.326481 0.858309 -0.819282
H30   H     H_    0.396617 0.228526 0.884989 0.217241
H31   H     H_    0.317003 0.344428 0.886567 0.212191
H32   H     H_    0.385677 0.331153 0.750267 0.287676
C35   C     C_3   0.616758 0.673453 0.857124 -0.831347
H33   H     H_    0.614214 0.669375 0.749136 0.284507
H34   H     H_    0.603868 0.771421 0.884533 0.215304
H35   H     H_    0.683088 0.654957 0.884154 0.213707
C36   C     C_3   0.383255 0.326530 0.142873 -0.825464
H36   H     H_    0.385788 0.330625 0.250861 0.284335
H37   H     H_    0.316923 0.344995 0.115825 0.215918
H38   H     H_    0.396167 0.228567 0.115479 0.214646

loop_
_geom_bond_atom_site_label_1
_geom_bond_atom_site_label_2
_ccdc_geom_bond_type
C28   H11   S    
N5    H13   S    
C30   H19   S    
C5    C26   A    
O2    Zn2   S    
C36   H36   S    
C1    O1    A    
C27   H6    S    
C17   C23   T    
C18   C24   T    
C14   C21   S    
C19   C21   S    
O6    Zn2   S    
C29   H15   S    
C6    C25   A    
N6    C30   S    
C11   O5    A    
O3    Zn2   S    
N4    C28   S    
C8    C34   S    
C2    O2    A    
C30   H20   S    
C12   O6    A    
O4    Zn1   S    
C20   N5    S    
O7    Zn2   S    
C27   H7    S    
C21   C23   S    
C25   H3    S    
C15   C20   S    
C10   C36   S    
C13   C19   S    
C28   H10   S    
C14   C20   S    
C3    C25   A    
C16   N4    S    
C4    C6    A    
C34   H31   S    
C29   H16   S    
C7    C33   S    
C31   H21   S    
C31   H22   S    
C12   O8    A    
C33   H27   S    
C34   H32   S    
C33   H28   S    
C35   H33   S    
C11   O7    A    
N3    C27   S    
C9    C35   S    
O8    Zn1   S    
C35   H34   S    
C20   C22   S    
C26   H4    S    
C13   C15   S    
N3    H5    S    
C14   C16   S    
C2    C5    S    
C1    O3    A    
C32   H25   S    
C27   H8    S    
C2    O4    A    
C7    C9    A    
C11   C17   S    
C16   C22   S    
C7    N2    A    
N1    Zn1   S    
C8    N1    A    
C3    C31   S    
C30   H18   S    
C3    C5    A    
C32   H26   S    
C4    C26   A    
C28   H12   S    
O1    Zn1   S    
C31   H23   S    
N5    C29   S    
C15   N3    S    
C32   H24   S    
C29   H14   S    
C19   N6    S    
C16   C19   S    
C13   C22   S    
C22   C24   S    
O5    Zn1   S    
N6    H17   S    
C33   H29   S    
C9    N1    A    
C34   H30   S    
C10   N2    A    
C15   C21   S    
C35   H35   S    
C8    C10   A    
N4    H9    S    
C36   H38   S    
C12   C18   S    
C1    C6    S    
C36   H37   S    
N2    Zn2   S    
C13   H1    S    
C14   H2    S    
C4    C32   S    
