data_mof_unit_59546.cif
_audit_creation_date              2013-03-05T16:12:27-0500
_audit_creation_method            fapswitch 2.2
_symmetry_space_group_name_H-M    P1
_symmetry_Int_Tables_number       1
_space_group_crystal_system       triclinic
_cell_length_a                    10.659436
_cell_length_b                    9.805656
_cell_length_c                    23.488024
_cell_angle_alpha                 89.874784
_cell_angle_beta                  90.617122
_cell_angle_gamma                 90.032222
_cell_volume                      2454.88453368

loop_
_atom_site_label
_atom_site_type_symbol
_atom_site_description
_atom_site_fract_x
_atom_site_fract_y
_atom_site_fract_z
_atom_type_partial_charge
O1    O     O_R   0.316770 0.614620 0.500000 -0.618722
O2    O     O_R   0.683230 0.385380 0.500000 -0.599700
O3    O     O_R   0.683230 0.614620 0.500000 -0.618496
O4    O     O_R   0.316770 0.385380 0.500000 -0.621619
C1    C     C_R   0.260424 0.499779 0.499842 0.813592
C2    C     C_R   0.739602 0.500031 0.500728 0.821355
O5    O     O_R   0.499970 0.614690 0.416160 -0.616226
O6    O     O_R   0.500030 0.385310 0.583840 -0.632170
O7    O     O_R   0.500030 0.614690 0.583840 -0.607729
O8    O     O_R   0.499970 0.385310 0.416160 -0.594700
C3    C     C_R   0.495966 0.500410 0.388959 0.889016
C4    C     C_R   0.502400 0.500064 0.611101 0.834758
Zn1   Zn    Zn3+2 0.500000 0.653120 0.500000 0.958557
Zn2   Zn    Zn3+2 0.500000 0.346880 0.500000 0.982058
C5    C     C_R   0.596470 0.537055 0.886172 0.511927
C6    C     C_R   0.348182 0.504376 0.116087 0.505644
N1    N     N_R   0.490569 0.525052 0.853875 -0.366400
N2    N     N_R   0.455764 0.522748 0.146706 -0.365797
C7    C     C_R   0.373849 0.528205 0.876854 0.519047
C8    C     C_R   0.566140 0.558240 0.122235 0.519746
C9    C     C_R   0.359804 0.528686 0.936636 -0.021921
C10   C     C_R   0.572317 0.578991 0.063031 -0.019085
C11   C     C_R   0.469476 0.552070 0.970236 -0.064393
C12   C     C_R   0.462800 0.552566 0.029946 -0.064240
C13   C     C_R   0.587555 0.569430 0.944093 -0.071964
C14   C     C_R   0.347167 0.525213 0.056693 -0.074207
C15   C     C_R   0.241742 0.508898 0.963583 0.079969
C16   C     C_R   0.682737 0.627100 0.036095 0.059499
C17   C     C_R   0.235374 0.516054 0.023615 0.000795
C18   C     C_R   0.691777 0.617776 0.976310 -0.023136
O9    O     O_2   0.709022 0.516577 0.861861 -0.504041
O10   O     O_2   0.244572 0.461478 0.143370 -0.506106
O11   O     O_2   0.273725 0.530767 0.841328 -0.528493
O12   O     O_2   0.669602 0.567907 0.155560 -0.521478
C19   C     C_R   0.493555 0.389438 0.233599 0.168429
C20   C     C_R   0.478858 0.389107 0.766317 0.188126
C21   C     C_R   0.514880 0.387746 0.292845 -0.088173
C22   C     C_R   0.472221 0.384896 0.706357 -0.084921
C23   C     C_R   0.480306 0.502778 0.326172 -0.158241
C24   C     C_R   0.507473 0.501898 0.674231 -0.205673
C25   C     C_R   0.424966 0.619050 0.299057 0.135949
C26   C     C_R   0.547909 0.622221 0.703017 0.146102
C27   C     C_R   0.422293 0.626577 0.239274 -0.003319
C28   C     C_R   0.530489 0.632834 0.762045 -0.012974
C29   C     C_R   0.452524 0.510705 0.207287 0.202417
C30   C     C_R   0.502230 0.514756 0.793465 0.174321
C31   C     C_R   0.067370 0.497899 0.553043 -0.022406
C32   C     C_R   0.933144 0.504658 0.447911 -0.043461
C33   C     C_R   0.936384 0.496330 0.553366 -0.038710
C34   C     C_R   0.063368 0.491835 0.447601 -0.045968
C35   C     C_R   0.872188 0.499532 0.500683 -0.214630
C36   C     C_R   0.127896 0.498924 0.500094 -0.210191
C37   C     C_R   0.588509 0.071979 0.530329 -0.009211
C38   C     C_R   0.411052 0.928108 0.469965 -0.061685
C39   C     C_R   0.411353 0.072210 0.469765 -0.052657
C40   C     C_R   0.588746 0.927856 0.530177 -0.049250
H1    H     H_    0.659043 0.126742 0.554599 0.140536
H2    H     H_    0.339652 0.873520 0.446230 0.135573
H3    H     H_    0.340674 0.127141 0.445581 0.139213
H4    H     H_    0.659751 0.873010 0.554160 0.134511
N3    N     N_R   0.500000 0.857200 0.500000 -0.085330
N4    N     N_R   0.500000 0.142800 0.500000 -0.088231
C41   C     C_3   0.123966 0.476113 0.929022 -0.730504
H5    H     H_    0.141914 0.387989 0.900654 0.273842
H6    H     H_    0.042692 0.444426 0.954591 0.175907
H7    H     H_    0.094305 0.566797 0.903923 0.287975
C42   C     C_3   0.785166 0.698807 0.070312 -0.701456
H8    H     H_    0.845360 0.622166 0.092048 0.295490
H9    H     H_    0.845944 0.765769 0.044459 0.215293
H10   H     H_    0.742676 0.768425 0.101958 0.266189
C43   C     C_2   0.111422 0.529506 0.051249 0.502733
H11   H     H_    0.040949 0.450222 0.047299 0.054453
O13   O     O_2   0.088233 0.630826 0.079349 -0.548840
C44   C     C_2   0.807624 0.667250 0.948120 0.513907
H12   H     H_    0.898986 0.639610 0.965253 0.045633
O14   O     O_2   0.801528 0.744814 0.907429 -0.525690
C45   C     C_3   0.522816 0.264529 0.198080 -0.780394
H13   H     H_    0.465567 0.176976 0.212830 0.250578
H14   H     H_    0.501522 0.278073 0.152143 0.241363
H15   H     H_    0.623900 0.238732 0.202373 0.254377
C46   C     C_3   0.454126 0.261620 0.801244 -0.676454
H16   H     H_    0.523725 0.181894 0.790484 0.283452
H17   H     H_    0.463000 0.277600 0.847771 0.206882
H18   H     H_    0.357906 0.223270 0.792286 0.250615
C47   C     C_2   0.576533 0.265495 0.318215 0.474039
H19   H     H_    0.540713 0.164329 0.308853 0.085617
O15   O     O_2   0.671381 0.276501 0.347410 -0.546347
C48   C     C_2   0.421308 0.260977 0.677833 0.492947
H20   H     H_    0.345672 0.270592 0.646807 0.101559
O16   O     O_2   0.465419 0.148303 0.687448 -0.537070
C49   C     C_3   0.362120 0.731916 0.332711 -0.721555
H21   H     H_    0.309670 0.690498 0.369297 0.202502
H22   H     H_    0.433430 0.806678 0.347622 0.257508
H23   H     H_    0.289505 0.786348 0.307264 0.252569
C50   C     C_3   0.617316 0.735774 0.672468 -0.649054
H24   H     H_    0.682517 0.790579 0.701639 0.254725
H25   H     H_    0.678473 0.694495 0.638794 0.216259
H26   H     H_    0.549451 0.809749 0.653862 0.262672
C51   C     C_2   0.393129 0.756538 0.208714 0.444360
H27   H     H_    0.346465 0.754987 0.167476 0.092740
O17   O     O_2   0.426190 0.866460 0.228098 -0.572648
C52   C     C_2   0.536384 0.767635 0.791558 0.473999
H28   H     H_    0.559517 0.774349 0.836464 0.092690
O18   O     O_2   0.509526 0.873084 0.766515 -0.531108
C53   C     C_2   0.143136 0.489681 0.606775 0.492253
H29   H     H_    0.229641 0.547235 0.610997 0.041562
O19   O     O_2   0.112852 0.413702 0.645528 -0.529281
C54   C     C_2   0.860009 0.531665 0.394460 0.568379
H30   H     H_    0.763523 0.498479 0.390448 0.080136
O20   O     O_2   0.904715 0.598267 0.355640 -0.509989
C55   C     C_2   0.864618 0.498434 0.607600 0.474224
H31   H     H_    0.775846 0.444906 0.610549 0.040639
O21   O     O_2   0.901046 0.564585 0.648547 -0.515107
C56   C     C_2   0.132479 0.459745 0.394154 0.500612
H32   H     H_    0.231783 0.480058 0.391046 0.006544
O22   O     O_2   0.081107 0.401674 0.354309 -0.497210

loop_
_geom_bond_atom_site_label_1
_geom_bond_atom_site_label_2
_geom_bond_distance
_ccdc_geom_bond_type
C41   H6    1.103549 S    
C39   H3    1.081817 S    
C15   C17   1.414309 A    
C50   H24   1.110050 S    
O3    C2    1.274500 A    
C56   H32   1.080203 S    
C50   H26   1.110342 S    
C23   C25   1.429312 A    
C45   H13   1.110015 S    
O5    C3    1.291592 A    
C53   O19   1.221016 D    
C44   O14   1.221336 D    
O1    C1    1.275953 A    
C21   C47   1.487728 S    
C7    C9    1.413745 A    
C12   C14   1.414718 A    
C18   C44   1.488016 S    
C45   H15   1.110406 S    
Zn2   N4    2.001138 S    
C39   N4    1.365024 A    
C54   H30   1.081767 S    
O7    Zn1   2.004155 S    
C32   C35   1.406467 A    
C55   H31   1.084617 S    
C31   C53   1.493040 S    
C34   C36   1.407197 A    
C11   C12   1.405054 A    
C1    C36   1.412761 S    
C20   C30   1.409368 A    
C2    C35   1.413307 S    
O3    Zn1   1.989486 S    
C33   C55   1.493126 S    
C8    O12   1.348911 S    
C24   C26   1.425344 A    
C9    C15   1.427704 A    
C41   H7    1.110059 S    
C10   C16   1.422066 A    
C25   C27   1.405969 A    
O2    C2    1.274503 A    
C26   C28   1.404898 A    
C46   H17   1.107381 S    
C28   C30   1.405915 A    
C46   H16   1.109492 S    
C47   O15   1.220365 D    
C6    C14   1.409427 A    
C44   H12   1.084067 S    
C42   H8    1.108560 S    
C16   C42   1.521552 S    
N1    C30   1.429478 S    
C31   C33   1.396425 A    
C7    O11   1.347846 S    
C49   H21   1.106599 S    
C43   O13   1.220843 D    
C37   H1    1.081793 S    
C33   C35   1.407858 A    
C47   H19   1.084865 S    
C19   C45   1.517890 S    
C26   C50   1.519550 S    
C22   C48   1.488244 S    
C34   C56   1.496525 S    
C4    C24   1.483357 S    
C3    C23   1.482498 S    
C49   H22   1.110247 S    
C37   N4    1.365250 A    
C51   H27   1.084205 S    
C20   C46   1.518222 S    
O6    C4    1.295977 A    
C45   H14   1.107914 S    
C55   O21   1.221041 D    
C52   O18   1.221126 D    
C27   C29   1.403070 A    
C15   C41   1.522218 S    
C25   C49   1.521352 S    
C8    C10   1.407196 A    
C9    C11   1.422214 A    
O8    Zn2   2.004157 S    
C10   C12   1.419443 A    
O1    Zn1   1.989070 S    
C20   C22   1.410053 A    
C19   C29   1.406684 A    
N2    C29   1.428354 S    
C46   H18   1.110361 S    
C38   H2    1.080863 S    
C37   C40   1.413242 A    
C13   C18   1.419309 A    
C5    N1    1.358462 A    
C38   C39   1.413008 A    
O6    Zn2   2.005772 S    
C19   C21   1.407657 A    
C48   O16   1.220643 D    
O4    C1    1.272708 A    
C56   O22   1.221023 D    
C50   H25   1.107788 S    
C5    O9    1.349555 S    
C31   C36   1.407218 A    
C38   N3    1.365381 A    
C6    O10   1.349408 S    
C53   H29   1.084563 S    
C42   H10   1.110606 S    
C16   C18   1.411737 A    
C43   H11   1.084187 S    
C21   C23   1.425275 A    
C27   C51   1.492474 S    
C49   H23   1.109204 S    
C22   C24   1.424327 A    
C32   C54   1.493906 S    
C32   C34   1.393968 A    
N1    C7    1.361912 A    
C54   O20   1.221222 D    
N2    C8    1.359765 A    
C11   C13   1.416405 A    
O4    Zn2   1.989487 S    
C52   H28   1.082731 S    
O2    Zn2   1.989069 S    
O7    C4    1.292475 A    
C5    C13   1.401893 A    
O8    C3    1.296203 A    
C41   H5    1.110268 S    
C40   H4    1.081369 S    
O5    Zn1   2.005775 S    
Zn1   N3    2.001138 S    
C48   H20   1.084940 S    
C14   C17   1.418437 A    
C6    N2    1.359153 A    
C40   N3    1.365377 A    
C42   H9    1.107184 S    
C51   O17   1.221290 D    
C17   C43   1.484394 S    
C28   C52   1.494873 S    
