data_mof_unit_52451.cif
_audit_creation_date              2012-12-11T14:45:53-0500
_audit_creation_method            fapswitch 2.2
_symmetry_space_group_name_H-M    P1
_symmetry_Int_Tables_number       1
_space_group_crystal_system       triclinic
_cell_length_a                    10.863947
_cell_length_b                    10.952644
_cell_length_c                    18.865454
_cell_angle_alpha                 89.701465
_cell_angle_beta                  90.324252
_cell_angle_gamma                 119.578861
_cell_volume                      1952.19536663

loop_
_atom_site_label
_atom_site_type_symbol
_atom_type_description
_atom_site_fract_x
_atom_site_fract_y
_atom_site_fract_z
_atom_type_partial_charge
C1    C     C_R   0.862879 0.637562 0.602893 0.557853
C2    C     C_R   0.970815 0.188074 0.713543 0.013559
C3    C     C_R   0.964029 0.195076 0.788268 -0.005298
C4    C     C_R   0.267570 0.630485 0.604481 0.550107
C5    C     C_R   0.715418 0.100859 0.704856 0.018993
C6    C     C_R   0.714271 0.131136 0.776820 -0.037152
C7    C     C_R   0.586513 0.035101 0.665691 0.331104
C8    C     C_R   0.464343 0.031192 0.693666 0.250485
C9    C     C_R   0.470762 0.084874 0.761544 -0.154742
C10   C     C_R   0.593815 0.135774 0.801901 -0.122044
C11   C     C_R   0.847328 0.152699 0.671555 0.021266
C12   C     C_R   0.444615 0.661597 0.776935 -0.126724
C13   C     C_R   0.717140 0.538905 0.712087 0.179917
C14   C     C_R   0.713750 0.552442 0.785759 -0.207826
C15   C     C_R   0.805701 0.679738 0.818328 -0.008120
C16   C     C_R   0.862510 0.223085 0.602072 0.577200
C17   C     C_R   0.895906 0.798411 0.776422 0.299642
C18   C     C_R   0.886728 0.788912 0.702975 0.175868
C19   C     C_R   0.812303 0.656449 0.671403 0.014151
C20   C     C_R   0.412817 0.631159 0.296281 0.225812
C21   C     C_R   0.435684 0.642857 0.223559 -0.114042
C22   C     C_R   0.367842 0.695503 0.179479 0.043627
C23   C     C_R   0.418577 0.646278 0.705009 -0.141908
C24   C     C_R   0.281928 0.743562 0.208135 -0.133508
C25   C     C_R   0.260353 0.734498 0.280917 -0.190413
C26   C     C_R   0.322974 0.675295 0.324779 0.068333
C27   C     C_R   0.705545 0.093299 0.299512 -0.187499
C28   C     C_R   0.866435 0.637284 0.396906 0.551468
C29   C     C_R   0.684010 0.063034 0.227776 0.165193
C30   C     C_R   0.799412 0.087033 0.184907 0.061106
C31   C     C_R   0.937073 0.144375 0.213962 0.162650
C32   C     C_R   0.959177 0.185678 0.285531 0.200515
C33   C     C_R   0.841843 0.159613 0.327873 -0.002581
C34   C     C_R   0.309540 0.663632 0.677556 0.004137
C35   C     C_R   0.887846 0.782784 0.294698 -0.137762
C36   C     C_R   0.881369 0.794523 0.222520 -0.144621
C37   C     C_R   0.809520 0.674559 0.180003 0.025167
C38   C     C_R   0.740980 0.541289 0.210554 -0.158899
C39   C     C_R   0.751975 0.528734 0.283310 -0.146641
C40   C     C_R   0.270224 0.634143 0.396285 0.592108
C41   C     C_R   0.826745 0.650055 0.325335 0.044626
C42   C     C_R   0.805997 0.104242 0.894661 0.547447
C43   C     C_R   0.396191 0.701700 0.896452 0.524445
C44   C     C_R   0.794179 0.698586 0.894219 0.578634
C45   C     C_R   0.833537 0.157359 0.820503 -0.008613
C46   C     C_R   0.770890 0.047408 0.110366 0.614955
C47   C     C_R   0.399169 0.705653 0.104680 0.552309
C48   C     C_R   0.796940 0.697058 0.105557 0.532778
C49   C     C_R   0.862089 0.227487 0.396370 0.578472
C50   C     C_R   0.226512 0.696650 0.722109 -0.040858
C51   C     C_R   0.251399 0.711942 0.794704 0.205519
C52   C     C_R   0.360482 0.691294 0.822197 0.033285
C53   C     C_R   0.089264 0.245233 0.829101 -0.056438
C54   C     C_R   0.218826 0.279086 0.797241 0.239048
C55   C     C_R   0.222864 0.261603 0.724528 -0.077261
C56   C     C_R   0.101158 0.215302 0.683355 -0.080034
Cr1   Cr    Cr6+3 0.791660 0.390250 0.499930 1.091202
Cr2   Cr    Cr6+3 0.098520 0.708290 0.500540 1.057039
Cr3   Cr    Cr6+3 0.109770 0.401430 0.499480 1.078032
Cr4   Cr    Cr6+3 0.874790 0.925890 0.000070 1.080617
Cr5   Cr    Cr6+3 0.574120 0.948670 0.999300 1.051673
Cr6   Cr    Cr6+3 0.551420 0.625320 0.000920 1.022577
H1    H     H_    0.380903 0.089501 0.783021 0.150808
H2    H     H_    0.565673 0.345271 0.714916 0.329424
H3    H     H_    0.641339 0.463484 0.817717 0.163565
H4    H     H_    0.068228 0.980045 0.775055 0.357554
H5    H     H_    0.904490 0.895751 0.617802 0.338976
H6    H     H_    0.515313 0.529737 0.310288 0.324462
H7    H     H_    0.506596 0.610359 0.201229 0.128278
H8    H     H_    0.231222 0.786329 0.174478 0.140891
H9    H     H_    0.189668 0.743560 0.886445 0.334808
H10   H     H_    0.616065 0.074106 0.332300 0.143009
H11   H     H_    0.487029 0.018317 0.233636 0.322645
H12   H     H_    0.188241 0.766391 0.302311 0.149501
H13   H     H_    0.120207 0.156164 0.200870 0.326964
H14   H     H_    0.160229 0.318671 0.276074 0.339240
H15   H     H_    0.946656 0.877112 0.326020 0.148716
H16   H     H_    0.932708 0.898392 0.199806 0.164104
H17   H     H_    0.682798 0.448298 0.178315 0.140204
H18   H     H_    0.705958 0.424512 0.306210 0.148971
H19   H     H_    0.320767 0.327936 0.886763 0.337813
H20   H     H_    0.109962 0.193927 0.628391 0.174161
H21   H     H_    0.594881 0.185815 0.851272 0.168508
H22   H     H_    0.530351 0.648972 0.797860 0.154609
H23   H     H_    0.481744 0.619264 0.671131 0.153853
H24   H     H_    0.320692 0.282127 0.699607 0.148531
H25   H     H_    0.087705 0.261227 0.885570 0.117322
H26   H     H_    0.138925 0.706370 0.700715 0.168540
H27   H     H_    0.269505 0.989340 0.679829 0.339456
H28   H     H_    0.489478 0.935962 0.579022 0.371660
O1    O     O_R   0.766500 0.250040 0.579790 -0.443796
O2    O     O_R   0.413330 0.603360 0.920440 -0.510574
O3    O     O_R   0.676110 0.626250 0.926750 -0.513696
O4    O     O_R   0.798570 0.516780 0.574780 -0.436974
O5    O     O_R   0.895350 0.809870 0.080950 -0.521916
O6    O     O_R   0.872490 0.049760 0.073800 -0.455669
O7    O     O_R   0.691680 0.088070 0.079070 -0.464955
O8    O     O_R   0.451720 0.825250 0.074050 -0.477575
O9    O     O_R   0.413580 0.606370 0.080960 -0.519911
O10   O     O_R   0.676340 0.629040 0.075550 -0.508266
O11   O     O_3   0.666780 0.833290 0.000090 -0.296991
O12   O     O_R   0.218690 0.701900 0.425960 -0.527726
O13   O     O_R   0.984000 0.732950 0.581090 -0.496390
O14   O     O_R   0.218600 0.700890 0.574760 -0.480819
O15   O     O_R   0.249390 0.515350 0.579940 -0.519250
O16   O     O_R   0.982790 0.280900 0.573700 -0.539713
O17   O     O_R   0.766600 0.251130 0.419260 -0.535411
O18   O     O_R   0.798660 0.517790 0.425980 -0.504655
O19   O     O_R   0.984100 0.734040 0.420570 -0.524886
O20   O     O_3   0.343727 0.982730 0.652475 -0.700411
O21   O     O_3   0.585072 0.977435 0.600327 -0.699137
O22   O     O_3   0.630726 0.412258 0.679307 -0.663588
O23   O     O_R   0.249490 0.516440 0.419420 -0.427500
O24   O     O_3   0.988952 0.924689 0.807890 -0.635549
O25   O     O_3   0.956132 0.910301 0.663288 -0.719709
O26   O     O_3   0.473433 0.573827 0.340035 -0.674438
O27   O     O_3   0.164919 0.741993 0.835811 -0.698982
O28   O     O_3   0.551528 0.013986 0.198008 -0.679323
O29   O     O_3   0.048580 0.163927 0.171377 -0.689217
O30   O     O_3   0.094247 0.258699 0.313621 -0.667803
O31   O     O_3   0.341999 0.325698 0.835902 -0.726173
O32   O     O_R   0.982880 0.281910 0.424890 -0.437928
O33   O     O_3   0.999980 0.499990 0.499980 -0.288185
O34   O     O_R   0.895110 0.806860 0.920430 -0.432781
O35   O     O_R   0.872260 0.046970 0.925000 -0.472989
O36   O     O_R   0.691430 0.085060 0.918550 -0.531113
O37   O     O_R   0.451490 0.822460 0.925250 -0.502511

loop_
_geom_bond_atom_site_label_1
_geom_bond_atom_site_label_2
_ccdc_geom_bond_type
C55   C56   A    
C6    C45   A    
C27   C29   A    
Cr2   O19   S    
C10   H21   S    
Cr5   O8    S    
C24   H8    S    
C7    C8    A    
C39   C41   A    
C53   C54   A    
C27   C33   A    
C12   C23   A    
Cr2   O33   S    
Cr3   O15   S    
C47   O8    A    
C36   C37   A    
C48   O5    A    
C15   C44   S    
C5    C11   A    
C13   O22   S    
C5    C6    A    
C43   C52   S    
H2    O22   S    
C38   H17   S    
C33   C49   S    
C28   C41   S    
C47   O9    A    
C12   H22   S    
C25   H12   S    
C35   H15   S    
Cr4   O34   S    
H5    O25   S    
C44   O3    A    
C42   O35   A    
C40   O23   A    
C7    O21   S    
C1    O4    A    
Cr6   O2    S    
Cr5   O36   S    
Cr2   O12   S    
C29   C30   A    
Cr1   O1    S    
C9    C10   A    
C1    O13   A    
C50   H26   S    
Cr6   O11   S    
Cr3   O32   S    
C22   C47   S    
C13   C14   A    
C46   O7    A    
H28   O21   S    
C32   O30   S    
C2    C11   A    
C12   C52   A    
C17   O24   S    
C50   C51   A    
Cr3   O33   S    
C38   C39   A    
C48   O10   A    
C4    C34   S    
C34   C50   A    
Cr3   O16   S    
C1    C19   S    
H9    O27   S    
C51   C52   A    
H13   O29   S    
C24   C25   A    
C49   O17   A    
C43   O37   A    
C5    C7    A    
C13   C19   A    
C8    C9    A    
C25   C26   A    
H27   O20   S    
C44   O34   A    
H19   O31   S    
C35   C36   A    
Cr5   O11   S    
C37   C38   A    
C8    O20   S    
Cr1   O33   S    
C11   C16   S    
C31   C32   A    
Cr3   O23   S    
C23   C34   A    
C17   C18   A    
C53   H25   S    
H14   O30   S    
C37   C48   S    
C31   O29   S    
H6    O26   S    
Cr6   O10   S    
Cr4   O6    S    
Cr1   O17   S    
C54   O31   S    
Cr1   O4    S    
C22   C24   A    
Cr2   O14   S    
Cr4   O11   S    
C20   O26   S    
C29   O28   S    
C15   C17   A    
C54   C55   A    
Cr4   O35   S    
H11   O28   S    
H4    O24   S    
C9    H1    S    
C30   C46   S    
Cr5   O7    S    
C18   O25   S    
C6    C10   A    
C56   H20   S    
Cr5   O37   S    
C16   O16   A    
C28   O19   A    
C4    O15   A    
C43   O2    A    
C32   C33   A    
C55   H24   S    
C2    C3    A    
C36   H16   S    
C39   H18   S    
C3    C53   A    
C26   C40   S    
C30   C31   A    
C20   C26   A    
C28   O18   A    
C49   O32   A    
C4    O14   A    
C51   O27   S    
C14   H3    S    
C3    C45   A    
C35   C41   A    
C42   O36   A    
C40   O12   A    
Cr6   O9    S    
Cr4   O5    S    
Cr1   O18   S    
C46   O6    A    
C20   C21   A    
C16   O1    A    
C23   H23   S    
Cr6   O3    S    
C21   H7    S    
C18   C19   A    
C14   C15   A    
C2    C56   A    
Cr2   O13   S    
C21   C22   A    
C42   C45   S    
C27   H10   S    
