data_mof_unit_12936.cif
_audit_creation_date              2013-03-05T15:52:43-0500
_audit_creation_method            fapswitch 2.2
_symmetry_space_group_name_H-M    P1
_symmetry_Int_Tables_number       1
_space_group_crystal_system       triclinic
_cell_length_a                    10.766315
_cell_length_b                    10.734328
_cell_length_c                    17.050567
_cell_angle_alpha                 99.438411
_cell_angle_beta                  99.831832
_cell_angle_gamma                 61.516932
_cell_volume                      1698.79568137

loop_
_atom_site_label
_atom_site_type_symbol
_atom_site_description
_atom_site_fract_x
_atom_site_fract_y
_atom_site_fract_z
_atom_type_partial_charge
O1    O     O_R   0.749250 0.499990 0.439200 -0.506654
O2    O     O_R   0.477870 0.725740 0.440280 -0.498273
C1    C     C_R   0.355335 0.773989 0.400934 0.561312
O3    O     O_R   0.260770 0.742210 0.412610 -0.472245
O4    O     O_R   0.297990 0.466320 0.394220 -0.497260
C2    C     C_R   0.369840 0.346727 0.357123 0.546984
O5    O     O_R   0.487720 0.253870 0.385870 -0.467270
O6    O     O_R   0.721940 0.304340 0.422320 -0.444120
C3    C     C_R   0.777066 0.375798 0.404979 0.559662
O7    O     O_R   0.750770 0.502570 0.614050 -0.500246
O8    O     O_R   0.479280 0.728140 0.602370 -0.490933
C4    C     C_R   0.358702 0.769240 0.627256 0.549251
O9    O     O_R   0.262290 0.744790 0.587460 -0.503178
O10   O     O_R   0.299400 0.468710 0.556310 -0.494488
C5    C     C_R   0.371542 0.348163 0.583913 0.542433
O11   O     O_R   0.489240 0.256450 0.560730 -0.506165
O12   O     O_R   0.723350 0.306730 0.584410 -0.501944
C6    C     C_R   0.773135 0.380898 0.629725 0.539376
Cr1   Cr    Cr6+3 0.608020 0.610770 0.522990 1.059409
Cr2   Cr    Cr6+3 0.289390 0.599570 0.488050 1.077187
Cr3   Cr    Cr6+3 0.602610 0.289690 0.489020 1.106002
O13   O     O_3   0.500010 0.500010 0.500020 -0.283353
C7    C     C_1   0.343114 0.336606 0.273793 0.002768
C8    C     C_1   0.331869 0.326215 0.202982 0.008422
C9    C     C_2   0.849226 0.324461 0.332586 -0.108911
C10   C     C_2   0.825989 0.327307 0.158128 0.311132
C11   C     C_2   0.849922 0.212615 0.194382 0.165420
C12   C     C_2   0.831334 0.224303 0.279081 0.185784
H1    H     H_    0.893600 0.387501 0.316357 0.143021
C13   C     C_2   0.332346 0.845303 0.330526 -0.119251
C14   C     C_2   0.343075 0.826119 0.158711 -0.072343
C15   C     C_2   0.427519 0.861330 0.215000 -0.120764
C16   C     C_2   0.443619 0.831241 0.297587 -0.136825
H2    H     H_    0.481584 0.917481 0.201537 0.192344
H3    H     H_    0.549451 0.790804 0.329720 0.196235
H4    H     H_    0.292170 0.767169 0.172650 0.149126
H5    H     H_    0.226289 0.890322 0.298613 0.163715
C17   C     C_2   0.349249 0.335563 0.662443 -0.136946
C18   C     C_2   0.332043 0.353424 0.832447 -0.070035
C19   C     C_2   0.454752 0.286479 0.800265 0.346394
C20   C     C_2   0.460294 0.306847 0.719307 -0.113742
H6    H     H_    0.563240 0.286078 0.704582 0.167933
H7    H     H_    0.240867 0.441471 0.804827 0.055259
H8    H     H_    0.244741 0.356836 0.674400 0.087347
C21   C     C_1   0.817027 0.341996 0.708785 -0.038441
C22   C     C_1   0.843790 0.313843 0.776477 -0.015893
C23   C     C_1   0.339359 0.810599 0.709143 -0.021700
C24   C     C_1   0.312588 0.838724 0.776976 -0.022440
O14   O     O_R   0.170650 0.915100 0.051290 -0.462249
O15   O     O_R   0.941960 0.184500 0.049060 -0.481203
C25   C     C_R   0.893377 0.307256 0.086507 0.586067
O16   O     O_R   0.922640 0.402670 0.071640 -0.462180
O17   O     O_R   0.196880 0.368740 0.083740 -0.500826
C26   C     C_R   0.318883 0.299291 0.119781 0.553897
O18   O     O_R   0.411120 0.181190 0.091480 -0.469849
O19   O     O_R   0.364220 0.944920 0.062310 -0.501032
C27   C     C_R   0.293701 0.891992 0.084180 0.546862
O20   O     O_R   0.158740 0.906940 0.874970 -0.500350
O21   O     O_R   0.930920 0.176940 0.885610 -0.462626
C28   C     C_R   0.885319 0.297204 0.858639 0.572262
O22   O     O_R   0.910730 0.394510 0.895320 -0.510249
O23   O     O_R   0.185840 0.361180 0.920280 -0.519094
C29   C     C_R   0.307752 0.295567 0.895541 0.571763
O24   O     O_R   0.399210 0.173040 0.915160 -0.419344
O25   O     O_R   0.353170 0.937370 0.898860 -0.491810
C30   C     C_R   0.277942 0.885414 0.856502 0.539366
Cr4   Cr    Cr6+3 0.053780 0.052210 0.965970 1.137903
Cr5   Cr    Cr6+3 0.060060 0.372530 0.992430 1.082223
Cr6   Cr    Cr6+3 0.372600 0.061970 0.991430 1.122272
O26   O     O_3   0.162150 0.162240 0.983280 -0.307172
N1    N     N_R   0.889126 0.074436 0.150860 0.097532
O27   O     O_R   0.991899 0.961605 0.181313 -0.321500
O28   O     O_R   0.803910 0.058994 0.090502 -0.269485
N2    N     N_R   0.799771 0.120657 0.303135 0.129448
O29   O     O_R   0.884107 0.039131 0.358289 -0.309313
O30   O     O_R   0.702409 0.091490 0.261076 -0.280088
F1    F     F_    0.759722 0.462255 0.193992 -0.655822
F2    F     F_    0.575104 0.188658 0.838951 -0.588493

loop_
_geom_bond_atom_site_label_1
_geom_bond_atom_site_label_2
_geom_bond_distance
_ccdc_geom_bond_type
O11   Cr3   2.044567 S    
C20   H6    1.087280 S    
C12   N2    1.441994 S    
C3    C9    1.458384 S    
O4    Cr2   1.946216 S    
C21   C22   1.193436 T    
C9    C12   1.356878 D    
O8    Cr1   1.938083 S    
C10   C11   1.362666 D    
N2    O30   1.301435 A    
O4    C2    1.264953 A    
C8    C26   1.397109 S    
C5    O11   1.258860 A    
O14   C27   1.268694 A    
O19   C27   1.271174 A    
O17   Cr5   1.943148 S    
O21   Cr4   1.926972 S    
O20   C30   1.277059 A    
C23   C24   1.195090 T    
O6    C3    1.263557 A    
C7    C8    1.184754 T    
O15   Cr4   1.940380 S    
C13   C16   1.342722 D    
O21   C28   1.277563 A    
Cr3   O13   1.976253 S    
C4    C23   1.413417 S    
O12   C6    1.257759 A    
C9    H1    1.085185 S    
O1    Cr1   2.056031 S    
C10   F1    1.361640 S    
N2    O29   1.301960 A    
C25   O16   1.277774 A    
O10   Cr2   1.920507 S    
Cr1   O13   1.982337 S    
O1    C3    1.277152 A    
C17   C20   1.347241 D    
C18   C19   1.332525 D    
N1    O28   1.301919 A    
C18   H7    1.087135 S    
O15   C25   1.264247 A    
O17   C26   1.264648 A    
O12   Cr3   1.943134 S    
C13   H5    1.086823 S    
C28   O22   1.247753 A    
C15   H2    1.086492 S    
C1    C13   1.451776 S    
C5    C17   1.438355 S    
C17   H8    1.085235 S    
O23   C29   1.267540 A    
C14   C15   1.342132 D    
O7    Cr1   2.048317 S    
O6    Cr3   1.928479 S    
O24   Cr6   2.038694 S    
O18   Cr6   2.066027 S    
C19   C20   1.447876 S    
Cr2   O13   1.981881 S    
O25   C30   1.259996 A    
C19   F2    1.361688 S    
C1    O3    1.270956 A    
C6    C21   1.411977 S    
C11   N1    1.441426 S    
C26   O18   1.260323 A    
O14   Cr4   2.043635 S    
O9    Cr2   2.063160 S    
C22   C28   1.409374 S    
O2    Cr1   1.929220 S    
O10   C5    1.271015 A    
O16   Cr5   2.049442 S    
O8    C4    1.280781 A    
C2    O5    1.259249 A    
C18   C29   1.442755 S    
O23   Cr5   1.929888 S    
Cr4   O26   1.981373 S    
C15   C16   1.459340 S    
C14   C27   1.450164 S    
O2    C1    1.272295 A    
N1    O27   1.301023 A    
O5    Cr3   2.063980 S    
C10   C25   1.459932 S    
O22   Cr5   2.058950 S    
O7    C6    1.275843 A    
O25   Cr6   1.945672 S    
C2    C7    1.397449 S    
C16   H3    1.086253 S    
Cr6   O26   1.981666 S    
C29   O24   1.268031 A    
O3    Cr2   2.038259 S    
O20   Cr4   2.059274 S    
C4    O9    1.252058 A    
Cr5   O26   1.975988 S    
O19   Cr6   1.921139 S    
C11   C12   1.468597 S    
C14   H4    1.087139 S    
C24   C30   1.414394 S    
