data_mof_unit_51602.cif
_audit_creation_date              2012-12-11T15:46:41-0500
_audit_creation_method            fapswitch 2.2
_symmetry_space_group_name_H-M    P1
_symmetry_Int_Tables_number       1
_space_group_crystal_system       triclinic
_cell_length_a                    11.554708
_cell_length_b                    11.507744
_cell_length_c                    19.560132
_cell_angle_alpha                 90.657579
_cell_angle_beta                  90.068574
_cell_angle_gamma                 59.786491
_cell_volume                      2247.39022459

loop_
_atom_site_label
_atom_site_type_symbol
_atom_type_description
_atom_site_fract_x
_atom_site_fract_y
_atom_site_fract_z
_atom_type_partial_charge
C1    C     C_R   0.641530 0.118934 0.598593 0.544192
C2    C     C_1   0.662283 0.160008 0.664867 0.005455
C3    C     C_R   0.678368 0.633599 0.199674 -0.043347
C4    C     C_R   0.612451 0.746077 0.598660 0.546314
C5    C     C_R   0.570292 0.640437 0.234032 -0.029880
C6    C     C_R   0.560830 0.650619 0.303166 0.030889
C7    C     C_R   0.783931 0.618790 0.309451 0.181673
C8    C     C_R   0.792079 0.608839 0.237906 -0.134976
C9    C     C_3   0.424219 0.727495 0.221867 -0.221657
C10   C     C_3   0.411181 0.742244 0.298743 0.117737
C11   C     C_R   0.660007 0.657857 0.341210 0.013480
C12   C     C_1   0.641345 0.703783 0.667977 0.009203
C13   C     C_R   0.129711 0.202990 0.194741 -0.024790
C14   C     C_R   0.147652 0.296477 0.231324 0.073271
C15   C     C_R   0.173843 0.280300 0.299832 0.062702
C16   C     C_R   0.240711 0.145647 0.598173 0.549451
C17   C     C_R   0.144650 0.086972 0.301013 -0.180063
C18   C     C_R   0.120788 0.101639 0.230589 -0.168315
C19   C     C_3   0.246816 0.340914 0.218605 0.103562
C20   C     C_3   0.276755 0.322486 0.294190 -0.182127
C21   C     C_R   0.179815 0.172102 0.335261 0.009132
C22   C     C_R   0.665999 0.188181 0.192505 0.009144
C23   C     C_1   0.126618 0.198190 0.859218 0.004524
C24   C     C_R   0.723271 0.057825 0.217759 -0.010898
C25   C     C_R   0.719854 0.036837 0.286395 -0.006710
C26   C     C_R   0.587687 0.275070 0.307669 -0.156087
C27   C     C_R   0.589460 0.297293 0.237452 -0.138446
C28   C     C_R   0.645293 0.112803 0.402654 0.537466
C29   C     C_3   0.860227 0.936727 0.209749 -0.236823
C30   C     C_3   0.856102 0.915210 0.285681 -0.213899
C31   C     C_R   0.661117 0.143715 0.333024 0.007299
C32   C     C_R   0.082046 0.230731 0.928584 0.538434
C33   C     C_R   0.684012 0.604118 0.929423 0.536255
C34   C     C_1   0.171009 0.170674 0.727625 -0.027767
C35   C     C_R   0.740745 0.231298 0.922967 0.553269
C36   C     C_R   0.081903 0.236114 0.125549 0.548570
C37   C     C_R   0.686023 0.605547 0.127593 0.550137
C38   C     C_R   0.707699 0.211655 0.126846 0.559349
C39   C     C_R   0.619188 0.733416 0.404526 0.560574
C40   C     C_R   0.243532 0.141308 0.401590 0.545692
C41   C     C_1   0.670528 0.645913 0.860028 0.005700
C42   C     C_1   0.654914 0.683320 0.728371 -0.027860
C43   C     C_1   0.663601 0.666096 0.799610 -0.028783
C44   C     C_1   0.149812 0.182044 0.798838 -0.029055
C45   C     C_1   0.194827 0.161603 0.667325 0.007948
C46   C     C_1   0.714490 0.218320 0.852341 0.002657
C47   C     C_1   0.678053 0.184826 0.723060 -0.025566
C48   C     C_1   0.696569 0.205343 0.792641 -0.027954
Cl1   Cl    Cl    0.927176 0.584544 0.356885 -0.579119
Cl2   Cl    Cl    0.321894 0.667813 0.334410 -0.588337
Cl3   Cl    Cl    0.168426 0.512879 0.193818 -0.576921
Cr1   Cr    Cr6+3 0.404720 0.198220 0.499960 1.067249
Cr2   Cr    Cr6+3 0.698290 0.897110 0.500380 1.092901
Cr3   Cr    Cr6+3 0.396970 0.904720 0.499610 1.072310
Cr4   Cr    Cr6+3 0.926290 0.152010 0.028150 1.030237
Cr5   Cr    Cr6+3 0.921440 0.451830 0.027490 1.068822
Cr6   Cr    Cr6+3 0.626370 0.446880 0.028730 1.050807
H1    H     H_    0.332121 0.270275 0.185390 0.118333
H2    H     H_    0.885486 0.583054 0.212761 0.212144
H3    H     H_    0.379396 0.670488 0.198828 0.211330
H4    H     H_    0.399279 0.822586 0.195715 0.102426
H5    H     H_    0.376843 0.846463 0.316539 0.140626
H6    H     H_    0.143306 0.005420 0.327352 0.162882
H7    H     H_    0.097304 0.033002 0.204251 0.148196
H8    H     H_    0.378639 0.237709 0.304935 0.104633
H9    H     H_    0.247743 0.417069 0.323115 0.247286
H10   H     H_    0.531301 0.359778 0.342009 0.183844
H11   H     H_    0.540365 0.399809 0.219523 0.178211
H12   H     H_    0.939180 0.960468 0.196233 0.168389
H13   H     H_    0.859354 0.856498 0.177909 0.166291
H14   H     H_    0.852589 0.823333 0.297164 0.212907
H15   H     H_    0.930170 0.929410 0.315544 0.176824
O1    O     O_R   0.267750 0.231960 0.575440 -0.493537
O2    O     O_R   0.596230 0.579400 0.952760 -0.509326
O3    O     O_R   0.639160 0.321170 0.958690 -0.484119
O4    O     O_R   0.527290 0.186640 0.570530 -0.492383
O5    O     O_R   0.821370 0.124220 0.104400 -0.517616
O6    O     O_R   0.037020 0.167050 0.097880 -0.511751
O7    O     O_R   0.056310 0.349620 0.102920 -0.467035
O8    O     O_R   0.797790 0.564880 0.097980 -0.495907
O9    O     O_R   0.596000 0.584270 0.104310 -0.510429
O10   O     O_R   0.638950 0.325690 0.099180 -0.493051
O11   O     O_3   0.824700 0.350240 0.028120 -0.285251
O12   O     O_R   0.685950 0.784660 0.430010 -0.453716
O13   O     O_R   0.728110 0.003450 0.576380 -0.499608
O14   O     O_R   0.682980 0.789190 0.570500 -0.488067
O15   O     O_R   0.499300 0.771880 0.575540 -0.498092
O16   O     O_R   0.285350 0.030870 0.569740 -0.492167
O17   O     O_R   0.270960 0.227070 0.423890 -0.495928
O18   O     O_R   0.530270 0.182120 0.430040 -0.508791
O19   O     O_R   0.731320 0.998570 0.424830 -0.494477
O20   O     O_R   0.502510 0.767000 0.423980 -0.498964
O21   O     O_R   0.288320 0.026340 0.429250 -0.504521
O22   O     O_3   0.499990 0.000020 0.499980 -0.279303
O23   O     O_R   0.821590 0.119350 0.952850 -0.495668
O24   O     O_R   0.037230 0.162540 0.957390 -0.511428
O25   O     O_R   0.056530 0.344750 0.951370 -0.496262
O26   O     O_R   0.798000 0.560370 0.957490 -0.493953

loop_
_geom_bond_atom_site_label_1
_geom_bond_atom_site_label_2
_ccdc_geom_bond_type
C25   C31   A    
Cr1   O18   S    
C19   C20   S    
Cr5   O26   S    
C40   O21   A    
C30   H14   S    
C7    C8    A    
C4    O15   A    
C7    C11   A    
C35   O3    A    
C26   C27   A    
Cr5   O7    S    
C13   C18   A    
Cr2   O12   S    
C9    H4    S    
C26   H10   S    
C20   H9    S    
C39   O12   A    
C33   O26   A    
C8    H2    S    
C5    C6    A    
Cr4   O5    S    
C4    O14   A    
C22   C38   S    
C32   O25   A    
C1    C2    S    
C24   C29   S    
Cr3   O21   S    
C12   C42   T    
C27   H11   S    
Cr2   O19   S    
Cr6   O11   S    
Cr1   O22   S    
Cr2   O14   S    
C40   O17   A    
C4    C12   S    
C9    C10   S    
C26   C31   A    
C13   C14   A    
C38   O10   A    
C41   C43   T    
C37   O9    A    
Cr1   O17   S    
C10   H5    S    
Cr5   O25   S    
C28   O18   A    
C29   H12   S    
C19   H1    S    
C1    O13   A    
C15   C20   S    
C37   O8    A    
C46   C48   T    
C16   O1    A    
C20   H8    S    
C34   C44   S    
C24   C25   A    
C7    Cl1   S    
C13   C36   S    
Cr4   O23   S    
Cr1   O1    S    
C6    C11   A    
Cr4   O6    S    
C3    C5    A    
C17   C21   A    
C23   C44   T    
Cr6   O2    S    
Cr3   O20   S    
C29   C30   S    
C47   C48   S    
C17   C18   A    
C34   C45   T    
C11   C39   S    
C32   O24   A    
C3    C8    A    
C22   C27   A    
Cr6   O9    S    
C42   C43   S    
Cr4   O11   S    
C10   Cl2   S    
C39   O20   A    
Cr5   O11   S    
C29   H13   S    
C25   C30   S    
Cr2   O22   S    
C14   C15   A    
C1    O4    A    
C14   C19   S    
C28   C31   S    
C5    C9    S    
Cr4   O24   S    
Cr1   O4    S    
C36   O7    A    
C16   C45   S    
C6    C10   S    
C30   H15   S    
C38   O5    A    
C35   O23   A    
C2    C47   T    
Cr5   O8    S    
C9    H3    S    
C33   C41   S    
C23   C32   S    
Cr6   O3    S    
C36   O6    A    
C17   H6    S    
Cr3   O16   S    
C18   H7    S    
Cr3   O15   S    
C21   C40   S    
C28   O19   A    
C22   C24   A    
Cr3   O22   S    
C19   Cl3   S    
C33   O2    A    
C15   C21   A    
C3    C37   S    
C16   O16   A    
Cr6   O10   S    
Cr2   O13   S    
C35   C46   S    
