data_mof_unit_50461.cif
_audit_creation_date              2012-12-10T17:49:37-0500
_audit_creation_method            fapswitch 2.2
_symmetry_space_group_name_H-M    P1
_symmetry_Int_Tables_number       1
_space_group_crystal_system       triclinic
_cell_length_a                    14.69202
_cell_length_b                    14.739057
_cell_length_c                    15.880505
_cell_angle_alpha                 76.561765
_cell_angle_beta                  102.780646
_cell_angle_gamma                 114.877374
_cell_volume                      3004.51355108

loop_
_atom_site_label
_atom_site_type_symbol
_atom_type_description
_atom_site_fract_x
_atom_site_fract_y
_atom_site_fract_z
_atom_type_partial_charge
C1    C     C_R   0.880250 0.312249 0.514959 0.787152
C2    C     C_3   0.072627 0.445946 0.073899 0.027631
C3    C     C_3   0.004379 0.500302 0.083666 0.285385
C4    C     C_3   0.040046 0.609921 0.033229 -0.353099
C5    C     C_3   0.043255 0.609821 0.936355 -0.374670
C6    C     C_1   0.002282 0.500312 0.175506 -0.111474
C7    C     C_1   0.999941 0.500103 0.824883 -0.097292
C8    C     C_1   0.999374 0.500133 0.749221 -0.164132
C9    C     C_R   0.812308 0.204661 0.522475 -0.049742
C10   C     C_R   0.187322 0.795301 0.481415 -0.091854
C11   C     C_R   0.782489 0.026733 0.545717 -0.174856
C12   C     C_R   0.999716 0.499943 0.659686 0.832435
C13   C     C_R   0.849603 0.127900 0.541028 -0.192786
C14   C     C_R   0.707743 0.179216 0.508953 -0.247146
C15   C     C_R   0.638704 0.078487 0.509068 0.090193
C16   C     C_R   0.677468 0.001416 0.530130 0.160355
C17   C     C_R   0.532374 0.052446 0.489111 0.068124
C18   C     C_R   0.465938 0.948836 0.502268 0.075131
C19   C     C_R   0.507029 0.874366 0.519181 -0.148894
C20   C     C_R   0.611050 0.900203 0.533553 -0.185445
C21   C     C_R   0.490438 0.125862 0.451613 -0.211463
C22   C     C_R   0.386733 0.097914 0.427860 -0.205102
C23   C     C_R   0.119696 0.687598 0.488779 0.846538
C24   C     C_R   0.321039 0.997127 0.445479 0.138951
C25   C     C_R   0.359650 0.922550 0.489367 0.053464
C26   C     C_R   0.216865 0.970037 0.419504 -0.193834
C27   C     C_R   0.151072 0.869160 0.434086 -0.197584
C28   C     C_R   0.289975 0.824667 0.518241 0.064405
C29   C     C_R   0.695557 0.644059 0.342914 0.042591
C30   C     C_R   0.786008 0.628056 0.369509 0.335239
C31   C     C_R   0.717903 0.512202 0.492793 -0.053843
C32   C     C_R   0.635677 0.543575 0.480333 -0.072657
C33   C     C_R   0.629920 0.616822 0.405376 0.045342
C34   C     C_R   0.000216 0.499938 0.340332 0.852813
C35   C     C_R   0.555598 0.501441 0.534710 0.038918
C36   C     C_R   0.468953 0.528424 0.505497 0.010414
C37   C     C_R   0.477665 0.614105 0.441519 -0.240641
C38   C     C_R   0.558845 0.660748 0.394968 0.129285
C39   C     C_R   0.556543 0.435625 0.616815 0.138728
C40   C     C_R   0.466152 0.381100 0.653427 -0.211279
C41   C     C_R   0.377798 0.397804 0.617633 0.118024
C42   C     C_R   0.378642 0.474093 0.545123 -0.009469
C43   C     C_R   0.289898 0.342872 0.657393 -0.300001
C44   C     C_R   0.204056 0.365096 0.625906 0.091945
C45   C     C_3   0.070521 0.446495 0.975019 -0.356959
C46   C     C_R   0.287835 0.491913 0.514876 0.043620
C47   C     C_3   0.893263 0.442622 0.942557 -0.393478
C48   C     C_3   0.894885 0.441983 0.040577 -0.425664
C49   C     C_1   0.001058 0.500158 0.250824 -0.157871
C50   C     C_3   0.001609 0.499763 0.917442 0.280857
Cu1   Cu    Cu3+1 0.081750 0.475690 0.522550 0.959306
Cu2   Cu    Cu3+1 0.918250 0.524310 0.477450 0.963076
H1    H     H_    0.033730 0.365068 0.102524 0.111051
H2    H     H_    0.146903 0.484239 0.954568 0.186460
H3    H     H_    0.986427 0.644378 0.035745 0.173321
H4    H     H_    0.639544 0.840630 0.546602 0.160911
H5    H     H_    0.071657 0.849435 0.409236 0.194469
H6    H     H_    0.357772 0.155733 0.395561 0.142158
H7    H     H_    0.812647 0.968270 0.560743 0.139861
H8    H     H_    0.930340 0.145943 0.551981 0.154332
H9    H     H_    0.681600 0.239363 0.500219 0.146252
H10   H     H_    0.041142 0.367033 0.962690 0.136888
H11   H     H_    0.459068 0.795529 0.517098 0.176442
H12   H     H_    0.535987 0.205034 0.434161 0.143326
H13   H     H_    0.186729 0.026296 0.384908 0.144841
H14   H     H_    0.281199 0.546940 0.458491 0.124382
H15   H     H_    0.137239 0.324481 0.658166 0.122560
H16   H     H_    0.466405 0.329061 0.714222 0.150580
H17   H     H_    0.722005 0.449304 0.540699 0.173511
H18   H     H_    0.842418 0.479694 0.901900 0.175270
H19   H     H_    0.424529 0.650046 0.429476 0.156836
H20   H     H_    0.288234 0.284561 0.713738 0.138080
H21   H     H_    0.861700 0.363337 0.929384 0.169387
H22   H     H_    0.864900 0.362348 0.074604 0.168787
H23   H     H_    0.843359 0.477193 0.046839 0.183623
H24   H     H_    0.122462 0.651266 0.921677 0.174180
H25   H     H_    0.997359 0.650961 0.893143 0.168348
H26   H     H_    0.114727 0.658576 0.064593 0.175051
N1    N     N_R   0.795410 0.560790 0.443550 -0.205616
N2    N     N_R   0.204590 0.439170 0.556520 -0.177668
O1    O     O_R   0.977910 0.338120 0.529720 -0.595324
O2    O     O_R   0.839850 0.379180 0.491640 -0.591843
O3    O     O_R   0.069060 0.479460 0.639610 -0.566947
O4    O     O_R   0.931000 0.520530 0.601530 -0.583132
O5    O     O_R   0.160150 0.620820 0.508360 -0.561405
O6    O     O_R   0.022090 0.661880 0.470280 -0.563488
O7    O     O_R   0.069000 0.479470 0.398470 -0.590547
O8    O     O_R   0.930940 0.520540 0.360390 -0.546751
C51   C     C_3   0.180843 0.478674 0.128370 -0.393157
C52   C     C_3   0.267004 0.567890 0.085731 -0.796623
H27   H     H_    0.295613 0.542425 0.040257 0.238091
H28   H     H_    0.244061 0.630302 0.049928 0.251431
H29   H     H_    0.331356 0.598148 0.137215 0.246738
H30   H     H_    0.178669 0.495599 0.192237 0.211521
H31   H     H_    0.203199 0.412612 0.144579 0.194526
I1    I     I_    0.327413 0.739205 0.640894 -0.395905
I2    I     I_    0.578660 0.809206 0.325481 -0.456781
C53   C     C_3   0.661275 0.670485 0.245721 -0.362129
C54   C     C_3   0.647512 0.588267 0.194654 -0.827843
H32   H     H_    0.719722 0.580059 0.197345 0.272107
H33   H     H_    0.591337 0.514338 0.221627 0.249491
H34   H     H_    0.619003 0.608246 0.124989 0.245962
H35   H     H_    0.585842 0.674294 0.233914 0.234388
H36   H     H_    0.715311 0.745178 0.217841 0.242180
I3    I     I_    0.905703 0.716265 0.292025 -0.413182
C55   C     C_3   0.652116 0.435605 0.677863 -0.416283
C56   C     C_3   0.662691 0.333848 0.692052 -0.833592
H37   H     H_    0.607862 0.276077 0.734880 0.248946
H38   H     H_    0.648203 0.305726 0.629379 0.245721
H39   H     H_    0.740411 0.342402 0.724443 0.242190
H40   H     H_    0.721344 0.499524 0.657383 0.203912
H41   H     H_    0.648732 0.450053 0.742596 0.201420

loop_
_geom_bond_atom_site_label_1
_geom_bond_atom_site_label_2
_ccdc_geom_bond_type
C10   C27   A    
C39   C55   S    
C43   H20   S    
C41   C43   A    
C41   C42   A    
C3    C48   S    
C36   C42   A    
C19   C20   A    
C43   C44   A    
C3    C6    S    
Cu1   O5    S    
C7    C8    T    
C13   H8    S    
C55   H41   S    
C25   C28   A    
C26   C27   A    
C29   C30   A    
C29   C53   S    
C36   C37   A    
C24   C26   A    
C46   H14   S    
C55   C56   S    
C1    O1    A    
C15   C16   A    
C29   C33   A    
C45   H10   S    
C12   O4    A    
C18   C19   A    
C42   C46   A    
C51   H30   S    
Cu2   O4    S    
C9    C13   A    
Cu1   N2    S    
C21   H12   S    
C35   C36   A    
C19   H11   S    
C23   O6    A    
C47   C48   S    
C56   H37   S    
Cu2   N1    S    
Cu1   O1    S    
C16   C20   A    
C34   O7    A    
C21   C22   A    
C56   H38   S    
C48   H23   S    
C18   C25   A    
C38   I2    S    
C11   H7    S    
C47   C50   S    
C55   H40   S    
C2    C45   S    
Cu1   Cu2   S    
C32   C35   A    
C48   H22   S    
C44   N2    A    
C1    C9    S    
C24   C25   A    
C47   H21   S    
C27   H5    S    
Cu1   O7    S    
C39   C40   A    
C1    O2    A    
C14   H9    S    
C17   C21   A    
C12   O3    A    
C51   H31   S    
C2    C51   S    
C35   C39   A    
C9    C14   A    
C47   H18   S    
C4    H26   S    
C37   C38   A    
C11   C16   A    
C52   H28   S    
C31   C32   A    
Cu2   O8    S    
C8    C12   S    
C17   C18   A    
C34   O8    A    
Cu2   O2    S    
C30   N1    A    
C40   C41   A    
C54   H33   S    
C45   H2    S    
C37   H19   S    
C4    H3    S    
C40   H16   S    
C56   H39   S    
C22   C24   A    
C5    C50   S    
C5    H25   S    
C3    C4    S    
Cu1   O3    S    
C52   H29   S    
C10   C28   A    
C15   C17   A    
C34   C49   S    
C26   H13   S    
C7    C50   S    
C4    C5    S    
C2    H1    S    
C22   H6    S    
C31   N1    A    
C10   C23   S    
C33   C38   A    
C54   H32   S    
C28   I1    S    
C32   C33   A    
C5    H24   S    
Cu2   O6    S    
C2    C3    S    
C30   I3    S    
C46   N2    A    
C11   C13   A    
C52   H27   S    
C45   C50   S    
C53   H36   S    
C20   H4    S    
C6    C49   T    
C31   H17   S    
C54   H34   S    
C53   C54   S    
C23   O5    A    
C14   C15   A    
C44   H15   S    
C51   C52   S    
C53   H35   S    
