data_mof_unit_16411.cif
_audit_creation_date              2013-03-05T15:51:40-0500
_audit_creation_method            fapswitch 2.2
_symmetry_space_group_name_H-M    P1
_symmetry_Int_Tables_number       1
_space_group_crystal_system       triclinic
_cell_length_a                    10.630104
_cell_length_b                    10.84777
_cell_length_c                    9.622302
_cell_angle_alpha                 90.623857
_cell_angle_beta                  90.569241
_cell_angle_gamma                 93.031071
_cell_volume                      1107.89642069

loop_
_atom_site_label
_atom_site_type_symbol
_atom_site_description
_atom_site_fract_x
_atom_site_fract_y
_atom_site_fract_z
_atom_type_partial_charge
O1    O     O_R   0.499990 0.319640 0.618810 -0.578405
O2    O     O_R   0.500000 0.319660 0.381240 -0.497067
C1    C     C_R   0.511773 0.263131 0.499229 0.866560
O3    O     O_R   0.316850 0.499960 0.618770 -0.540939
O4    O     O_R   0.316860 0.499980 0.381190 -0.561399
C2    C     C_R   0.259548 0.498810 0.499358 0.888557
Cu1   Cu    Cu3+1 0.499990 0.499990 0.640660 0.989447
Cu2   Cu    Cu3+1 0.500010 0.500010 0.359340 1.020347
O5    O     O_R   0.500000 0.680340 0.618760 -0.581592
O6    O     O_R   0.500010 0.680360 0.381190 -0.616448
O7    O     O_R   0.683140 0.500020 0.618810 -0.617493
O8    O     O_R   0.683150 0.500040 0.381230 -0.591551
C3    C     C_R   0.490279 0.737017 0.501467 0.805808
C4    C     C_R   0.740321 0.500352 0.500646 0.770935
C5    C     C_3   0.034529 0.398138 0.560783 0.364310
C6    C     C_3   0.949708 0.397863 0.430980 -0.188372
H1    H     H_    0.907002 0.314944 0.376353 0.180692
C7    C     C_3   0.876874 0.499328 0.501704 -0.040606
C8    C     C_3   0.959842 0.496915 0.633305 -0.194576
C9    C     C_3   0.048488 0.598648 0.568781 -0.199563
C10   C     C_3   0.962869 0.601219 0.437706 -0.161265
C11   C     C_3   0.038541 0.499970 0.367357 -0.145043
C12   C     C_3   0.122573 0.497589 0.498400 -0.091252
H2    H     H_    0.925919 0.494347 0.742083 0.176423
H3    H     H_    0.090804 0.681223 0.624203 0.202926
H4    H     H_    0.929796 0.685216 0.386883 0.145232
H5    H     H_    0.072363 0.501865 0.258573 0.193904
C13   C     C_R   0.600626 0.119276 0.741917 -0.119390
H6    H     H_    0.654086 0.206729 0.736008 0.173955
C14   C     C_R   0.599210 0.057939 0.868284 -0.121576
H7    H     H_    0.648625 0.099128 0.957247 0.216652
C15   C     C_R   0.526369 0.948416 0.881904 -0.105792
H8    H     H_    0.513479 0.907925 0.983390 0.193745
C16   C     C_R   0.466868 0.892922 0.765587 0.282678
C17   C     C_R   0.492651 0.941030 0.631517 0.038733
C18   C     C_R   0.539265 0.064784 0.623883 0.021462
C19   C     C_R   0.525905 0.128487 0.497539 -0.208371
C20   C     C_R   0.506919 0.059619 0.372855 0.363073
H9    H     H_    0.479798 0.881052 0.281217 0.193875
C21   C     C_R   0.486686 0.932547 0.378420 -0.260516
C22   C     C_R   0.480860 0.871520 0.505552 -0.142087
C23   C     C_R   0.670384 0.662752 0.147207 -0.129954
H10   H     H_    0.676821 0.672335 0.256955 0.192038
C24   C     C_R   0.754200 0.741398 0.076604 -0.200232
H11   H     H_    0.818905 0.804032 0.133838 0.168311
C25   C     C_R   0.754383 0.740777 0.933313 -0.202896
H12   H     H_    0.818997 0.803097 0.878493 0.177899
C26   C     C_R   0.670349 0.661900 0.859652 -0.133760
H13   H     H_    0.675794 0.670886 0.750130 0.196228
C27   C     C_R   0.584170 0.579245 0.927095 0.207073
C28   C     C_R   0.584239 0.579321 0.076545 0.163042
N1    N     N_R   0.501210 0.501210 0.147910 -0.226754
C29   C     C_R   0.417715 0.426232 0.070296 0.377198
H14   H     H_    0.352635 0.365533 0.865503 0.202829
C30   C     C_R   0.419087 0.425883 0.923153 -0.040387
N2    N     N_R   0.501250 0.501290 0.852040 -0.222175
Br1   Br    Br    0.324498 0.780970 0.801806 -0.493738
Br2   Br    Br    0.290210 0.321232 0.153729 -0.385695
N3    N     N_R   0.071040 0.285390 0.627920 0.128393
O9    O     O_R   0.984969 0.210830 0.680949 -0.351738
O10   O     O_R   0.188034 0.255952 0.630480 -0.349243
N4    N     N_R   0.517680 0.115025 0.238829 0.132369
O11   O     O_R   0.437350 0.081739 0.140972 -0.344689
O12   O     O_R   0.620075 0.179226 0.207104 -0.390130

loop_
_geom_bond_atom_site_label_1
_geom_bond_atom_site_label_2
_geom_bond_distance
_ccdc_geom_bond_type
O4    Cu2   1.960282 S    
C14   C15   1.391542 A    
C29   Br2   1.912386 S    
Cu2   O6    1.965383 S    
C5    C8    1.533016 S    
C21   C22   1.397636 A    
C19   C20   1.413496 A    
C16   Br1   1.926664 S    
C7    C10   1.534817 S    
C27   N2    1.381611 A    
C4    C7    1.452137 S    
C8    C9    1.551736 S    
C9    C12   1.538298 S    
Cu2   O8    1.956060 S    
C23   C28   1.416529 A    
C30   N2    1.359662 A    
C15   H8    1.082102 S    
C5    C12   1.522697 S    
C8    H2    1.110616 S    
O8    C4    1.294415 A    
Cu1   Cu2   2.706950 S    
C6    C7    1.535683 S    
C25   H12   1.083006 S    
C10   C11   1.549085 S    
N1    C29   1.379959 A    
Cu1   O7    1.960281 S    
C26   C27   1.414895 A    
C14   H7    1.079930 S    
C13   H6    1.082107 S    
N4    O11   1.300072 A    
C23   C24   1.388325 A    
Cu1   N2    2.033765 S    
O3    Cu1   1.956061 S    
C2    C12   1.455355 S    
C3    C22   1.467890 S    
C13   C14   1.392256 A    
C18   C19   1.414536 A    
C20   C21   1.385532 A    
C10   H4    1.110483 S    
C24   C25   1.378754 A    
O2    C1    1.304262 A    
C11   H5    1.110196 S    
C29   C30   1.416045 A    
O4    C2    1.295175 A    
C17   C22   1.421433 A    
O7    C4    1.294551 A    
C25   C26   1.387748 A    
N3    O10   1.300318 A    
C9    H3    1.109660 S    
O5    C3    1.296919 A    
C5    C6    1.533053 S    
N3    O9    1.300634 A    
C7    C8    1.537209 S    
C9    C10   1.549353 S    
C13   C18   1.412340 A    
O3    C2    1.294759 A    
C16   C17   1.420658 A    
C23   H10   1.061183 S    
H9    C21   1.084044 S    
Cu1   O5    1.969985 S    
Cu2   N1    2.034789 S    
H14   C30   1.081985 S    
C26   H13   1.061281 S    
N4    O12   1.301551 A    
C27   C28   1.438039 A    
O1    Cu1   1.965383 S    
C20   N4    1.431794 S    
C5    N3    1.458172 S    
O6    C3    1.312054 A    
C11   C12   1.539260 S    
O2    Cu2   1.969987 S    
C24   H11   1.083022 S    
C28   N1    1.383525 A    
C1    C19   1.476113 S    
C6    C11   1.552096 S    
C6    H1    1.110510 S    
O1    C1    1.308075 A    
C17   C18   1.409123 A    
C15   C16   1.395045 A    
