data_mof_unit_45138.cif
_audit_creation_date              2012-10-26T21:00:44-0400
_audit_creation_method            fapswitch 2.2
_symmetry_space_group_name_H-M    P1
_symmetry_Int_Tables_number       1
_space_group_crystal_system       triclinic
_cell_length_a                    10.839025
_cell_length_b                    9.62128
_cell_length_c                    10.995101
_cell_angle_alpha                 90.001106
_cell_angle_beta                  94.362648
_cell_angle_gamma                 89.998668
_cell_volume                      1143.30505478

loop_
_atom_site_label
_atom_site_type_symbol
_atom_type_description
_atom_site_fract_x
_atom_site_fract_y
_atom_site_fract_z
_atom_type_partial_charge
C1    C     C_R   0.262396 0.500131 0.500425 0.540772
C2    C     C_R   0.496559 0.500257 0.737496 0.543668
C3    C     C_R   0.574685 0.752435 0.110370 0.032483
C4    C     C_R   0.425401 0.752486 0.889647 0.032460
C5    C     C_R   0.540430 0.877682 0.052440 -0.134655
C6    C     C_R   0.459723 0.877709 0.947585 -0.134674
C7    C     C_R   0.476414 0.626151 0.938248 0.011634
C8    C     C_R   0.523606 0.626137 0.061762 0.011640
C9    C     C_R   0.510303 0.500602 0.128573 -0.013866
C10   C     C_R   0.489680 0.500611 0.871427 -0.013871
C11   C     C_R   0.489166 0.376374 0.061211 -0.009943
C12   C     C_R   0.737604 0.500129 0.499574 0.540770
C13   C     C_R   0.510780 0.376371 0.938781 -0.009935
C14   C     C_R   0.063834 0.374966 0.501598 -0.144773
C15   C     C_R   0.936182 0.374964 0.498501 -0.144772
C16   C     C_R   0.871561 0.500818 0.498858 0.019114
C17   C     C_R   0.128439 0.500821 0.501141 0.019112
C18   C     C_3   0.427975 0.249512 0.109329 -0.381277
C19   C     C_3   0.571968 0.249498 0.890665 -0.381272
C20   C     C_3   0.680419 0.757006 0.207816 -0.356278
C21   C     C_3   0.319683 0.757141 0.792191 -0.356278
C22   C     C_3   0.307006 0.138538 0.353642 -0.362417
C23   C     C_R   0.936045 0.627170 0.499452 -0.143455
C24   C     C_3   0.692985 0.138530 0.646373 -0.362418
C25   C     C_R   0.063940 0.627171 0.500448 -0.143446
C26   C     C_R   0.412795 0.071583 0.428259 0.097781
C27   C     C_R   0.587203 0.071581 0.571743 0.097792
C28   C     C_R   0.415654 0.922857 0.426847 0.198197
C29   C     C_R   0.584345 0.922855 0.573154 0.198172
C30   C     C_R   0.503434 0.500254 0.262504 0.543659
Cu1   Cu    Cu3+1 0.500000 0.640660 0.500000 0.969890
Cu2   Cu    Cu3+1 0.500000 0.359340 0.500000 0.903987
H1    H     H_    0.575027 0.975286 0.090073 0.101639
H2    H     H_    0.600114 0.173834 0.963641 0.113743
H3    H     H_    0.509684 0.194408 0.821978 0.161083
H4    H     H_    0.659815 0.283822 0.855571 0.125194
H5    H     H_    0.760353 0.811459 0.171858 0.102499
H6    H     H_    0.652810 0.815338 0.288547 0.163788
H7    H     H_    0.712964 0.651478 0.235451 0.138475
H8    H     H_    0.239786 0.811697 0.828122 0.102490
H9    H     H_    0.347354 0.815417 0.711462 0.163826
H10   H     H_    0.287062 0.651637 0.764569 0.138486
H11   H     H_    0.220696 0.123676 0.399781 0.097941
H12   H     H_    0.425184 0.975338 0.909952 0.101623
H13   H     H_    0.320853 0.248205 0.335908 0.202383
H14   H     H_    0.293380 0.090227 0.262227 0.074555
H15   H     H_    0.779304 0.123630 0.600257 0.097906
H16   H     H_    0.679154 0.248205 0.664090 0.202380
H17   H     H_    0.706583 0.090231 0.737793 0.074563
H18   H     H_    0.239818 0.870640 0.365156 0.197611
H19   H     H_    0.345664 0.865336 0.257622 0.217544
H20   H     H_    0.760181 0.870632 0.634854 0.197634
H21   H     H_    0.654325 0.865326 0.742379 0.217549
H22   H     H_    0.111413 0.276356 0.504603 0.122553
H23   H     H_    0.888615 0.276352 0.495578 0.122542
H24   H     H_    0.888058 0.725889 0.498877 0.124146
H25   H     H_    0.111916 0.725891 0.500943 0.124150
H26   H     H_    0.399814 0.173852 0.036351 0.113761
H27   H     H_    0.490264 0.194413 0.178005 0.161090
H28   H     H_    0.340136 0.283848 0.144436 0.125184
N1    N     N_R   0.500000 0.852070 0.500000 -0.197700
N2    N     N_R   0.500000 0.147940 0.500000 -0.232559
N3    N     N_3   0.330386 0.843788 0.348415 -0.558607
N4    N     N_3   0.669611 0.843784 0.651587 -0.558613
O1    O     O_R   0.319640 0.618740 0.499990 -0.483520
O2    O     O_R   0.680360 0.618740 0.500010 -0.483517
O3    O     O_R   0.319620 0.381170 0.499990 -0.524149
O4    O     O_R   0.680380 0.381170 0.500010 -0.524139
O5    O     O_R   0.500000 0.618810 0.319650 -0.476254
O6    O     O_R   0.500000 0.618810 0.680350 -0.476275
O7    O     O_R   0.499970 0.381240 0.319640 -0.519403
O8    O     O_R   0.500030 0.381240 0.680360 -0.519400

loop_
_geom_bond_atom_site_label_1
_geom_bond_atom_site_label_2
_ccdc_geom_bond_type
C7    C10   A    
C1    O1    A    
C10   C13   A    
C11   C18   S    
C12   O2    A    
C4    C21   S    
C27   N2    A    
C2    O6    A    
C27   C29   A    
C20   H6    S    
Cu1   N1    S    
C24   H16   S    
C26   C28   A    
C22   H11   S    
C24   C27   S    
Cu1   O5    S    
Cu2   O4    S    
C17   C25   A    
C28   N1    A    
C22   H13   S    
C30   O7    A    
C26   N2    A    
C29   N4    S    
Cu2   N2    S    
C3    C20   S    
Cu2   O8    S    
C6    H12   S    
C20   H5    S    
C12   O4    A    
C14   C17   A    
C9    C11   A    
C21   H8    S    
C25   H25   S    
C9    C30   S    
Cu2   O3    S    
C21   H9    S    
C18   H28   S    
C1    O3    A    
Cu2   O7    S    
H18   N3    S    
C19   H4    S    
C23   C25   A    
C22   C26   S    
C5    C6    A    
H21   N4    S    
C29   N1    A    
C7    C8    A    
C13   C19   S    
C24   H15   S    
C15   C16   A    
C2    C10   S    
C28   N3    S    
C12   C16   S    
C18   H27   S    
C11   C13   A    
C30   O5    A    
H19   N3    S    
C16   C23   A    
C4    C6    A    
C3    C8    A    
H20   N4    S    
C2    O8    A    
C23   H24   S    
C24   H17   S    
Cu1   O1    S    
C20   H7    S    
C4    C7    A    
C19   H3    S    
C21   H10   S    
C14   H22   S    
C14   C15   A    
Cu1   O2    S    
C1    C17   S    
C18   H26   S    
Cu1   O6    S    
C22   H14   S    
Cu1   Cu2   S    
C15   H23   S    
C8    C9    A    
C3    C5    A    
C19   H2    S    
C5    H1    S    
