data_mof_unit_32816.cif
_audit_creation_date              2012-12-10T16:57:49-0500
_audit_creation_method            fapswitch 2.2
_symmetry_space_group_name_H-M    P1
_symmetry_Int_Tables_number       1
_space_group_crystal_system       triclinic
_cell_length_a                    7.735248
_cell_length_b                    8.553281
_cell_length_c                    19.172875
_cell_angle_alpha                 90.666575
_cell_angle_beta                  86.67456
_cell_angle_gamma                 93.495867
_cell_volume                      1263.97678906

loop_
_atom_site_label
_atom_site_type_symbol
_atom_type_description
_atom_site_fract_x
_atom_site_fract_y
_atom_site_fract_z
_atom_type_partial_charge
C1    C     C_R   0.545805 0.794809 0.498614 0.976438
C2    C     C_R   0.573464 0.391707 0.178346 -0.218300
C3    C     C_R   0.536412 0.500732 0.854174 -0.071932
C4    C     C_R   0.464149 0.487913 0.145663 -0.064287
C5    C     C_R   0.639030 0.397850 0.814013 -0.084998
C6    C     C_R   0.358726 0.590106 0.184814 -0.085649
C7    C     C_R   0.625887 0.392404 0.740992 -0.159307
C8    C     C_R   0.371046 0.598805 0.257918 -0.166218
C9    C     C_R   0.513252 0.492890 0.709772 -0.230900
C10   C     C_R   0.486184 0.502412 0.290080 -0.225626
C11   C     C_R   0.478131 0.490778 0.069921 0.373753
C12   C     C_R   0.454231 0.205203 0.501764 0.978496
C13   C     C_R   0.524795 0.497250 0.929953 0.365867
C14   C     C_3   0.386047 0.843266 0.710064 0.121668
C15   C     C_3   0.258438 0.949009 0.679864 -0.743125
C16   C     C_3   0.619429 0.154742 0.293174 0.104509
C17   C     C_3   0.748966 0.052316 0.324257 -0.703001
C18   C     C_2   0.757819 0.295890 0.848270 0.985278
C19   C     C_2   0.237443 0.686886 0.149025 0.977309
C20   C     C_2   0.729673 0.282203 0.697822 1.001254
C21   C     C_2   0.265864 0.709351 0.300254 0.999521
C22   C     C_2   0.570140 0.958190 0.498803 -0.327095
C23   C     C_2   0.429936 0.041852 0.502309 -0.368448
C24   C     C_R   0.503187 0.496619 0.634267 0.918871
C25   C     C_R   0.496699 0.502626 0.365677 0.926683
C26   C     C_R   0.417613 0.598441 0.750668 0.473529
C27   C     C_R   0.583930 0.396587 0.250113 0.475190
C28   C     C_R   0.428586 0.600057 0.822407 -0.212681
H1    H     H_    0.347670 0.676546 0.853657 0.182010
H2    H     H_    0.212359 0.898172 0.630215 0.245309
H3    H     H_    0.145205 0.961124 0.717466 0.258959
H4    H     H_    0.576882 0.098013 0.243893 0.168275
H5    H     H_    0.505423 0.161703 0.331138 0.132943
H6    H     H_    0.795337 0.106533 0.373204 0.237545
H7    H     H_    0.686771 0.934509 0.336171 0.240535
H8    H     H_    0.861835 0.039204 0.286574 0.268865
H9    H     H_    0.843465 0.079576 0.858328 0.355613
H10   H     H_    0.054122 0.694690 0.078648 0.358349
H11   H     H_    0.965819 0.205419 0.670480 0.337824
H12   H     H_    0.656258 0.315599 0.147765 0.185838
H13   H     H_    0.262678 0.887042 0.370287 0.332092
H14   H     H_    0.702675 0.009083 0.496139 0.176044
H15   H     H_    0.297392 0.990972 0.505101 0.166410
H16   H     H_    0.013779 0.383108 0.447563 0.198843
H17   H     H_    0.986219 0.616880 0.552441 0.200285
H18   H     H_    0.500285 0.836868 0.672177 0.143841
H19   H     H_    0.428722 0.896913 0.759955 0.168118
H20   H     H_    0.322110 0.066907 0.669407 0.236214
N1    N     N_R   0.506634 0.358538 0.963801 -0.135465
N2    N     N_R   0.496576 0.629444 0.036090 -0.147328
N3    N     N_R   0.485147 0.355318 0.032907 -0.135433
N4    N     N_R   0.518159 0.632658 0.967016 -0.150313
N5    N     N_2   0.950330 0.457950 0.481240 -0.159691
N6    N     N_2   0.049670 0.542050 0.518760 -0.161902
O1    O     O_R   0.389250 0.738570 0.504600 -0.608751
O2    O     O_3   0.700018 0.305049 0.280438 -0.589548
O3    O     O_2   0.855710 0.351786 0.891131 -0.591452
O4    O     O_R   0.756869 0.136158 0.831732 -0.804032
O5    O     O_2   0.232829 0.826956 0.162043 -0.612589
O6    O     O_R   0.130157 0.617301 0.099679 -0.770596
O7    O     O_2   0.657823 0.189624 0.658175 -0.664431
O8    O     O_R   0.909547 0.285006 0.702626 -0.773515
O9    O     O_2   0.108261 0.704543 0.296654 -0.600939
O10   O     O_R   0.347576 0.818182 0.344362 -0.834290
O11   O     O_R   0.610750 0.261430 0.495400 -0.602050
O12   O     O_R   0.678400 0.711620 0.492580 -0.637626
O13   O     O_R   0.321600 0.288380 0.507420 -0.646233
O14   O     O_R   0.355380 0.513500 0.607880 -0.557785
O15   O     O_R   0.644620 0.486500 0.392120 -0.554044
O16   O     O_R   0.644530 0.486550 0.595850 -0.629725
O17   O     O_R   0.355470 0.513450 0.404150 -0.630438
O18   O     O_3   0.303295 0.693197 0.721184 -0.591853
Zn1   Zn    Zn3+2 0.306930 0.517990 0.508030 0.983609
Zn2   Zn    Zn3+2 0.693070 0.482010 0.491970 0.995709

loop_
_geom_bond_atom_site_label_1
_geom_bond_atom_site_label_2
_ccdc_geom_bond_type
C10   C27   A    
O16   Zn2   S    
N2    N4    A    
C16   O2    S    
C9    C24   S    
C15   H3    S    
C2    C27   A    
C25   O17   A    
C17   H8    S    
C16   H5    S    
C16   H4    S    
C13   N4    A    
C26   O18   S    
C12   O11   A    
C18   O3    D    
C2    C4    A    
N5    Zn2   S    
C3    C13   S    
C26   C28   A    
N1    N3    A    
C8    C21   S    
C1    O1    A    
C24   O16   A    
C1    C22   S    
C14   H18   S    
C11   N2    A    
N5    N6    D    
C4    C11   S    
C6    C19   S    
C12   C23   S    
C22   H14   S    
C15   H20   S    
C13   N1    A    
O13   Zn1   S    
C10   C25   S    
C8    C10   A    
C3    C28   A    
H17   N6    S    
C1    O12   A    
C5    C7    A    
C22   C23   D    
C20   O8    S    
C9    C26   A    
C12   O13   A    
H10   O6    S    
C21   O9    D    
C11   N3    A    
C17   H6    S    
C24   O14   A    
O1    Zn1   S    
C2    H12   S    
N6    Zn1   S    
O15   Zn2   S    
C23   H15   S    
C15   H2    S    
C4    C6    A    
C7    C20   S    
C25   O15   A    
O17   Zn1   S    
C20   O7    D    
C7    C9    A    
H11   O8    S    
C27   O2    S    
C28   H1    S    
C19   O6    S    
C6    C8    A    
C5    C18   S    
C17   H7    S    
H13   O10   S    
C19   O5    D    
O14   Zn1   S    
C14   C15   S    
C14   H19   S    
C14   O18   S    
H16   N5    S    
C18   O4    S    
O11   Zn2   S    
H9    O4    S    
C16   C17   S    
C3    C5    A    
C21   O10   S    
O12   Zn2   S    
