data_mof_unit_16931.cif
_audit_creation_date              2012-12-11T16:56:17-0500
_audit_creation_method            fapswitch 2.2
_symmetry_space_group_name_H-M    P1
_symmetry_Int_Tables_number       1
_space_group_crystal_system       triclinic
_cell_length_a                    6.942697
_cell_length_b                    14.567176
_cell_length_c                    16.177219
_cell_angle_alpha                 90.363599
_cell_angle_beta                  90.21535
_cell_angle_gamma                 89.995846
_cell_volume                      1636.04645401

loop_
_atom_site_label
_atom_site_type_symbol
_atom_type_description
_atom_site_fract_x
_atom_site_fract_y
_atom_site_fract_z
_atom_type_partial_charge
O1    O     O_R   0.505830 0.583360 0.413880 -0.538928
O2    O     O_R   0.175830 0.595460 0.585520 -0.527788
O3    O     O_R   0.005520 0.416640 0.586120 -0.538406
C1    C     C_R   0.344976 0.617332 0.614637 0.743603
O4    O     O_R   0.176120 0.594390 0.414490 -0.532872
O5    O     O_R   0.005810 0.415570 0.413870 -0.550206
C2    C     C_R   0.344766 0.616651 0.386166 0.728039
O6    O     O_R   0.505540 0.584430 0.586130 -0.531332
O7    O     O_3   0.339200 0.441330 0.500000 -0.384869
V1    V     V_3+5 0.064350 0.510880 0.500000 1.478122
O8    O     O_R   0.676100 0.404540 0.414480 -0.549360
C3    C     C_R   0.845274 0.384411 0.384215 0.732989
O9    O     O_R   0.675810 0.405610 0.585510 -0.539922
C4    C     C_R   0.845563 0.382385 0.612548 0.805426
V2    V     V_3+5 0.564340 0.489120 0.500000 1.449962
O10   O     O_3   0.839360 0.558670 0.500000 -0.352070
C5    C     C_2   0.714295 0.205929 0.782599 0.388659
C6    C     C_2   0.879553 0.183150 0.822964 -0.301471
H1    H     H_    0.013612 0.217498 0.808722 0.097956
C7    C     C_2   0.707661 0.278808 0.717466 -0.204875
C8    C     C_2   0.862029 0.311998 0.677540 -0.313106
H2    H     H_    0.566283 0.304596 0.700354 0.143234
H3    H     H_    0.005545 0.287100 0.691352 0.125358
C9    C     C_R   0.755954 0.174290 0.250062 0.064231
C10   C     C_R   0.884146 0.184269 0.184282 -0.195719
C11   C     C_R   0.015536 0.258589 0.187460 0.315382
C12   C     C_R   0.004452 0.324693 0.252891 0.223786
C13   C     C_R   0.861650 0.316473 0.315692 -0.200496
C14   C     C_R   0.745212 0.238183 0.313757 0.050919
C15   C     C_3   0.531873 0.227989 0.320295 -0.390199
C16   C     C_3   0.543941 0.157630 0.250573 -0.357540
H4    H     H_    0.453769 0.291379 0.302499 0.172593
H5    H     H_    0.487891 0.197755 0.380236 0.176358
H6    H     H_    0.472000 0.180286 0.192689 0.195076
H7    H     H_    0.507895 0.086793 0.270479 0.189099
C17   C     C_R   0.505444 0.680517 0.743589 0.118719
C18   C     C_R   0.353796 0.682419 0.685856 -0.126048
C19   C     C_R   0.203534 0.745417 0.700999 -0.125785
H8    H     H_    0.082359 0.749049 0.659018 0.145798
C20   C     C_R   0.213655 0.808370 0.767599 -0.162005
H9    H     H_    0.099502 0.858220 0.774986 0.124423
C21   C     C_R   0.375598 0.811175 0.820503 -0.107183
C22   C     C_R   0.517050 0.744337 0.808049 0.083428
C23   C     C_3   0.728769 0.755326 0.798936 -0.432922
C24   C     C_3   0.717948 0.683571 0.730361 -0.008148
H10   H     H_    0.808556 0.733033 0.854988 0.202974
H11   H     H_    0.767178 0.824750 0.776193 0.152561
H12   H     H_    0.756212 0.710134 0.668316 0.135902
C25   C     C_R   0.500603 0.751927 0.315887 0.038380
C26   C     C_R   0.352159 0.686834 0.320154 -0.112730
C27   C     C_R   0.204173 0.693131 0.260451 -0.137065
H13   H     H_    0.084016 0.645919 0.261937 0.138161
C28   C     C_R   0.216655 0.756140 0.194675 -0.197037
H14   H     H_    0.104970 0.756023 0.147847 0.133271
C29   C     C_R   0.377258 0.814782 0.186739 -0.155949
C30   C     C_R   0.512420 0.814109 0.251136 0.117174
C31   C     C_3   0.726584 0.809852 0.249597 0.153208
C32   C     C_3   0.714135 0.741991 0.321451 -0.001084
H15   H     H_    0.782937 0.780499 0.190812 0.057609
H16   H     H_    0.761379 0.671549 0.304368 0.079059
O11   O     O_R   0.229930 0.912420 0.917160 -0.547268
O12   O     O_R   0.559420 0.902500 0.088780 -0.539594
O13   O     O_R   0.729660 0.081330 0.089380 -0.545173
C33   C     C_R   0.390479 0.880485 0.117287 0.706194
O14   O     O_R   0.559650 0.901420 0.917750 -0.542749
O15   O     O_R   0.729880 0.080250 0.917130 -0.503042
C34   C     C_R   0.390285 0.880130 0.888293 0.707782
O16   O     O_R   0.229700 0.913500 0.089410 -0.546306
O17   O     O_3   0.396250 0.055540 0.003280 -0.351477
V3    V     V_3+5 0.671130 0.986010 0.003260 1.481151
O18   O     O_R   0.059600 0.091310 0.917720 -0.542015
C35   C     C_R   0.889924 0.113181 0.889243 0.776989
O19   O     O_R   0.059370 0.092380 0.088750 -0.520719
C36   C     C_R   0.890751 0.115332 0.116618 0.786311
V4    V     V_3+5 0.171120 0.007820 0.003230 1.489490
O20   O     O_3   0.896130 0.938240 0.003240 -0.387931
O21   O     O_3   0.544772 0.161809 0.803394 -0.628729
H17   H     H_    0.439033 0.184775 0.767758 0.274571
I1    I     I_    0.852226 0.557470 0.765477 -0.405225
O22   O     O_3   0.806512 0.894954 0.271438 -0.614223
H18   H     H_    0.947714 0.887977 0.264872 0.312620
I2    I     I_    0.820783 0.790057 0.438923 -0.366373
O23   O     O_3   0.146444 0.267563 0.123729 -0.638000
H19   H     H_    0.236152 0.318802 0.135673 0.325795
O24   O     O_3   0.118176 0.401915 0.248496 -0.655910
H20   H     H_    0.202734 0.401670 0.297816 0.287486

loop_
_geom_bond_atom_site_label_1
_geom_bond_atom_site_label_2
_ccdc_geom_bond_type
C19   C20   A    
C29   C30   A    
V4    O20   S    
C11   O23   S    
O19   C36   A    
C1    O6    A    
O15   V3    S    
C28   H14   S    
O11   V4    S    
O16   V4    S    
C11   C12   A    
C18   C19   A    
C3    C13   S    
C33   O16   A    
C4    C8    S    
C13   C14   A    
C6    H1    S    
C32   I2    S    
O5    C3    A    
C15   C16   S    
C31   H15   S    
C32   H16   S    
O14   V3    S    
C5    C7    S    
C30   C31   S    
O12   V3    S    
C10   C36   S    
C12   O24   S    
C9    C14   A    
O12   C33   A    
O8    V2    S    
O15   C35   A    
O14   C34   A    
O1    V2    S    
O7    V1    S    
C23   H11   S    
C20   C21   A    
O9    C4    A    
O19   V4    S    
C31   O22   S    
C23   H10   S    
C26   C27   A    
C28   C29   A    
C6    C35   S    
O18   V4    S    
C27   H13   S    
C9    C10   A    
O4    C2    A    
C10   C11   A    
O21   H17   S    
C25   C32   S    
C27   C28   A    
O2    C1    A    
C22   C23   S    
C14   C15   S    
O11   C34   A    
O23   H19   S    
O13   V3    S    
C29   C33   S    
C5    O21   S    
C5    C6    D    
C16   H6    S    
C17   C24   S    
C24   I1    S    
C1    C18   S    
O24   H20   S    
O3    C4    A    
C20   H9    S    
C7    H2    S    
O6    V2    S    
O9    V2    S    
V3    O20   S    
C21   C34   S    
C16   H7    S    
C21   C22   A    
O2    V1    S    
C23   C24   S    
C24   H12   S    
C17   C18   A    
C15   H5    S    
O1    C2    A    
C2    C26   S    
O22   H18   S    
O5    V1    S    
O8    C3    A    
O13   C36   A    
C25   C30   A    
C8    H3    S    
O7    V2    S    
C9    C16   S    
O4    V1    S    
O3    V1    S    
V1    O10   S    
C15   H4    S    
C31   C32   S    
C19   H8    S    
O17   V4    S    
O17   V3    S    
O18   C35   A    
C7    C8    D    
C25   C26   A    
C12   C13   A    
C17   C22   A    
V2    O10   S    
