data_mof_unit_62773.cif
_audit_creation_date              2012-12-11T16:00:47-0500
_audit_creation_method            fapswitch 2.2
_symmetry_space_group_name_H-M    P1
_symmetry_Int_Tables_number       1
_space_group_crystal_system       triclinic
_cell_length_a                    6.961212
_cell_length_b                    17.269543
_cell_length_c                    18.577955
_cell_angle_alpha                 107.268497
_cell_angle_beta                  90.467582
_cell_angle_gamma                 90.748259
_cell_volume                      2132.36204679

loop_
_atom_site_label
_atom_site_type_symbol
_atom_type_description
_atom_site_fract_x
_atom_site_fract_y
_atom_site_fract_z
_atom_type_partial_charge
O1    O     O_R   0.505810 0.442350 0.559500 -0.523811
O2    O     O_R   0.167990 0.405060 0.411070 -0.512370
O3    O     O_R   0.005550 0.557650 0.440500 -0.524499
C1    C     C_R   0.336955 0.381366 0.382992 0.725807
O4    O     O_R   0.175580 0.432840 0.557140 -0.521583
O5    O     O_R   0.013190 0.585620 0.587600 -0.538232
C2    C     C_R   0.344582 0.415908 0.580573 0.721581
O6    O     O_R   0.498170 0.414380 0.412400 -0.536021
O7    O     O_3   0.341790 0.550090 0.509830 -0.369190
V1    V     V_3+5 0.063870 0.490710 0.498180 1.471876
O8    O     O_R   0.683930 0.594940 0.588930 -0.540761
C3    C     C_R   0.854597 0.618071 0.616997 0.700059
O9    O     O_R   0.676340 0.567160 0.442860 -0.527464
C4    C     C_R   0.845181 0.584088 0.419425 0.713840
V2    V     V_3+5 0.564820 0.509290 0.501820 1.429128
O10   O     O_3   0.836770 0.449910 0.490170 -0.347899
C5    C     C_1   0.856240 0.636101 0.367376 -0.214807
C6    C     C_1   0.867506 0.678647 0.323793 0.003803
C7    C     C_1   0.881989 0.728800 0.271880 0.007906
C8    C     C_1   0.894442 0.771036 0.228057 0.014190
C9    C     C_1   0.908943 0.821202 0.176157 0.024613
C10   C     C_1   0.920253 0.863769 0.132596 -0.175340
C11   C     C_3   0.712875 0.776680 0.773451 -0.154431
C12   C     C_3   0.799598 0.774344 0.696235 -0.134472
H1    H     H_    0.725948 0.793991 0.651546 0.114496
H2    H     H_    0.567712 0.798998 0.792851 0.144361
C13   C     C_3   0.871664 0.688206 0.687623 -0.071998
C14   C     C_3   0.784747 0.689596 0.763981 -0.157444
C15   C     C_3   0.976131 0.725635 0.803000 0.425752
C16   C     C_3   0.064371 0.722933 0.726462 -0.147795
C17   C     C_3   0.991945 0.809940 0.736009 -0.206806
C18   C     C_3   0.905266 0.811620 0.812478 -0.076358
H3    H     H_    0.699930 0.639701 0.775339 0.147412
H4    H     H_    0.209676 0.700498 0.707403 0.133682
H5    H     H_    0.077416 0.859807 0.724911 0.120662
C19   C     C_3   0.518266 0.248708 0.303005 -0.099106
C20   C     C_3   0.374964 0.178903 0.265329 -0.174960
H6    H     H_    0.364259 0.120228 0.278241 0.138322
H7    H     H_    0.617139 0.247915 0.349753 0.191875
C21   C     C_3   0.421690 0.189496 0.187706 -0.083720
C22   C     C_3   0.566133 0.258474 0.224551 -0.047341
C23   C     C_3   0.402349 0.320840 0.234407 -0.230015
C24   C     C_3   0.257437 0.251132 0.196849 -0.163750
C25   C     C_3   0.214045 0.241356 0.275026 0.441680
C26   C     C_3   0.355117 0.310497 0.312186 -0.100848
H8    H     H_    0.711833 0.265698 0.203368 0.153969
H9    H     H_    0.412407 0.379588 0.221619 0.130376
H10   H     H_    0.148474 0.252386 0.153248 0.127722
C27   C     C_1   0.355112 0.363857 0.632617 -0.191391
C28   C     C_1   0.366754 0.321308 0.676186 0.018143
C29   C     C_1   0.382108 0.271159 0.728086 0.012506
C30   C     C_1   0.395372 0.228936 0.771892 0.007398
C31   C     C_1   0.410703 0.178780 0.823788 0.003399
C32   C     C_1   0.422292 0.136222 0.867352 -0.212437
O11   O     O_R   0.278780 0.085730 0.087540 -0.535698
O12   O     O_R   0.601620 0.067180 0.942850 -0.528880
O13   O     O_R   0.763750 0.914350 0.912410 -0.539631
C33   C     C_R   0.432684 0.084155 0.919386 0.701220
O14   O     O_R   0.608970 0.094960 0.088920 -0.533695
O15   O     O_R   0.771150 0.942330 0.059520 -0.522457
C34   C     C_R   0.439985 0.118657 0.116979 0.703922
O16   O     O_R   0.271380 0.057750 0.940430 -0.527604
O17   O     O_3   0.435070 0.949970 0.990140 -0.352302
V3    V     V_3+5 0.713090 0.009280 0.001830 1.442943
O18   O     O_R   0.100340 0.932730 0.057200 -0.518452
C35   C     C_R   0.931438 0.915817 0.080586 0.750662
O19   O     O_R   0.092990 0.904950 0.911140 -0.526322
C36   C     C_R   0.922328 0.881844 0.883064 0.735005
V4    V     V_3+5 0.212100 0.990570 0.998260 1.469076
O20   O     O_3   0.940260 0.050030 0.009860 -0.367923
Cl1   Cl    Cl    0.987033 0.225405 0.310410 -0.733274
Cl2   Cl    Cl    0.094774 0.693261 0.874041 -0.656293

loop_
_geom_bond_atom_site_label_1
_geom_bond_atom_site_label_2
_ccdc_geom_bond_type
C33   O16   A    
C22   C23   S    
C7    C8    T    
C12   C13   S    
C1    O6    A    
C31   C32   T    
C30   C31   S    
O14   V3    S    
C20   H6    S    
C14   C15   S    
C20   C21   S    
O5    C3    A    
C16   C17   S    
V2    O10   S    
C25   Cl1   S    
C6    C7    S    
C11   H2    S    
C10   C35   S    
O8    V2    S    
C21   C24   S    
O17   V4    S    
C22   H8    S    
O12   V3    S    
O1    V2    S    
V3    O20   S    
O7    V1    S    
C18   C36   S    
C15   Cl2   S    
O15   C35   A    
O9    C4    A    
C13   C16   S    
C4    C5    S    
C19   C22   S    
C28   C29   S    
C1    C26   S    
O14   C34   A    
C16   H4    S    
C3    C13   S    
C29   C30   T    
C12   H1    S    
C2    C27   S    
O4    C2    A    
C21   C34   S    
O19   C36   A    
O16   V4    S    
O19   V4    S    
C23   C26   S    
O2    C1    A    
C24   C25   S    
C15   C16   S    
C17   C18   S    
C11   C12   S    
C24   H10   S    
C5    C6    T    
C19   C26   S    
C11   C14   S    
O11   V4    S    
O3    C4    A    
C21   C22   S    
C14   H3    S    
O18   C35   A    
O6    V2    S    
O9    V2    S    
C17   H5    S    
C23   C24   S    
O13   C36   A    
O2    V1    S    
C25   C26   S    
O13   V3    S    
C32   C33   S    
C19   C20   S    
O1    C2    A    
C19   H7    S    
O5    V1    S    
O8    C3    A    
C15   C18   S    
O15   V3    S    
C11   C18   S    
C20   C25   S    
O7    V2    S    
C12   C17   S    
O4    V1    S    
O3    V1    S    
V1    O10   S    
O18   V4    S    
O11   C34   A    
O12   C33   A    
C23   H9    S    
V4    O20   S    
O17   V3    S    
C8    C9    S    
C27   C28   T    
C13   C14   S    
C9    C10   T    
