data_mof_unit_44438.cif
_audit_creation_date              2013-03-05T16:46:58-0500
_audit_creation_method            fapswitch 2.2
_symmetry_space_group_name_H-M    P1
_symmetry_Int_Tables_number       1
_space_group_crystal_system       triclinic
_cell_length_a                    15.003628
_cell_length_b                    8.907446
_cell_length_c                    8.117746
_cell_angle_alpha                 89.956069
_cell_angle_beta                  90.009761
_cell_angle_gamma                 89.959531
_cell_volume                      1084.88749151

loop_
_atom_site_label
_atom_site_type_symbol
_atom_site_description
_atom_site_fract_x
_atom_site_fract_y
_atom_site_fract_z
_atom_type_partial_charge
O1    O     O_R   0.500000 0.285350 0.636850 -0.617036
O2    O     O_R   0.500000 0.714650 0.363150 -0.616973
O3    O     O_R   0.500000 0.714650 0.636850 -0.619301
O4    O     O_R   0.500000 0.285350 0.363150 -0.619064
C1    C     C_R   0.500017 0.218088 0.500037 0.936042
C2    C     C_R   0.499995 0.781912 0.499963 0.935985
O5    O     O_R   0.367850 0.500000 0.636890 -0.616201
O6    O     O_R   0.632150 0.500000 0.363110 -0.616116
O7    O     O_R   0.632150 0.500000 0.636890 -0.627803
O8    O     O_R   0.367850 0.500000 0.363110 -0.628004
C3    C     C_R   0.326946 0.498654 0.499995 0.918622
C4    C     C_R   0.673048 0.501311 0.500039 0.918485
Zn1   Zn    Zn3+2 0.500000 0.500000 0.682780 0.986446
Zn2   Zn    Zn3+2 0.500000 0.500000 0.317220 0.986507
N1    N     N_1   0.500000 0.500000 0.073640 -0.035454
N2    N     N_1   0.500000 0.500000 0.926360 -0.035457
C5    C     C_R   0.812909 0.630527 0.548769 -0.007141
C6    C     C_R   0.187391 0.367666 0.452769 -0.006849
C7    C     C_R   0.811706 0.371305 0.450665 0.031531
C8    C     C_R   0.187986 0.626395 0.552545 0.032122
C9    C     C_R   0.768131 0.501094 0.500207 -0.095168
C10   C     C_R   0.231846 0.497789 0.500374 -0.095413
C11   C     C_R   0.905563 0.370968 0.441210 0.051770
C12   C     C_R   0.094282 0.625168 0.564660 0.051972
C13   C     C_R   0.906224 0.627507 0.561718 0.077135
C14   C     C_R   0.093854 0.368865 0.443381 0.076961
C15   C     C_R   0.952978 0.498581 0.502198 -0.059700
C16   C     C_R   0.046993 0.497479 0.503514 -0.059822
C17   C     C_R   0.952991 0.248580 0.372775 0.077009
C18   C     C_R   0.046873 0.746114 0.636088 0.077117
C19   C     C_R   0.954144 0.747598 0.634738 0.065644
C20   C     C_R   0.045753 0.247245 0.373649 0.065403
C21   C     C_1   0.500011 0.065258 0.500052 -0.194153
C22   C     C_1   0.500007 0.934742 0.499948 -0.194032
N3    N     N_3   0.907697 0.125679 0.294678 -0.485498
H1    H     H_    0.926392 0.025449 0.352357 0.201851
H2    H     H_    0.926780 0.120989 0.170872 0.210365
N4    N     N_3   0.092175 0.867057 0.717753 -0.485271
H3    H     H_    0.072918 0.868942 0.841558 0.210788
H4    H     H_    0.073599 0.968604 0.662775 0.200650
N5    N     N_3   0.911551 0.870333 0.718657 -0.476831
H5    H     H_    0.867296 0.829570 0.807487 0.211491
H6    H     H_    0.880433 0.941422 0.633962 0.210390
N6    N     N_3   0.088094 0.122222 0.293499 -0.476757
H7    H     H_    0.120449 0.054643 0.380055 0.209845
H8    H     H_    0.131071 0.160340 0.201185 0.212224
N7    N     N_3   0.762973 0.765933 0.577411 -0.492366
H9    H     H_    0.726700 0.792677 0.471318 0.180787
H10   H     H_    0.718738 0.748960 0.675112 0.202358
N8    N     N_3   0.238061 0.233696 0.420695 -0.492168
H11   H     H_    0.280934 0.252503 0.321333 0.203548
H12   H     H_    0.275787 0.206791 0.524990 0.180272
N9    N     N_3   0.757605 0.241584 0.416448 -0.460440
H13   H     H_    0.779289 0.150003 0.486445 0.202321
H14   H     H_    0.757459 0.218941 0.290198 0.223176
N10   N     N_3   0.241562 0.756927 0.585926 -0.460581
H15   H     H_    0.243296 0.778188 0.712422 0.223793
H16   H     H_    0.218184 0.848801 0.518325 0.200988

loop_
_geom_bond_atom_site_label_1
_geom_bond_atom_site_label_2
_geom_bond_distance
_ccdc_geom_bond_type
O3    Zn1   1.947717 S    
C13   C19   1.419318 A    
O5    C3    1.269458 A    
C14   C20   1.420131 A    
C11   C15   1.430100 A    
C13   C15   1.429736 A    
C12   C16   1.430145 A    
N5    H5    1.045377 S    
C17   N3    1.436717 S    
C3    C10   1.426875 S    
C14   C16   1.429995 A    
N7    H9    1.045941 S    
C6    C14   1.405488 A    
C8    N10   1.439859 S    
O6    C4    1.269650 A    
O3    C2    1.262034 A    
C5    C13   1.404232 A    
C7    N9    1.439762 S    
C21   C22   1.162567 T    
C20   N6    1.437829 S    
N7    H10   1.045225 S    
C6    C10   1.392600 A    
N9    H13   1.045477 S    
N6    H7    1.044283 S    
N4    H4    1.045948 S    
N5    H6    1.044249 S    
C18   N4    1.436659 S    
O2    C2    1.262319 A    
C2    C22   1.361327 S    
O1    C1    1.262318 A    
C11   C17   1.415412 A    
N3    H2    1.045916 S    
N10   H16   1.045341 S    
N8    H11   1.045255 S    
C17   C20   1.391824 A    
N9    H14   1.044675 S    
O4    Zn2   1.947717 S    
C18   C19   1.391374 A    
O2    Zn2   1.948278 S    
O7    C4    1.269268 A    
C12   C18   1.415199 A    
O1    Zn1   1.948279 S    
O8    C3    1.269548 A    
N1    N2    1.195581 T    
C8    C12   1.409403 A    
O5    Zn1   2.017359 S    
N4    H3    1.045911 S    
N10   H15   1.044649 S    
C6    N8    1.438418 S    
O8    Zn2   2.017484 S    
Zn1   N2    1.977321 S    
N8    H12   1.045922 S    
O7    Zn1   2.017482 S    
C7    C11   1.410293 A    
O6    Zn2   2.017358 S    
C19   N5    1.438042 S    
C7    C9    1.387611 A    
Zn2   N1    1.977321 S    
C4    C9    1.426586 S    
N6    H8    1.045328 S    
C5    C9    1.392009 A    
C5    N7    1.438513 S    
C8    C10   1.387243 A    
O4    C1    1.262033 A    
C15   C16   1.410642 A    
N3    H1    1.045918 S    
C1    C21   1.361322 S    
