data_mof_unit_62957.cif
_audit_creation_date              2012-10-26T20:36:45-0400
_audit_creation_method            fapswitch 2.2
_symmetry_space_group_name_H-M    P1
_symmetry_Int_Tables_number       1
_space_group_crystal_system       triclinic
_cell_length_a                    15.874012
_cell_length_b                    17.141616
_cell_length_c                    27.837376
_cell_angle_alpha                 92.132119
_cell_angle_beta                  92.455171
_cell_angle_gamma                 95.999984
_cell_volume                      7519.68777784

loop_
_atom_site_label
_atom_site_type_symbol
_atom_type_description
_atom_site_fract_x
_atom_site_fract_y
_atom_site_fract_z
_atom_type_partial_charge
Br1   Br    Br    0.305626 0.078042 0.451970 -0.341578
Br2   Br    Br    0.694436 0.921955 0.547971 -0.341544
Br3   Br    Br    0.712695 0.629133 0.582620 -0.376630
Br4   Br    Br    0.287307 0.370878 0.417373 -0.377596
Br5   Br    Br    0.347445 0.722492 0.445567 -0.303780
Br6   Br    Br    0.652485 0.277530 0.554509 -0.304362
C1    C     C_R   0.490004 0.348745 0.501025 0.580317
C2    C     C_R   0.460287 0.434221 0.870412 0.028504
C3    C     C_R   0.500583 0.502572 0.354315 -0.022366
C4    C     C_R   0.499444 0.497585 0.645691 -0.022371
C5    C     C_R   0.466191 0.432120 0.972388 0.022352
C6    C     C_R   0.531174 0.570327 0.027656 0.022943
C7    C     C_R   0.531721 0.569640 0.976568 0.022969
C8    C     C_R   0.471862 0.430932 0.023465 0.022433
C9    C     C_R   0.497768 0.500970 0.949235 0.040562
C10   C     C_R   0.502702 0.500521 0.050803 0.040565
C11   C     C_R   0.429310 0.366753 0.943376 -0.124220
C12   C     C_R   0.509995 0.651256 0.498976 0.580316
C13   C     C_R   0.557714 0.638813 0.056691 -0.123884
C14   C     C_R   0.426712 0.367884 0.893485 -0.090470
C15   C     C_R   0.558653 0.638105 0.106574 -0.090778
C16   C     C_R   0.500073 0.501339 0.407398 0.584544
C17   C     C_R   0.499929 0.498675 0.592604 0.584458
C18   C     C_R   0.448252 0.362114 0.048420 -0.124049
C19   C     C_R   0.565675 0.635338 0.951590 -0.123780
C20   C     C_R   0.485175 0.262714 0.502102 -0.012069
C21   C     C_R   0.514825 0.737289 0.497902 -0.012089
C22   C     C_R   0.552406 0.224156 0.521757 0.145279
C23   C     C_R   0.504930 0.500337 0.101935 -0.023532
C24   C     C_R   0.447572 0.775853 0.478276 0.145421
C25   C     C_R   0.546504 0.142530 0.519504 -0.064596
C26   C     C_R   0.453481 0.857477 0.480530 -0.064534
C27   C     C_R   0.474109 0.097752 0.498119 0.209902
C28   C     C_R   0.525902 0.902254 0.501887 0.209888
C29   C     C_R   0.406398 0.136097 0.480374 0.182432
C30   C     C_R   0.593631 0.863905 0.519604 0.182432
C31   C     C_R   0.411965 0.217738 0.482465 -0.129281
C32   C     C_R   0.588058 0.782262 0.517511 -0.129282
C33   C     C_R   0.752890 0.461020 0.476148 0.352272
C34   C     C_R   0.495524 0.501090 0.898101 -0.023525
C35   C     C_R   0.247109 0.538981 0.523850 0.352330
C36   C     C_R   0.841949 0.463714 0.477700 -0.060017
C37   C     C_R   0.158049 0.536284 0.522299 -0.059965
C38   C     C_R   0.891777 0.516164 0.510035 0.153326
C39   C     C_R   0.108222 0.483832 0.489965 0.153342
C40   C     C_R   0.480785 0.432519 0.176003 0.443179
C41   C     C_R   0.526861 0.566524 0.824019 0.438630
C42   C     C_R   0.849578 0.564365 0.540142 -0.083348
C43   C     C_R   0.150422 0.435633 0.459859 -0.083386
C44   C     C_R   0.760591 0.560610 0.537957 0.282990
C45   C     C_R   0.478879 0.431223 0.125512 0.027664
C46   C     C_R   0.239409 0.439390 0.462042 0.282983
C47   C     C_R   0.533667 0.568109 0.180047 0.436092
C48   C     C_R   0.459479 0.435308 0.819993 0.440644
C49   C     C_R   0.435091 0.523845 0.275916 -0.055076
C50   C     C_R   0.565132 0.476858 0.724126 -0.055160
C51   C     C_R   0.431569 0.525059 0.325940 0.227812
C52   C     C_R   0.568535 0.475307 0.674093 0.227950
C53   C     C_R   0.572261 0.480813 0.331220 -0.123785
C54   C     C_R   0.427791 0.519439 0.668772 -0.123822
C55   C     C_R   0.575189 0.479813 0.281196 0.288904
C56   C     C_R   0.528781 0.567979 0.874511 0.027781
C57   C     C_R   0.424974 0.520755 0.718806 0.288973
C58   C     C_R   0.506182 0.501113 0.253456 0.199169
C59   C     C_R   0.494051 0.499652 0.746566 0.199267
C60   C     C_R   0.451548 0.362488 0.098356 -0.090315
C61   C     C_R   0.563999 0.634398 0.901657 -0.090682
C62   C     C_R   0.532933 0.569334 0.129634 0.028671
Cl1   Cl    Cl    0.302898 0.608042 0.564832 -0.511757
Cl2   Cl    Cl    0.697099 0.391970 0.435160 -0.511567
Cl3   Cl    Cl    0.665890 0.451819 0.253889 -0.457744
Cl4   Cl    Cl    0.334582 0.549451 0.746117 -0.457521
Cl5   Cl    Cl    0.659328 0.441616 0.649532 -0.449644
Cl6   Cl    Cl    0.340739 0.558624 0.350532 -0.449468
Cu1   Cu    Cu3+1 0.415220 0.496180 0.497670 1.156469
Cu2   Cu    Cu3+1 0.584780 0.503820 0.502330 1.156477
H1    H     H_    0.626110 0.463881 0.351946 0.214698
H2    H     H_    0.113854 0.394925 0.434286 0.174240
H3    H     H_    0.432368 0.308275 0.115629 0.181809
H4    H     H_    0.590895 0.686265 0.884379 0.181730
H5    H     H_    0.617842 0.459774 0.745884 0.173120
H6    H     H_    0.382438 0.541091 0.254180 0.173368
H7    H     H_    0.398122 0.316123 0.873008 0.181601
H8    H     H_    0.579518 0.692176 0.127055 0.181378
H9    H     H_    0.400355 0.313749 0.957973 0.124954
H10   H     H_    0.576899 0.694842 0.042135 0.124692
H11   H     H_    0.428067 0.306133 0.030529 0.124703
H12   H     H_    0.373927 0.536304 0.648032 0.214737
H13   H     H_    0.595684 0.688433 0.969444 0.124829
H14   H     H_    0.401166 0.885644 0.465257 0.203777
H15   H     H_    0.598800 0.114365 0.534801 0.203742
H16   H     H_    0.359207 0.245824 0.467898 0.204007
H17   H     H_    0.640834 0.754174 0.532055 0.203987
H18   H     H_    0.128562 0.575405 0.546250 0.184452
H19   H     H_    0.871436 0.424594 0.453748 0.184435
H20   H     H_    0.886147 0.605073 0.565714 0.174303
N1    N     N_R   0.507684 0.500375 0.202031 -0.379178
N2    N     N_R   0.492689 0.500772 0.797999 -0.379172
N3    N     N_2   0.466888 0.014569 0.494151 -0.185875
N4    N     N_2   0.533128 0.985437 0.505856 -0.185853
N5    N     N_R   0.712130 0.509560 0.505840 -0.217090
N6    N     N_R   0.287870 0.490440 0.494160 -0.217007
N7    N     N_2   0.982937 0.522459 0.513958 -0.200936
N8    N     N_2   0.017062 0.477536 0.486042 -0.200961
O1    O     O_R   0.420530 0.382500 0.497820 -0.506855
O2    O     O_2   0.559021 0.630131 0.801049 -0.441941
O3    O     O_2   0.426213 0.371437 0.793114 -0.446699
O4    O     O_2   0.559925 0.634005 0.206933 -0.449592
O5    O     O_R   0.579470 0.617500 0.502180 -0.506911
O6    O     O_R   0.563720 0.388950 0.501760 -0.417388
O7    O     O_R   0.436280 0.611050 0.498240 -0.417393
O8    O     O_R   0.428410 0.496790 0.428290 -0.418072
O9    O     O_R   0.571590 0.503210 0.571710 -0.418046
O10   O     O_R   0.571600 0.503240 0.432230 -0.493624
O11   O     O_R   0.428400 0.496760 0.567770 -0.493618
O12   O     O_2   0.455576 0.366722 0.198957 -0.439021

loop_
_geom_bond_atom_site_label_1
_geom_bond_atom_site_label_2
_ccdc_geom_bond_type
C57   C59   A    
C19   C61   A    
C12   O5    A    
C13   H10   S    
C53   H1    S    
C41   C56   A    
C54   H12   S    
C50   H5    S    
C43   H2    S    
C60   H3    S    
C46   N6    A    
Cu1   O8    S    
C2    C14   A    
C41   N2    A    
C56   C61   A    
Br4   C46   S    
C54   C57   A    
C11   H9    S    
C4    C52   A    
C59   N2    S    
C5    C8    A    
C3    C16   S    
C21   C32   A    
C50   C59   A    
C37   H18   S    
C34   C56   A    
C35   N6    A    
C32   H17   S    
C8    C18   A    
C47   C62   A    
C5    C9    A    
C38   N7    S    
Br6   C22   S    
C6    C10   A    
Cu2   O5    S    
Cu1   N6    S    
Cu2   O10   S    
C1    O1    A    
C3    C51   A    
C18   C60   A    
C41   O2    S    
C42   C44   A    
C21   C24   A    
Cu1   O7    S    
C35   C37   A    
C7    C19   A    
C36   C38   A    
Br3   C44   S    
C33   N5    A    
C33   C36   A    
C26   H14   S    
C53   C55   A    
C61   H4    S    
C36   H19   S    
C12   O7    A    
C2    C48   A    
C47   N1    A    
C10   C23   A    
C40   C45   A    
C27   N3    S    
C45   C60   A    
C26   C28   A    
C51   Cl6   S    
C55   C58   A    
C4    C54   A    
Cu1   Cu2   S    
C39   N8    S    
C17   O9    A    
C23   C62   A    
C28   N4    S    
N3    N4    D    
C15   H8    S    
C39   C43   A    
C43   C46   A    
C49   C58   A    
C25   C27   A    
Cu2   O9    S    
C6    C7    A    
C49   H6    S    
C37   C39   A    
C48   O3    S    
C58   N1    S    
C40   N1    A    
Cu1   O1    S    
C16   O8    A    
C7    C9    A    
C15   C62   A    
C8    C10   A    
Cu1   O11   S    
Br1   C29   S    
C35   Cl1   S    
Br5   C24   S    
C23   C45   A    
Br2   C30   S    
Cu2   N5    S    
C5    C11   A    
C42   H20   S    
C31   H16   S    
C29   C31   A    
C20   C22   A    
C11   C14   A    
C22   C25   A    
C12   C21   S    
C25   H15   S    
C20   C31   A    
C4    C17   S    
C19   H13   S    
C1    O6    A    
C40   O12   S    
C49   C51   A    
C24   C26   A    
C47   O4    S    
C55   Cl3   S    
C1    C20   S    
C6    C13   A    
C30   C32   A    
C27   C29   A    
C33   Cl2   S    
C50   C52   A    
C28   C30   A    
C18   H11   S    
C9    C34   A    
C17   O11   A    
C16   O10   A    
C57   Cl4   S    
C44   N5    A    
Cu2   O6    S    
C14   H7    S    
N7    N8    D    
C48   N2    A    
C2    C34   A    
C3    C53   A    
C38   C42   A    
C52   Cl5   S    
C13   C15   A    
