data_mof_unit_53758.cif
_audit_creation_date              2012-12-10T17:05:44-0500
_audit_creation_method            fapswitch 2.2
_symmetry_space_group_name_H-M    P1
_symmetry_Int_Tables_number       1
_space_group_crystal_system       triclinic
_cell_length_a                    15.870259
_cell_length_b                    11.010663
_cell_length_c                    9.850676
_cell_angle_alpha                 110.759809
_cell_angle_beta                  98.314197
_cell_angle_gamma                 91.413215
_cell_volume                      1587.28283992

loop_
_atom_site_label
_atom_site_type_symbol
_atom_type_description
_atom_site_fract_x
_atom_site_fract_y
_atom_site_fract_z
_atom_type_partial_charge
C1    C     C_R   0.496821 0.254227 0.441184 0.870787
C2    C     C_3   0.957958 0.423511 0.591774 -0.471855
C3    C     C_3   0.917237 0.501842 0.499492 0.101859
C4    C     C_3   0.957914 0.644058 0.567893 -0.398933
C5    C     C_3   0.056920 0.648090 0.571937 0.712153
C6    C     C_1   0.824841 0.500165 0.497734 -0.019979
C7    C     C_1   0.175599 0.503241 0.503629 0.003116
C8    C     C_1   0.251047 0.501868 0.503238 -0.171059
C9    C     C_2   0.498219 0.114792 0.409770 -0.464111
C10   C     C_2   0.539331 0.068822 0.508029 0.542604
C11   C     C_2   0.520186 0.886353 0.592255 0.283189
C12   C     C_R   0.340379 0.500231 0.501006 0.795615
C13   C     C_2   0.523484 0.929859 0.481746 -0.390367
C14   C     C_2   0.506517 0.516588 0.085658 0.602561
C15   C     C_2   0.485856 0.505674 0.925477 -0.127228
C16   C     C_R   0.508038 0.746028 0.558906 0.747407
C17   C     C_R   0.659691 0.500029 0.499076 0.824978
C18   C     C_3   0.056021 0.422362 0.592440 0.188152
C19   C     C_3   0.034428 0.439723 0.340357 0.299174
C20   C     C_3   0.936553 0.440332 0.340590 -0.399254
C21   C     C_1   0.749228 0.499805 0.497406 -0.172935
C22   C     C_3   0.083134 0.504245 0.502195 0.082740
Cu1   Cu    Cu3+1 0.514650 0.521810 0.644910 0.968133
Cu2   Cu    Cu3+1 0.485350 0.478190 0.355090 0.997793
H1    H     H_    0.927379 0.322044 0.546238 0.214542
H2    H     H_    0.089688 0.469879 0.708153 0.087934
H3    H     H_    0.945625 0.467465 0.706950 0.146388
H4    H     H_    0.928627 0.700779 0.502044 0.201878
H5    H     H_    0.509405 0.863060 0.367919 0.144656
H6    H     H_    0.463011 0.048357 0.305586 0.111193
H7    H     H_    0.427698 0.449924 0.858003 0.197055
H8    H     H_    0.595477 0.597271 0.921691 0.203946
H9    H     H_    0.048998 0.335234 0.297092 0.111005
H10   H     H_    0.906574 0.338586 0.288836 0.147825
H11   H     H_    0.907193 0.495313 0.272787 0.207621
H12   H     H_    0.941713 0.691381 0.680047 0.146667
N1    N     N_2   0.463320 0.445430 0.137380 -0.025404
N2    N     N_2   0.536720 0.554500 0.862620 -0.308883
O1    O     O_R   0.507820 0.332330 0.577400 -0.511088
O2    O     O_R   0.483070 0.295500 0.332660 -0.630899
O3    O     O_R   0.391820 0.518430 0.622420 -0.575699
O4    O     O_R   0.367070 0.481600 0.377680 -0.569497
O5    O     O_R   0.516930 0.704500 0.667340 -0.556424
O6    O     O_R   0.492180 0.667670 0.422600 -0.563188
O7    O     O_R   0.632930 0.518400 0.622320 -0.579241
O8    O     O_R   0.608180 0.481570 0.377580 -0.527058
O9    O     O_3   0.587191 0.152916 0.639082 -0.520460
C23   C     C_3   0.674007 0.124873 0.646684 0.152005
H13   H     H_    0.684240 0.021473 0.583807 0.125944
H14   H     H_    0.700573 0.143649 0.763590 0.175302
C24   C     C_3   0.724559 0.214850 0.594980 -0.869482
H15   H     H_    0.720455 0.317885 0.665446 0.268402
H16   H     H_    0.792719 0.193429 0.602852 0.205547
H17   H     H_    0.698790 0.200312 0.478853 0.233781
O10   O     O_3   0.538336 0.970759 0.737704 -0.550864
C25   C     C_3   0.465150 0.977621 0.805935 0.123344
H18   H     H_    0.413884 0.897212 0.746564 0.110574
H19   H     H_    0.436932 0.070290 0.813090 0.161542
C26   C     C_3   0.491725 0.976687 0.960385 -0.793029
H20   H     H_    0.538982 0.060422 0.026066 0.246942
H21   H     H_    0.434894 0.983818 0.015791 0.187200
H22   H     H_    0.520780 0.884657 0.954775 0.257761
O11   O     O_3   0.574123 0.599237 0.179466 -0.726402
H23   H     H_    0.581651 0.674132 0.147928 0.278387
O12   O     O_3   0.077940 0.291941 0.529433 -0.573586
C27   C     C_3   0.101052 0.238782 0.639463 0.043477
H24   H     H_    0.050781 0.249129 0.710061 0.141433
H25   H     H_    0.162750 0.287987 0.708991 0.152588
C28   C     C_3   0.112555 0.094568 0.567052 -0.730269
H26   H     H_    0.163255 0.081336 0.497417 0.241689
H27   H     H_    0.131408 0.052286 0.652877 0.215751
H28   H     H_    0.051744 0.042350 0.497487 0.259158
O13   O     O_3   0.384058 0.400998 0.060588 -0.546464
C29   C     C_3   0.365594 0.275702 0.061250 0.210852
H29   H     H_    0.343121 0.281477 0.164483 0.179443
H30   H     H_    0.422212 0.217877 0.047641 0.140959
C30   C     C_3   0.294035 0.204666 0.934381 -0.942018
H31   H     H_    0.311840 0.202580 0.828647 0.252786
H32   H     H_    0.281997 0.103027 0.928605 0.220274
H33   H     H_    0.234490 0.254817 0.951245 0.247056
O14   O     O_3   0.057212 0.509429 0.252168 -0.537495
C31   C     C_3   0.097637 0.431033 0.136621 0.054716
H34   H     H_    0.053078 0.347141 0.060364 0.124991
H35   H     H_    0.156195 0.394471 0.180744 0.150903
C32   C     C_3   0.123726 0.512340 0.050532 -0.734362
H36   H     H_    0.167548 0.597638 0.124661 0.265393
H37   H     H_    0.157119 0.452759 0.961070 0.183296
H38   H     H_    0.066289 0.547136 0.001305 0.229268
O15   O     O_3   0.100744 0.709924 0.717734 -0.760073
H39   H     H_    0.073113 0.679451 0.785254 0.294164
O16   O     O_3   0.077557 0.722669 0.489099 -0.671819
H40   H     H_    0.140520 0.742143 0.509362 0.343524

loop_
_geom_bond_atom_site_label_1
_geom_bond_atom_site_label_2
_ccdc_geom_bond_type
C27   H25   S    
O10   C25   S    
C4    H12   S    
Cu1   O7    S    
C2    C18   S    
Cu2   O4    S    
O13   C29   S    
C19   C20   S    
C18   H2    S    
C3    C6    S    
O14   C31   S    
C7    C8    T    
C30   H31   S    
C18   O12   S    
C29   H30   S    
C7    C22   S    
C13   H5    S    
C17   O7    A    
C30   H33   S    
C27   C28   S    
Cu1   O5    S    
C25   H18   S    
C28   H27   S    
C12   O4    A    
C1    O2    A    
C20   H11   S    
C23   C24   S    
C5    C22   S    
C29   C30   S    
Cu1   Cu2   S    
C2    H3    S    
H8    N2    S    
C9    C10   D    
C16   O6    A    
C20   H10   S    
C23   H14   S    
C27   H24   S    
C26   H20   S    
C4    H4    S    
C30   H32   S    
C26   H21   S    
C29   H29   S    
C32   H37   S    
C24   H15   S    
C19   C22   S    
C1    C9    S    
C17   O8    A    
C19   H9    S    
O16   H40   S    
C32   H36   S    
C6    C21   T    
C17   C21   S    
C24   H16   S    
C28   H28   S    
C15   N2    D    
C12   O3    A    
C11   C16   S    
O9    C23   S    
C8    C12   S    
Cu2   N1    S    
C3    C20   S    
C16   O5    A    
C5    O16   S    
C9    H6    S    
C23   H13   S    
O12   C27   S    
C31   H35   S    
Cu2   O6    S    
C3    C4    S    
Cu1   N2    S    
C11   O10   S    
C32   H38   S    
N1    O13   S    
C26   H22   S    
C18   C22   S    
C4    C5    S    
C10   C13   S    
C15   H7    S    
C31   C32   S    
Cu1   O3    S    
C25   C26   S    
C24   H17   S    
Cu2   O8    S    
C2    C3    S    
C14   N1    D    
C11   C13   D    
Cu1   O1    S    
C14   O11   S    
Cu2   O2    S    
C25   H19   S    
C2    H1    S    
C28   H26   S    
C1    O1    A    
O11   H23   S    
C31   H34   S    
C10   O9    S    
C14   C15   S    
O15   H39   S    
C19   O14   S    
C5    O15   S    
