data_mof_unit_56788.cif
_audit_creation_date              2012-10-26T19:58:10-0400
_audit_creation_method            fapswitch 2.2
_symmetry_space_group_name_H-M    P1
_symmetry_Int_Tables_number       1
_space_group_crystal_system       triclinic
_cell_length_a                    7.414904
_cell_length_b                    8.704883
_cell_length_c                    13.395367
_cell_angle_alpha                 93.734472
_cell_angle_beta                  77.495773
_cell_angle_gamma                 102.038135
_cell_volume                      825.363533618

loop_
_atom_site_label
_atom_site_type_symbol
_atom_type_description
_atom_site_fract_x
_atom_site_fract_y
_atom_site_fract_z
_atom_type_partial_charge
C1    C     C_R   0.545171 0.798994 0.499159 0.579906
C2    C     C_R   0.336711 0.493137 0.806467 -0.015458
C3    C     C_2   0.572598 0.962430 0.481988 0.031256
C4    C     C_R   0.399379 0.497587 0.694412 0.503062
C5    C     C_2   0.429400 0.036769 0.517684 0.246839
C6    C     C_R   0.456146 0.200650 0.498899 0.564662
C7    C     C_R   0.601509 0.510955 0.305890 0.551090
C8    C     C_R   0.875198 0.676217 0.053076 -0.122120
C9    C     C_R   0.661762 0.536209 0.195712 0.000580
C10   C     C_R   0.154415 0.411592 0.847802 -0.148589
C11   C     C_R   0.101268 0.379431 0.951284 -0.140236
C12   C     C_R   0.416913 0.504292 0.975327 0.027995
C13   C     C_R   0.230985 0.421891 0.014259 -0.123744
C14   C     C_3   0.227434 0.016109 0.676387 0.008970
C15   C     C_3   0.320909 0.931609 0.741987 -0.284649
C16   C     C_3   0.301424 0.000641 0.850627 -0.480465
C17   C     C_R   0.463559 0.552012 0.872092 0.025477
C18   C     C_R   0.557675 0.542250 0.035443 0.026140
C19   C     C_R   0.735464 0.637657 0.994539 0.049321
C20   C     C_R   0.770066 0.697270 0.896801 -0.143361
C21   C     C_R   0.635086 0.657905 0.837295 -0.127066
C22   C     C_R   0.527517 0.488241 0.135185 -0.129233
C23   C     C_R   0.838054 0.626602 0.153624 -0.127295
Cu1   Cu    Cu3+1 0.321300 0.483160 0.488710 1.004993
Cu2   Cu    Cu3+1 0.678700 0.516840 0.511290 0.984526
H1    H     H_    0.943342 0.664806 0.199628 0.148683
H2    H     H_    0.666130 0.714481 0.764374 0.138750
H3    H     H_    0.073004 0.991437 0.707708 0.149502
H4    H     H_    0.274570 0.145758 0.683261 0.134941
H5    H     H_    0.254181 0.804763 0.744816 0.166420
H6    H     H_    0.473329 0.942799 0.707556 0.155527
H7    H     H_    0.378768 0.124657 0.849566 0.167708
H8    H     H_    0.361898 0.931902 0.897374 0.155899
H9    H     H_    0.150918 0.996490 0.886699 0.142891
H10   H     H_    0.007732 0.611524 0.582332 0.255403
H11   H     H_    0.993991 0.392305 0.415933 0.262541
H12   H     H_    0.902079 0.775077 0.866044 0.102524
H13   H     H_    0.011201 0.748672 0.022011 0.118870
H14   H     H_    0.398271 0.411093 0.169140 0.124620
H15   H     H_    0.054332 0.367862 0.799441 0.135580
H16   H     H_    0.179432 0.391323 0.093395 0.116176
H17   H     H_    0.959851 0.316839 0.982492 0.132408
I1    I     I_    0.832464 0.056222 0.380503 -0.362268
N1    N     N_2   0.947230 0.542220 0.528320 -0.241822
N2    N     N_2   0.052770 0.457780 0.471680 -0.244260
O1    O     O_R   0.383920 0.714220 0.492660 -0.459549
O2    O     O_R   0.685730 0.742660 0.511730 -0.487436
O3    O     O_R   0.275440 0.478800 0.636790 -0.522011
O4    O     O_R   0.577250 0.507240 0.655860 -0.511328
O5    O     O_R   0.314270 0.257340 0.488270 -0.465899
O6    O     O_R   0.616080 0.285780 0.507340 -0.512727
O7    O     O_R   0.422750 0.492760 0.344140 -0.505715
O8    O     O_R   0.724560 0.521200 0.363210 -0.500389
O9    O     O_3   0.257584 0.958284 0.573871 -0.557639

loop_
_geom_bond_atom_site_label_1
_geom_bond_atom_site_label_2
_ccdc_geom_bond_type
C12   C17   A    
Cu1   O7    S    
C2    C4    S    
Cu2   O6    S    
C15   H6    S    
H10   N1    S    
C16   H8    S    
C16   H7    S    
Cu2   O2    S    
C19   C20   A    
C4    O4    A    
Cu1   O1    S    
C20   C21   A    
C13   H16   S    
C21   H2    S    
H11   N2    S    
C6    O5    A    
C2    C17   A    
C20   H12   S    
C11   C13   A    
C3    I1    S    
C1    O1    A    
C8    H13   S    
C11   H17   S    
Cu1   N2    S    
Cu2   N1    S    
C14   O9    S    
Cu2   O8    S    
C7    O7    A    
Cu1   O5    S    
C5    C6    S    
C6    O6    A    
Cu2   O4    S    
C9    C22   A    
C8    C19   A    
C10   C11   A    
C22   H14   S    
C14   H4    S    
C14   H3    S    
C12   C13   A    
Cu1   O3    S    
C3    C5    D    
C5    O9    S    
C8    C23   A    
Cu1   Cu2   S    
C15   H5    S    
C10   H15   S    
C18   C19   A    
C4    O3    A    
C23   H1    S    
C12   C18   A    
C7    C9    S    
C7    O8    A    
C14   C15   S    
C1    O2    A    
C16   H9    S    
C18   C22   A    
C2    C10   A    
C9    C23   A    
N1    N2    D    
C15   C16   S    
C1    C3    S    
C17   C21   A    
