data_mof_unit_49501.cif
_audit_creation_date              2012-12-11T14:14:08-0500
_audit_creation_method            fapswitch 2.2
_symmetry_space_group_name_H-M    P1
_symmetry_Int_Tables_number       1
_space_group_crystal_system       triclinic
_cell_length_a                    17.01164
_cell_length_b                    7.25246
_cell_length_c                    17.005781
_cell_angle_alpha                 89.954841
_cell_angle_beta                  99.432757
_cell_angle_gamma                 89.93081
_cell_volume                      2069.73742711

loop_
_atom_site_label
_atom_site_type_symbol
_atom_type_description
_atom_site_fract_x
_atom_site_fract_y
_atom_site_fract_z
_atom_type_partial_charge
O1    O     O_R   0.414560 0.494370 0.416770 -0.529486
O2    O     O_R   0.585440 0.994370 0.583230 -0.528658
O3    O     O_R   0.578370 0.819590 0.429320 -0.531470
O4    O     O_R   0.421630 0.319590 0.570680 -0.531915
C1    C     C_R   0.602531 0.654981 0.411806 0.742339
C2    C     C_R   0.397393 0.155051 0.588112 0.741332
O5    O     O_R   0.414740 0.823790 0.407360 -0.539756
O6    O     O_R   0.585260 0.323790 0.592640 -0.540382
O7    O     O_R   0.420650 0.998510 0.561120 -0.537046
O8    O     O_R   0.579350 0.498510 0.438880 -0.537073
C3    C     C_R   0.390230 0.654675 0.383623 0.702081
C4    C     C_R   0.609715 0.154272 0.616499 0.703685
O9    O     O_3   0.502130 0.662240 0.550470 -0.370345
O10   O     O_3   0.497870 0.162240 0.449530 -0.370146
V1    V     V_3+5 0.499600 0.935390 0.490640 1.537579
V2    V     V_3+5 0.500400 0.435390 0.509360 1.535858
C5    C     C_2   0.772906 0.259987 0.796598 0.227846
C6    C     C_2   0.223615 0.763474 0.207201 0.227203
C7    C     C_2   0.825513 0.119303 0.813743 -0.287327
C8    C     C_2   0.174642 0.617830 0.186364 -0.286765
H1    H     H_    0.824542 0.007500 0.771088 0.158014
H2    H     H_    0.178950 0.499459 0.226079 0.159991
C9    C     C_2   0.718436 0.269180 0.719096 -0.181607
C10   C     C_2   0.278249 0.767388 0.284626 -0.185148
C11   C     C_2   0.665648 0.136118 0.692403 0.024015
C12   C     C_2   0.334408 0.638696 0.307737 0.026398
H3    H     H_    0.719296 0.395307 0.684761 0.148926
H4    H     H_    0.274610 0.887112 0.322223 0.145084
C13   C     C_R   0.335270 0.144424 0.639606 -0.129061
C14   C     C_R   0.664663 0.643906 0.360349 -0.129216
C15   C     C_R   0.164476 0.123356 0.860900 -0.129210
C16   C     C_R   0.835722 0.624052 0.139326 -0.128878
C17   C     C_R   0.304821 0.163768 0.854470 0.223675
C18   C     C_R   0.696043 0.675054 0.146071 0.223878
C19   C     C_R   0.241659 0.164427 0.897218 -0.206663
C20   C     C_R   0.759350 0.674268 0.103568 -0.203716
C21   C     C_R   0.149159 0.082265 0.778707 0.122609
C22   C     C_R   0.850164 0.576172 0.220901 0.122618
C23   C     C_R   0.209932 0.113441 0.730884 -0.004906
C24   C     C_R   0.789764 0.609140 0.268995 -0.004818
C25   C     C_R   0.289821 0.154676 0.769615 -0.018907
C26   C     C_R   0.710641 0.659085 0.230721 -0.018952
C27   C     C_R   0.350585 0.185835 0.721779 0.127363
C28   C     C_R   0.650226 0.691911 0.278788 0.127847
C29   C     C_R   0.258068 0.103720 0.603258 -0.224530
C30   C     C_R   0.741121 0.594771 0.396244 -0.222970
C31   C     C_R   0.194918 0.104535 0.646024 0.231624
C32   C     C_R   0.804403 0.593707 0.353679 0.230734
H5    H     H_    0.245758 0.088513 0.538984 0.145255
H6    H     H_    0.753013 0.574323 0.460272 0.145647
H7    H     H_    0.253971 0.180174 0.961438 0.171776
H8    H     H_    0.747484 0.696157 0.039678 0.172401
O11   O     O_R   0.920750 0.773600 0.061260 -0.535487
O12   O     O_R   0.079250 0.273600 0.938740 -0.534816
O13   O     O_R   0.085340 0.439850 0.092570 -0.528997
O14   O     O_R   0.914660 0.939850 0.907430 -0.529701
C33   C     C_R   0.112234 0.608823 0.114542 0.762056
C34   C     C_R   0.887690 0.108998 0.885616 0.762750
O15   O     O_R   0.921720 0.444130 0.070790 -0.525535
O16   O     O_R   0.078280 0.944130 0.929210 -0.526604
O17   O     O_R   0.914480 0.269530 0.916840 -0.527368
O18   O     O_R   0.085520 0.769530 0.083160 -0.526844
C35   C     C_R   0.897828 0.612855 0.087796 0.743728
C36   C     C_R   0.102313 0.112754 0.912370 0.743722
O19   O     O_3   0.997840 0.601520 0.949550 -0.372637
O20   O     O_3   0.002160 0.101520 0.050450 -0.370738
V3    V     V_3+5 0.000400 0.328340 0.009360 1.563515
V4    V     V_3+5 0.999600 0.828340 0.990640 1.561308
I1    I     I_    0.761000 0.482065 0.875377 -0.284080
I2    I     I_    0.228406 0.004085 0.136464 -0.290198
I3    I     I_    0.041429 0.931345 0.738448 -0.301641
I4    I     I_    0.955505 0.414775 0.259553 -0.297129
I5    I     I_    0.648211 0.900804 0.762956 -0.261752
I6    I     I_    0.357818 0.418488 0.231828 -0.254196
I7    I     I_    0.458060 0.337941 0.761878 -0.229011
I8    I     I_    0.545163 0.854474 0.240278 -0.228796
I9    I     I_    0.416217 0.119638 0.930462 -0.153129
I10   I     I_    0.584333 0.643143 0.069252 -0.150567
I11   I     I_    0.083588 0.149635 0.570080 -0.227290
I12   I     I_    0.916119 0.626303 0.430381 -0.227392

loop_
_geom_bond_atom_site_label_1
_geom_bond_atom_site_label_2
_ccdc_geom_bond_type
C6    I2    S    
C5    I1    S    
O1    C3    A    
C31   I11   S    
O2    C4    A    
C2    O7    A    
C33   O18   A    
C23   C25   A    
O5    C3    A    
C5    C9    S    
C6    C10   S    
C16   C20   A    
C7    H1    S    
C10   C12   D    
C17   C19   A    
C6    C8    D    
C28   I8    S    
O11   V4    S    
O15   V3    S    
C18   C26   A    
C16   C22   A    
C11   I5    S    
C20   H8    S    
C34   O17   A    
O5    V1    S    
O20   V3    S    
O6    V2    S    
C13   C27   A    
C25   C27   A    
C14   C28   A    
C26   C28   A    
C30   C32   A    
C29   C31   A    
C7    C34   S    
C27   I7    S    
C22   I4    S    
O4    C2    A    
C5    C7    D    
O12   V3    S    
C3    C12   S    
O14   V4    S    
C15   C21   A    
C13   C29   A    
O4    V2    S    
O17   V3    S    
C29   H5    S    
O6    C4    A    
O19   V4    S    
O1    V2    S    
O2    V1    S    
C8    H2    S    
C9    H3    S    
O13   C33   A    
C19   H7    S    
C15   C19   A    
O3    V1    S    
C23   C31   A    
C1    C14   S    
C24   C32   A    
C15   C36   S    
C14   C30   A    
C10   H4    S    
C16   C35   S    
O3    C1    A    
O13   V3    S    
C30   H6    S    
O15   C35   A    
O18   V4    S    
C4    C11   S    
O16   C36   A    
C17   C25   A    
C32   I12   S    
C21   I3    S    
O7    V1    S    
C1    O8    A    
C21   C23   A    
O8    V2    S    
C18   I10   S    
C22   C24   A    
O11   C35   A    
C17   I9    S    
O12   C36   A    
C24   C26   A    
C12   I6    S    
O14   C34   A    
C18   C20   A    
C9    C11   D    
C2    C13   S    
O16   V4    S    
O9    V2    S    
O10   V1    S    
C8    C33   S    
