data_mof_unit_51601.cif
_audit_creation_date              2012-12-10T18:50:44-0500
_audit_creation_method            fapswitch 2.2
_symmetry_space_group_name_H-M    P1
_symmetry_Int_Tables_number       1
_space_group_crystal_system       triclinic
_cell_length_a                    10.633386
_cell_length_b                    9.855523
_cell_length_c                    15.736022
_cell_angle_alpha                 89.894954
_cell_angle_beta                  90.239844
_cell_angle_gamma                 90.069138
_cell_volume                      1649.07862335

loop_
_atom_site_label
_atom_site_type_symbol
_atom_type_description
_atom_site_fract_x
_atom_site_fract_y
_atom_site_fract_z
_atom_type_partial_charge
C1    C     C_R   0.260376 0.499918 0.499776 0.881594
C2    C     C_3   0.648634 0.480855 0.949153 -0.391836
C3    C     C_3   0.653489 0.480532 0.048703 0.439694
C4    C     C_1   0.508185 0.499379 0.825953 -0.107973
C5    C     C_1   0.509145 0.499886 0.174276 -0.108673
C6    C     C_1   0.504568 0.500209 0.249495 -0.197515
C7    C     C_R   0.065611 0.434589 0.433998 -0.194828
C8    C     C_R   0.066709 0.564976 0.565530 -0.188130
C9    C     C_R   0.935924 0.435557 0.432419 0.156083
C10   C     C_R   0.937104 0.564374 0.567096 0.158070
C11   C     C_R   0.872608 0.500117 0.499758 -0.045885
C12   C     C_R   0.128535 0.499754 0.499765 -0.094588
C13   C     C_R   0.575247 0.071853 0.554797 -0.069255
C14   C     C_R   0.575112 0.928085 0.554870 -0.067107
C15   C     C_R   0.500301 0.500095 0.338277 0.900680
C16   C     C_R   0.424674 0.928166 0.445160 -0.066366
C17   C     C_R   0.424632 0.071963 0.445185 -0.067247
C18   C     C_R   0.739741 0.500057 0.499901 0.897563
C19   C     C_R   0.500576 0.499892 0.661775 0.900882
C20   C     C_3   0.457050 0.633961 0.048872 -0.447489
C21   C     C_3   0.428101 0.383277 0.049263 -0.448815
C22   C     C_3   0.430282 0.380740 0.951378 -0.408261
C23   C     C_3   0.459847 0.635514 0.950971 -0.409405
C24   C     C_1   0.504458 0.499627 0.750655 -0.191251
C25   C     C_3   0.514189 0.499149 0.082703 0.357254
C26   C     C_3   0.511673 0.499139 0.917398 0.300771
H1    H     H_    0.363112 0.653160 0.925963 0.177120
H2    H     H_    0.332433 0.389104 0.926445 0.177313
H3    H     H_    0.364398 0.873830 0.401324 0.129394
H4    H     H_    0.364305 0.126406 0.401380 0.126526
H5    H     H_    0.357821 0.643862 0.070406 0.176486
H6    H     H_    0.329652 0.399706 0.070850 0.175644
H7    H     H_    0.456444 0.282985 0.075281 0.176312
H8    H     H_    0.507286 0.723884 0.074649 0.176748
H9    H     H_    0.468885 0.281964 0.929369 0.171735
H10   H     H_    0.519904 0.720986 0.928722 0.171555
H11   H     H_    0.708126 0.563445 0.922264 0.160120
H12   H     H_    0.687314 0.384883 0.922660 0.159825
H13   H     H_    0.118034 0.385811 0.383559 0.138593
H14   H     H_    0.119950 0.613663 0.615965 0.144020
H15   H     H_    0.635482 0.126191 0.598660 0.129110
H16   H     H_    0.634962 0.873763 0.598949 0.122004
N1    N     N_R   0.499970 0.857200 0.499980 -0.080089
N2    N     N_R   0.499970 0.142800 0.499980 -0.080937
O1    O     O_R   0.316750 0.614620 0.499990 -0.618533
O2    O     O_R   0.316750 0.385380 0.499990 -0.616990
O3    O     O_R   0.499990 0.614720 0.377140 -0.614982
O4    O     O_R   0.499990 0.385280 0.377140 -0.618160
O5    O     O_R   0.683220 0.614710 0.500000 -0.617419
O6    O     O_R   0.683220 0.385290 0.500000 -0.621831
O7    O     O_R   0.499980 0.614620 0.622860 -0.616749
O8    O     O_R   0.499980 0.385380 0.622860 -0.614883
Zn1   Zn    Zn3+2 0.499980 0.653120 0.500000 0.946735
Zn2   Zn    Zn3+2 0.499980 0.346880 0.500000 0.944676
C27   C     C_3   0.741347 0.596576 0.079629 -0.917779
H17   H     H_    0.839445 0.578388 0.058375 0.238090
H18   H     H_    0.712953 0.696340 0.053163 0.224054
H19   H     H_    0.742351 0.603332 0.150075 0.247150
C28   C     C_3   0.712435 0.345222 0.080190 -0.919256
H20   H     H_    0.662188 0.255694 0.054213 0.223725
H21   H     H_    0.811648 0.337022 0.058838 0.238152
H22   H     H_    0.712087 0.338938 0.150672 0.249902
C29   C     C_3   0.867537 0.371492 0.358207 -0.896150
H23   H     H_    0.933784 0.335895 0.308623 0.230846
H24   H     H_    0.812441 0.282434 0.380049 0.262269
H25   H     H_    0.803318 0.446671 0.328317 0.227798
C30   C     C_3   0.870088 0.628721 0.641274 -0.910478
H26   H     H_    0.937107 0.663244 0.691105 0.231515
H27   H     H_    0.816189 0.718531 0.619397 0.251660
H28   H     H_    0.805053 0.554208 0.670796 0.227193

loop_
_geom_bond_atom_site_label_1
_geom_bond_atom_site_label_2
_ccdc_geom_bond_type
C4    C26   S    
C27   H17   S    
C29   H24   S    
C11   C18   S    
C17   H4    S    
C23   H1    S    
C2    H12   S    
C16   N1    A    
C20   C23   S    
C15   O3    A    
C8    C12   A    
C30   H28   S    
C20   H8    S    
C14   H16   S    
O2    Zn2   S    
C13   H15   S    
C2    C3    S    
C16   H3    S    
C29   H25   S    
O1    Zn1   S    
C28   H20   S    
C2    C26   S    
C22   H2    S    
C10   C30   S    
O4    Zn2   S    
C22   H9    S    
C9    C11   A    
C2    H11   S    
C1    O1    A    
O6    Zn2   S    
C1    C12   S    
C15   O4    A    
C19   O7    A    
C5    C25   S    
O3    Zn1   S    
C7    H13   S    
O8    Zn2   S    
C19   C24   S    
C7    C9    A    
C27   H18   S    
C22   C26   S    
C7    C12   A    
C4    C24   T    
C21   H6    S    
O5    Zn1   S    
C1    O2    A    
C28   H21   S    
C21   H7    S    
C20   C25   S    
O7    Zn1   S    
C30   H26   S    
N2    Zn2   S    
C3    C25   S    
C18   O6    A    
C8    C10   A    
C23   H10   S    
C10   C11   A    
C23   C26   S    
C5    C6    T    
C27   H19   S    
C16   C17   A    
C28   H22   S    
C21   C25   S    
C8    H14   S    
C13   C14   A    
C17   N2    A    
C6    C15   S    
C21   C22   S    
C9    C29   S    
C3    C27   S    
C19   O8    A    
N1    Zn1   S    
C13   N2    A    
C29   H23   S    
C18   O5    A    
C14   N1    A    
C30   H27   S    
C20   H5    S    
C3    C28   S    
