data_mof_unit_23107.cif
_audit_creation_date              2012-12-11T14:30:46-0500
_audit_creation_method            fapswitch 2.2
_symmetry_space_group_name_H-M    P1
_symmetry_Int_Tables_number       1
_space_group_crystal_system       triclinic
_cell_length_a                    17.605149
_cell_length_b                    24.554622
_cell_length_c                    14.937898
_cell_angle_alpha                 89.999458
_cell_angle_beta                  125.283938
_cell_angle_gamma                 89.99976
_cell_volume                      5271.23047594

loop_
_atom_site_label
_atom_site_type_symbol
_atom_type_description
_atom_site_fract_x
_atom_site_fract_y
_atom_site_fract_z
_atom_type_partial_charge
C1    C     C_R   0.857192 0.653799 0.908806 -0.212056
C2    C     C_R   0.930708 0.498356 0.630880 -0.096593
C3    C     C_3   0.377367 0.730961 0.705105 -0.783691
C4    C     C_3   0.895515 0.611088 0.263707 0.260774
C5    C     C_3   0.808441 0.593324 0.151648 -0.384711
C6    C     C_3   0.719736 0.613966 0.135921 -0.922500
C7    C     C_3   0.955144 0.617616 0.596849 0.252850
C8    C     C_3   0.060121 0.607179 0.653821 -0.399089
C9    C     C_3   0.104287 0.651257 0.625686 -0.754412
C10   C     C_3   0.544973 0.117622 0.403212 0.252985
C11   C     C_3   0.439985 0.107235 0.346250 -0.399137
C12   C     C_3   0.395892 0.151326 0.374458 -0.754673
C13   C     C_R   0.569297 0.998350 0.369122 -0.096466
C14   C     C_3   0.604531 0.111079 0.736348 0.260803
C15   C     C_3   0.691587 0.093318 0.848426 -0.384667
C16   C     C_3   0.780308 0.113949 0.864179 -0.922663
C17   C     C_3   0.667827 0.629347 0.654458 0.161512
C18   C     C_3   0.665353 0.686297 0.611077 -0.240834
C19   C     C_3   0.601192 0.724294 0.619750 -0.947461
C20   C     C_3   0.307492 0.588315 0.436236 0.087564
C21   C     C_3   0.216663 0.579488 0.425882 -0.306564
C22   C     C_3   0.231287 0.584787 0.536446 -0.931437
C23   C     C_3   0.192547 0.088305 0.563787 0.087399
C24   C     C_R   0.520119 0.000435 0.693953 -0.064212
C25   C     C_3   0.283397 0.079503 0.574181 -0.306523
C26   C     C_3   0.268818 0.084846 0.463647 -0.931484
C27   C     C_3   0.832352 0.129285 0.345007 0.160990
C28   C     C_3   0.835214 0.186265 0.388525 -0.240626
C29   C     C_3   0.899234 0.224150 0.379375 -0.947077
C30   C     C_3   0.078524 0.716365 0.184872 0.257400
C31   C     C_3   0.174577 0.721342 0.293325 -0.333373
C32   C     C_3   0.229906 0.768730 0.291882 -0.891432
C33   C     C_3   0.997374 0.720259 0.820724 0.197760
C34   C     C_3   0.929035 0.744863 0.707036 -0.306787
C35   C     C_R   0.695041 0.499964 0.639950 -0.028180
C36   C     C_3   0.891879 0.799773 0.713462 -0.924306
C37   C     C_3   0.502551 0.220342 0.179327 0.197722
C38   C     C_3   0.571335 0.244790 0.293049 -0.306508
C39   C     C_3   0.608305 0.299767 0.286615 -0.924715
C40   C     C_3   0.421466 0.216379 0.815062 0.257340
C41   C     C_3   0.325409 0.221347 0.706611 -0.333453
C42   C     C_3   0.270090 0.268751 0.708022 -0.891357
C43   C     C_R   0.324638 0.499972 0.306366 -0.061247
C44   C     C_R   0.175361 0.999985 0.693687 -0.061340
C45   C     C_R   0.805014 0.999953 0.359988 -0.028439
C46   C     C_3   0.544190 0.444943 0.482565 -0.321227
C47   C     C_3   0.499568 0.474468 0.370463 -0.372627
C48   C     C_3   0.000393 0.974577 0.629594 -0.372707
C49   C     C_R   0.177487 0.638575 0.093088 -0.223710
C50   C     C_3   0.955802 0.944942 0.517604 -0.321346
C51   C     C_3   0.468198 0.468501 0.491656 0.932691
C52   C     C_3   0.559599 0.525324 0.431629 0.922084
C53   C     C_3   0.940389 0.025411 0.568220 0.922180
C54   C     C_3   0.031838 0.968406 0.508495 0.932679
C55   C     C_3   0.424893 0.498017 0.382787 -0.051522
C56   C     C_3   0.601910 0.496624 0.540921 -0.034745
C57   C     C_3   0.898116 0.996606 0.459044 -0.034600
C58   C     C_3   0.075108 0.998033 0.617248 -0.051591
C59   C     C_3   0.483716 0.548949 0.440779 -0.383815
C60   C     C_R   0.322563 0.138614 0.906914 -0.223567
C61   C     C_3   0.525940 0.519085 0.551052 -0.442844
C62   C     C_3   0.974125 0.018966 0.448892 -0.442644
C63   C     C_3   0.016303 0.048945 0.559039 -0.383656
C64   C     C_2   0.259538 0.688380 0.944992 0.403026
C65   C     C_2   0.873247 0.764540 0.083329 0.353707
C66   C     C_2   0.626759 0.264528 0.916663 0.353597
C67   C     C_2   0.240546 0.188415 0.055007 0.402875
C68   C     C_2   0.221693 0.700935 0.998834 0.422053
C69   C     C_2   0.869158 0.743142 0.998022 0.399930
C70   C     C_2   0.630814 0.243147 0.001961 0.399981
C71   C     C_R   0.642737 0.153814 0.091188 -0.211857
C72   C     C_2   0.278394 0.200993 0.001176 0.421847
C73   C     C_2   0.679228 0.312531 0.931418 0.839054
C74   C     C_2   0.190429 0.229713 0.070659 0.750792
C75   C     C_2   0.309624 0.729699 0.929335 0.750724
C76   C     C_2   0.820778 0.812545 0.068566 0.838983
C77   C     C_R   0.916592 0.363256 0.091729 0.426309
C78   C     C_R   0.054202 0.350417 0.907132 0.456982
C79   C     C_R   0.445806 0.850413 0.092867 0.456939
C80   C     C_R   0.583410 0.863259 0.908270 0.426295
C81   C     C_2   0.770984 0.309150 0.003965 -0.327556
C82   C     C_R   0.831922 0.347002 0.002165 -0.111334
C83   C     C_2   0.133392 0.262291 0.986468 -0.364363
C84   C     C_2   0.366646 0.762281 0.013526 -0.364371
C85   C     C_2   0.729022 0.809160 0.996027 -0.327584
C86   C     C_2   0.905214 0.455594 0.380427 -0.099934
C87   C     C_2   0.895966 0.449241 0.470573 -0.130121
C88   C     C_2   0.604016 0.949230 0.529415 -0.130164
C89   C     C_2   0.594782 0.955584 0.619572 -0.099931
C90   C     C_2   0.955428 0.497401 0.382995 -0.187104
C91   C     C_2   0.882883 0.493502 0.512399 -0.117237
C92   C     C_2   0.617125 0.993487 0.487603 -0.117481
C93   C     C_R   0.114654 0.318642 0.996168 -0.097257
C94   C     C_2   0.544592 0.997400 0.617022 -0.187074
C95   C     C_R   0.992475 0.546319 0.261557 0.523980
C96   C     C_R   0.948696 0.544956 0.693906 0.593922
C97   C     C_R   0.551320 0.044954 0.306102 0.593712
C98   C     C_R   0.507542 0.046318 0.738459 0.523965
C99   C     C_R   0.744558 0.455401 0.699795 -0.102125
C100  C     C_R   0.267997 0.454909 0.263738 -0.137995
C101  C     C_R   0.232000 0.954916 0.736307 -0.137866
C102  C     C_R   0.755459 0.955394 0.300182 -0.102170
C103  C     C_R   0.007044 0.456154 0.274859 -0.162550
C104  C     C_R   0.385360 0.818638 0.003830 -0.097217
C105  C     C_R   0.949899 0.454753 0.697541 -0.151273
C106  C     C_R   0.550095 0.954751 0.302455 -0.151265
C107  C     C_R   0.492962 0.956155 0.725147 -0.162564
C108  C     C_R   0.740374 0.546504 0.699732 0.520752
C109  C     C_R   0.269022 0.545722 0.277316 0.571645
C110  C     C_R   0.230981 0.045729 0.722709 0.571737
C111  C     C_R   0.759690 0.046494 0.300202 0.521205
C112  C     C_R   0.822126 0.368136 0.911007 0.685610
C113  C     C_R   0.146437 0.350541 0.087775 0.651162
C114  C     C_R   0.353570 0.850540 0.912224 0.651161
C115  C     C_R   0.668082 0.847008 0.997832 -0.111324
C116  C     C_R   0.677877 0.868138 0.088991 0.685612
C117  C     C_R   0.954395 0.654588 0.089286 0.646333
C118  C     C_R   0.079506 0.642945 0.910751 0.545431
C119  C     C_R   0.420569 0.142987 0.089252 0.545654
C120  C     C_R   0.545583 0.154591 0.910706 0.646412
C121  C     C_R   0.892425 0.686252 0.999587 -0.207156
C122  C     C_R   0.162071 0.662537 0.001093 -0.095189
C123  C     C_R   0.338031 0.162610 0.998909 -0.095405
C124  C     C_R   0.607519 0.186263 0.000404 -0.207276
C125  C     C_3   0.043208 0.322991 0.246118 0.159252
C126  C     C_R   0.979899 0.500435 0.306064 -0.064203
C127  C     C_3   0.038327 0.264264 0.207669 -0.292731
C128  C     C_3   0.122615 0.230947 0.294871 -0.783862
C129  C     C_3   0.915106 0.320776 0.753178 0.153878
C130  C     C_3   0.906138 0.261495 0.778513 -0.319287
C131  C     C_3   0.805266 0.241981 0.707390 -0.898655
C132  C     C_3   0.584901 0.820777 0.246835 0.153910
C133  C     C_3   0.593889 0.761491 0.221547 -0.319263
C134  C     C_3   0.694766 0.741986 0.292685 -0.898938
C135  C     C_3   0.456787 0.823001 0.753879 0.159232
C136  C     C_3   0.461655 0.764273 0.792319 -0.292749
F1    F     F_    0.246597 0.638680 0.898124 -0.710514
F2    F     F_    0.212747 0.237462 0.172877 -0.655577
F3    F     F_    0.287282 0.737464 0.827111 -0.655597
F4    F     F_    0.862414 0.853893 0.142429 -0.624050
F5    F     F_    0.755405 0.354805 0.805724 -0.693710
F6    F     F_    0.198740 0.333968 0.193398 -0.680559
F7    F     F_    0.301266 0.833971 0.806600 -0.680502
F8    F     F_    0.744596 0.854800 0.194272 -0.693686
F9    F     F_    0.419050 0.439289 0.521693 -0.676472
F10   F     F_    0.609912 0.554562 0.403334 -0.686904
F11   F     F_    0.890048 0.054741 0.596361 -0.686816
F12   F     F_    0.906937 0.736469 0.177613 -0.686754
F13   F     F_    0.081007 0.939100 0.478603 -0.676420
F14   F     F_    0.593085 0.236447 0.822395 -0.686831
F15   F     F_    0.253504 0.138708 0.101858 -0.710504
F16   F     F_    0.230534 0.750934 0.043419 -0.734134
F17   F     F_    0.828185 0.771277 0.902135 -0.736091
F18   F     F_    0.671799 0.271286 0.097840 -0.736200
F19   F     F_    0.269538 0.251000 0.956609 -0.734060
F20   F     F_    0.637589 0.353879 0.857553 -0.624031
H1    H     H_    0.825754 0.669189 0.827473 0.198130
H2    H     H_    0.536165 0.535740 0.626471 0.165128
H3    H     H_    0.285749 0.555930 0.596641 0.279222
H4    H     H_    0.165253 0.575017 0.526539 0.275408
H5    H     H_    0.252369 0.627039 0.567869 0.263565
H6    H     H_    0.158834 0.126178 0.516203 0.144240
H7    H     H_    0.144328 0.054460 0.515090 0.150144
H8    H     H_    0.336130 0.109603 0.632047 0.258565
H9    H     H_    0.309245 0.037767 0.605438 0.199403
H10   H     H_    0.214363 0.056002 0.403401 0.279125
H11   H     H_    0.334866 0.075089 0.473579 0.275438
H12   H     H_    0.247749 0.127106 0.432270 0.263594
H13   H     H_    0.963961 0.035498 0.373424 0.165199
H14   H     H_    0.816573 0.131890 0.261494 0.084673
H15   H     H_    0.902778 0.112733 0.399323 0.112269
H16   H     H_    0.764556 0.204265 0.342311 0.210477
H17   H     H_    0.860752 0.183220 0.476000 0.219211
H18   H     H_    0.971188 0.207605 0.426833 0.250572
H19   H     H_    0.900698 0.264849 0.412759 0.275686
H20   H     H_    0.873433 0.228981 0.292126 0.288597
H21   H     H_    0.043384 0.755517 0.173632 0.143887
H22   H     H_    0.085331 0.711473 0.115980 0.069657
H23   H     H_    0.166654 0.727459 0.361291 0.236965
H24   H     H_    0.037629 0.092286 0.576863 0.203095
H25   H     H_    0.214050 0.683415 0.309409 0.230421
H26   H     H_    0.240707 0.762667 0.226347 0.312945
H27   H     H_    0.298982 0.771013 0.372032 0.258304
H28   H     H_    0.192625 0.807760 0.277755 0.279006
H29   H     H_    0.058214 0.748009 0.866360 0.147568
H30   H     H_    0.963343 0.717969 0.864340 0.121553
H31   H     H_    0.964890 0.750722 0.666220 0.205821
H32   H     H_    0.869677 0.716573 0.656535 0.219395
H33   H     H_    0.852359 0.794826 0.749847 0.317665
H34   H     H_    0.844393 0.816860 0.629636 0.254908
H35   H     H_    0.802639 0.275694 0.062352 0.140291
H36   H     H_    0.950087 0.828819 0.763825 0.275498
H37   H     H_    0.441668 0.248086 0.134249 0.147629
H38   H     H_    0.536134 0.218223 0.135176 0.121438
H39   H     H_    0.535907 0.250522 0.334396 0.205518
H40   H     H_    0.630735 0.216463 0.343058 0.219728
H41   H     H_    0.647170 0.294995 0.249387 0.318092
H42   H     H_    0.656346 0.316655 0.370513 0.254962
H43   H     H_    0.550062 0.328888 0.237022 0.275344
H44   H     H_    0.456611 0.255523 0.826250 0.143985
H45   H     H_    0.414667 0.211523 0.883966 0.069719
H46   H     H_    0.110685 0.249604 0.904754 0.174730
H47   H     H_    0.333333 0.227437 0.638633 0.236940
H48   H     H_    0.285929 0.183427 0.690564 0.230440
H49   H     H_    0.259299 0.262716 0.773571 0.312909
H50   H     H_    0.201011 0.271027 0.627875 0.258299
H51   H     H_    0.307375 0.307776 0.722108 0.279011
H52   H     H_    0.389368 0.749586 0.095242 0.174718
H53   H     H_    0.697367 0.775703 0.937646 0.140373
H54   H     H_    0.882942 0.422622 0.321743 0.172243
H55   H     H_    0.923005 0.411535 0.516389 0.143630
H56   H     H_    0.576946 0.911531 0.483582 0.143654
H57   H     H_    0.231742 0.649054 0.176259 0.207625
H58   H     H_    0.617039 0.922607 0.678244 0.172248
H59   H     H_    0.983172 0.528416 0.446171 0.136326
H60   H     H_    0.849840 0.528628 0.460303 0.158737
H61   H     H_    0.650198 0.028603 0.539715 0.158734
H62   H     H_    0.516861 0.028422 0.553856 0.136339
H63   H     H_    0.733055 0.414112 0.669840 0.184561
H64   H     H_    0.289667 0.412911 0.278977 0.223543
H65   H     H_    0.210323 0.912920 0.721081 0.223616
H66   H     H_    0.766956 0.914107 0.330151 0.184610
H67   H     H_    0.020721 0.416738 0.311470 0.183406
H68   H     H_    0.268301 0.149087 0.823740 0.207586
H69   H     H_    0.928462 0.413637 0.669943 0.153358
H70   H     H_    0.571524 0.913633 0.330048 0.153348
H71   H     H_    0.479281 0.916741 0.688531 0.183409
H72   H     H_    0.076612 0.322689 0.335967 0.142753
H73   H     H_    0.087860 0.349202 0.234010 0.154695
H74   H     H_    0.974587 0.243966 0.190087 0.197908
H75   H     H_    0.034456 0.264871 0.130725 0.202174
H76   H     H_    0.188270 0.252381 0.322486 0.326971
H77   H     H_    0.121811 0.190641 0.260625 0.265542
H78   H     H_    0.120396 0.224311 0.366918 0.211719
H79   H     H_    0.674104 0.169209 0.172512 0.198313
H80   H     H_    0.876019 0.324918 0.662767 0.129920
H81   H     H_    0.881756 0.349262 0.778143 0.122501
H82   H     H_    0.947887 0.234777 0.762315 0.223278
H83   H     H_    0.932980 0.257657 0.866260 0.183011
H84   H     H_    0.761905 0.265914 0.724993 0.317109
H85   H     H_    0.802189 0.198468 0.725120 0.262218
H86   H     H_    0.776329 0.245819 0.619001 0.252980
H87   H     H_    0.623985 0.824933 0.337242 0.129914
H88   H     H_    0.618246 0.849256 0.221852 0.122503
H89   H     H_    0.552149 0.734778 0.237765 0.223259
H90   H     H_    0.570066 0.402355 0.501178 0.185442
H91   H     H_    0.567049 0.757638 0.133805 0.183046
H92   H     H_    0.738116 0.765915 0.275068 0.317164
H93   H     H_    0.697861 0.698473 0.274991 0.262244
H94   H     H_    0.723698 0.745839 0.381065 0.252951
H95   H     H_    0.423383 0.822703 0.664030 0.142750
H96   H     H_    0.412140 0.849215 0.765990 0.154714
H97   H     H_    0.525396 0.743972 0.809911 0.197927
H98   H     H_    0.465517 0.764878 0.869257 0.202199
H99   H     H_    0.311712 0.752400 0.677479 0.326970
H100  H     H_    0.378160 0.690655 0.739344 0.265533
H101  H     H_    0.486307 0.456778 0.294262 0.186428
H102  H     H_    0.379596 0.724326 0.633065 0.211708
H103  H     H_    0.891525 0.655786 0.270965 0.211097
H104  H     H_    0.894722 0.594231 0.331638 0.056550
H105  H     H_    0.811067 0.609724 0.084414 0.210788
H106  H     H_    0.804964 0.548201 0.145424 0.204834
H107  H     H_    0.715316 0.598839 0.202881 0.273897
H108  H     H_    0.658159 0.599091 0.056345 0.275233
H109  H     H_    0.718580 0.659204 0.135110 0.267998
H110  H     H_    0.943134 0.662122 0.589379 0.150650
H111  H     H_    0.914978 0.604055 0.510845 0.041520
H112  H     H_    0.013611 0.956982 0.705843 0.186470
H113  H     H_    0.096782 0.605934 0.743761 0.289222
H114  H     H_    0.070215 0.566947 0.628174 0.171943
H115  H     H_    0.070569 0.652243 0.535818 0.237669
H116  H     H_    0.179587 0.642645 0.668652 0.297396
H117  H     H_    0.097076 0.691758 0.653204 0.282944
H118  H     H_    0.557050 0.162120 0.410720 0.150615
H119  H     H_    0.585129 0.104043 0.489205 0.041539
H120  H     H_    0.403311 0.106018 0.256306 0.289287
H121  H     H_    0.429843 0.067004 0.371852 0.171984
H122  H     H_    0.320584 0.142747 0.331503 0.297419
H123  H     H_    0.929902 0.902359 0.499121 0.185333
H124  H     H_    0.403148 0.191827 0.346978 0.282874
H125  H     H_    0.429630 0.152289 0.464330 0.237718
H126  H     H_    0.608526 0.155775 0.729079 0.211089
H127  H     H_    0.605345 0.094214 0.668438 0.056540
H128  H     H_    0.688945 0.109729 0.915640 0.210768
H129  H     H_    0.695058 0.048195 0.854667 0.204806
H130  H     H_    0.784746 0.098813 0.797237 0.273886
H131  H     H_    0.841872 0.099075 0.943767 0.275210
H132  H     H_    0.781471 0.159187 0.864978 0.268008
H133  H     H_    0.683276 0.631985 0.737810 0.084361
H134  H     H_    0.462345 0.592279 0.422769 0.203092
H135  H     H_    0.597386 0.612868 0.599839 0.112528
H136  H     H_    0.736075 0.704216 0.657628 0.210363
H137  H     H_    0.640162 0.683229 0.523725 0.219305
H138  H     H_    0.529177 0.707834 0.571931 0.250821
H139  H     H_    0.600036 0.764972 0.586492 0.275601
H140  H     H_    0.626644 0.729141 0.706874 0.288717
H141  H     H_    0.341174 0.626200 0.483783 0.144224
H142  H     H_    0.355751 0.554488 0.484950 0.150269
H143  H     H_    0.163920 0.609599 0.368064 0.258499
H144  H     H_    0.190805 0.537759 0.394583 0.199446
N1    N     N_R   0.892320 0.603520 0.941090 -0.090177
N2    N     N_R   0.973240 0.529450 0.794410 -0.095655
N3    N     N_R   0.526760 0.029450 0.205590 -0.095630
N4    N     N_R   0.473240 0.029450 0.794410 -0.104507
N5    N     N_R   0.819350 0.473090 0.793940 -0.082600
N6    N     N_R   0.180650 0.473090 0.206060 -0.078666
N7    N     N_R   0.319350 0.973090 0.793940 -0.078677
N8    N     N_R   0.680650 0.973090 0.206060 -0.082669
N9    N     N_R   0.027860 0.473090 0.206590 -0.079464
N10   N     N_R   0.972140 0.473090 0.793410 -0.076364
N11   N     N_R   0.527860 0.973090 0.206590 -0.076352
N12   N     N_R   0.107680 0.603520 0.058910 -0.082825
N13   N     N_R   0.472140 0.973090 0.793410 -0.079467
N14   N     N_R   0.818250 0.529450 0.792940 -0.098844
N15   N     N_R   0.181750 0.529450 0.207060 -0.101430
N16   N     N_R   0.318250 0.029450 0.792940 -0.101464
N17   N     N_R   0.681750 0.029450 0.207060 -0.098949
N18   N     N_R   0.896320 0.399020 0.944720 -0.173076
N19   N     N_R   0.103680 0.399020 0.055280 -0.153181
N20   N     N_R   0.396320 0.899020 0.944720 -0.153191
N21   N     N_R   0.603680 0.899020 0.055280 -0.173083
N22   N     N_R   0.949790 0.603520 0.054810 -0.112048
N23   N     N_R   0.392320 0.103520 0.941090 -0.082826
N24   N     N_R   0.050210 0.603520 0.945190 -0.097267
N25   N     N_R   0.449790 0.103520 0.054810 -0.097179
N26   N     N_R   0.550210 0.103520 0.945190 -0.112072
N27   N     N_R   0.607680 0.103520 0.058910 -0.090236
N28   N     N_R   0.953790 0.399020 0.058440 -0.154662
N29   N     N_R   0.046210 0.399020 0.941560 -0.139982
N30   N     N_R   0.453790 0.899020 0.058440 -0.139975
N31   N     N_R   0.546210 0.899020 0.941560 -0.154670
N32   N     N_R   0.026760 0.529450 0.205590 -0.104494
Ni1   Ni    Ni4+2 0.934100 0.565890 0.869590 0.270666
Ni2   Ni    Ni4+2 0.065900 0.565890 0.130410 0.236188
Ni3   Ni    Ni4+2 0.434100 0.065890 0.869590 0.236171
Ni4   Ni    Ni4+2 0.565900 0.065890 0.130410 0.270722
Ni5   Ni    Ni4+2 0.068420 0.436630 0.132700 0.203927
Ni6   Ni    Ni4+2 0.931580 0.436630 0.867300 0.191095
Ni7   Ni    Ni4+2 0.568420 0.936630 0.132700 0.191055
Ni8   Ni    Ni4+2 0.431580 0.936630 0.867300 0.203936
O1    O     O_3   0.953310 0.344785 0.196622 -0.663237
O2    O     O_3   0.292733 0.594771 0.332773 -0.706987
O3    O     O_3   0.207272 0.094773 0.667232 -0.706920
O4    O     O_3   0.766756 0.096763 0.346418 -0.609720
O5    O     O_3   0.029834 0.672341 0.191759 -0.597927
O6    O     O_3   0.024385 0.667851 0.809441 -0.652741
O7    O     O_3   0.475749 0.167864 0.190588 -0.652804
O8    O     O_3   0.470145 0.172333 0.808218 -0.597973
O9    O     O_3   0.008730 0.334618 0.798714 -0.642795
O10   O     O_3   0.491272 0.834614 0.201285 -0.642790
O11   O     O_3   0.546690 0.844786 0.803378 -0.663243
O12   O     O_3   0.980714 0.600568 0.276651 -0.637491
O13   O     O_3   0.918189 0.597118 0.653606 -0.607455
O14   O     O_3   0.581883 0.097106 0.346420 -0.607524
O15   O     O_3   0.519318 0.100567 0.723377 -0.637475
O16   O     O_3   0.733521 0.596720 0.653453 -0.609727

loop_
_geom_bond_atom_site_label_1
_geom_bond_atom_site_label_2
_ccdc_geom_bond_type
C19   H138  S    
C87   C91   D    
C21   H144  S    
C135  O11   S    
C74   C83   D    
C110  N16   A    
C80   O11   S    
C119  O7    S    
C45   C57   S    
N19   Ni5   S    
C24   C98   A    
C55   C59   S    
C5    C6    S    
C106  N11   A    
N21   Ni7   S    
C22   H3    S    
C51   F9    S    
C25   H8    S    
C101  H65   S    
C83   C93   S    
C49   H57   S    
C113  F6    S    
N9    Ni5   S    
C89   C94   D    
C103  C126  A    
C103  H67   S    
C95   N32   A    
N26   N27   A    
C97   N3    A    
C98   N4    A    
C10   H119  S    
C48   C50   S    
C128  H76   S    
C21   C22   S    
C31   H25   S    
C5    H105  S    
C48   C53   S    
C29   H19   S    
C73   C81   D    
N27   Ni4   S    
C130  H83   S    
C80   N31   A    
N4    N13   A    
C131  H85   S    
C22   H5    S    
C13   C106  A    
C17   H135  S    
C18   H136  S    
N5    N14   A    
C85   H53   S    
C37   H37   S    
C118  O6    S    
C7    H110  S    
C37   C38   S    
C118  N24   A    
C95   O12   S    
C90   C126  S    
N18   N28   A    
C42   H51   S    
C67   C74   S    
C39   H42   S    
N9    N32   A    
C134  H94   S    
C78   O9    S    
C102  H66   S    
N3    N11   A    
C10   O14   S    
C52   F10   S    
C129  H81   S    
C50   C57   S    
C4    C5    S    
C20   O2    S    
C44   C101  A    
C45   C111  A    
C47   C52   S    
C119  C123  A    
C14   H127  S    
N21   N31   A    
C114  F7    S    
C2    C96   A    
C130  C131  S    
C61   H2    S    
C66   C70   D    
C77   C82   A    
C15   H129  S    
C51   C55   S    
C13   C97   A    
C92   H61   S    
C28   H17   S    
C45   C102  A    
C70   C124  S    
C20   C21   S    
C88   H56   S    
C125  C127  S    
C6    H108  S    
C76   C85   D    
C89   H58   S    
N5    Ni6   S    
N30   Ni7   S    
C110  O3    S    
C7    C8    S    
C38   H39   S    
C19   H139  S    
C36   H34   S    
C64   C68   D    
C9    H117  S    
C125  H73   S    
C38   C39   S    
C132  O10   S    
C75   C84   D    
C112  N18   A    
C115  C116  A    
C23   O3    S    
C42   H49   S    
C129  O9    S    
C67   C72   D    
C118  C122  A    
C84   H52   S    
C81   H35   S    
C8    H114  S    
C116  F8    S    
C28   H16   S    
C107  H71   S    
C99   N5    A    
C33   H30   S    
C105  H69   S    
C125  H72   S    
C33   O6    S    
C15   H128  S    
C96   N2    A    
C83   H46   S    
C116  N21   A    
C111  N17   A    
C27   O4    S    
C26   H11   S    
C59   C61   S    
C136  H97   S    
C46   H90   S    
C117  N22   A    
C25   C26   S    
C103  N9    A    
C46   C51   S    
C63   H24   S    
N23   N25   A    
C112  F5    S    
C60   C123  A    
C107  N13   A    
C31   C32   S    
C131  H84   S    
C17   C18   S    
C30   H22   S    
C14   O15   S    
C88   C89   S    
C41   H48   S    
C7    H111  S    
C43   C55   S    
C12   H124  S    
C84   C104  S    
N11   Ni7   S    
C129  C130  S    
C128  H77   S    
C39   H43   S    
C35   C56   S    
C21   H143  S    
C87   H55   S    
C135  H95   S    
N2    Ni1   S    
C101  N7    A    
C102  N8    A    
C79   N30   A    
C75   F3    S    
C53   C63   S    
C95   C126  A    
C22   H4    S    
N7    Ni8   S    
C108  N14   A    
C64   C75   S    
C38   H40   S    
C34   C36   S    
C9    H115  S    
C34   H31   S    
C1    C121  A    
C11   H120  S    
C10   C11   S    
C37   O7    S    
C100  H64   S    
C4    H104  S    
C46   C56   S    
N1    N22   A    
C14   C15   S    
N25   Ni4   S    
C43   C109  A    
C133  H89   S    
N16   Ni3   S    
C71   N27   A    
C12   H122  S    
C41   C42   S    
C32   H27   S    
C29   H18   S    
C96   O13   S    
C135  C136  S    
C40   O8    S    
C74   F2    S    
C50   C54   S    
C65   C76   S    
N6    N15   A    
C28   C29   S    
C66   F14   S    
N8    N17   A    
C30   C31   S    
N17   Ni4   S    
N12   Ni2   S    
C18   C19   S    
C134  H92   S    
C3    H100  S    
C108  O16   S    
C130  H82   S    
C44   C58   S    
C49   N12   A    
C12   H125  S    
C23   H6    S    
C39   H41   S    
C36   H36   S    
N3    Ni4   S    
C10   H118  S    
C90   H59   S    
C32   H28   S    
C64   F1    S    
C17   O16   S    
C129  H80   S    
C85   C115  S    
N23   Ni3   S    
C43   C100  A    
C68   C122  S    
C53   C57   S    
C86   C87   S    
C40   H44   S    
C25   H9    S    
N12   N24   A    
C125  O1    S    
C127  H74   S    
C69   F17   S    
C31   H23   S    
C82   C112  A    
C117  O5    S    
C91   H60   S    
C68   F16   S    
C9    H116  S    
C80   C115  A    
C93   C113  A    
C65   F12   S    
C27   H14   S    
C133  H91   S    
C99   H63   S    
C4    H103  S    
C72   C123  S    
C86   C90   D    
C5    H106  S    
C113  N19   A    
C77   N28   A    
C114  N20   A    
C29   H20   S    
C16   H130  S    
C127  C128  S    
C136  H98   S    
N24   Ni1   S    
C62   H13   S    
C46   C47   S    
N26   Ni3   S    
C4    O12   S    
C86   H54   S    
C60   N23   A    
C131  H86   S    
C48   C58   S    
C54   C62   S    
C78   N29   A    
C37   H38   S    
C77   O1    S    
C20   H141  S    
C47   H101  S    
C30   O5    S    
C65   C69   D    
C73   F20   S    
C42   H50   S    
C40   H45   S    
C56   C61   S    
C33   H29   S    
C134  H93   S    
C11   H121  S    
N6    Ni5   S    
C120  N26   A    
C16   H131  S    
N8    Ni7   S    
C51   C61   S    
C53   F11   S    
C81   C82   S    
C57   C62   S    
C59   H134  S    
C14   H126  S    
C26   H12   S    
C62   C63   S    
N4    Ni3   S    
C32   H26   S    
N32   Ni2   S    
C3    C136  S    
N31   Ni8   S    
C48   H112  S    
C78   C93   A    
C15   C16   S    
C94   H62   S    
C111  O4    S    
C117  C121  A    
C35   C108  A    
C7    O13   S    
N14   Ni1   S    
N20   Ni8   S    
C88   C92   D    
C8    C9    S    
C20   H142  S    
C106  H70   S    
C6    H107  S    
C16   H132  S    
N28   Ni5   S    
C120  O8    S    
C100  N6    A    
N18   Ni6   S    
C72   F19   S    
C109  N15   A    
C1    N1    A    
C2    C91   S    
C35   C99   A    
C60   H68   S    
N15   Ni2   S    
C132  H88   S    
C54   F13   S    
C23   H7    S    
C76   F4    S    
C128  H78   S    
N22   Ni2   S    
C19   H140  S    
C67   F15   S    
C36   H33   S    
C71   C124  A    
C98   O15   S    
C24   C107  A    
C132  C133  S    
N19   N29   A    
C119  N25   A    
C66   C73   S    
C50   H123  S    
C8    H113  S    
C52   C59   S    
C24   C94   S    
C105  N10   A    
C132  H87   S    
C69   C121  S    
N2    N10   A    
C6    H109  S    
C127  H75   S    
C33   C34   S    
N13   Ni8   S    
C34   H32   S    
C104  C114  A    
C40   C41   S    
C97   O14   S    
C71   H79   S    
C79   C104  A    
C41   H47   S    
C135  H96   S    
C27   H15   S    
N29   Ni6   S    
N10   Ni6   S    
C47   C55   S    
C109  O2    S    
C54   C58   S    
C58   C63   S    
C26   H10   S    
C70   F18   S    
C18   H137  S    
C11   C12   S    
C3    H102  S    
C2    C105  A    
C1    H1    S    
C13   C92   S    
C133  C134  S    
C17   H133  S    
C49   C122  A    
C30   H21   S    
C23   C25   S    
C3    H99   S    
C120  C124  A    
C79   O10   S    
C27   C28   S    
N20   N30   A    
N1    Ni1   S    
N7    N16   A    
C52   C56   S    
C44   C110  A    
