data_mof_unit_56567.cif
_audit_creation_date              2012-12-11T15:06:36-0500
_audit_creation_method            fapswitch 2.2
_symmetry_space_group_name_H-M    P1
_symmetry_Int_Tables_number       1
_space_group_crystal_system       triclinic
_cell_length_a                    7.217816
_cell_length_b                    15.143548
_cell_length_c                    22.27451
_cell_angle_alpha                 89.972657
_cell_angle_beta                  89.838163
_cell_angle_gamma                 89.851864
_cell_volume                      2434.66028931

loop_
_atom_site_label
_atom_site_type_symbol
_atom_type_description
_atom_site_fract_x
_atom_site_fract_y
_atom_site_fract_z
_atom_type_partial_charge
O1    O     O_R   0.390810 0.844810 0.447340 -0.543731
O2    O     O_R   0.109190 0.155190 0.947340 -0.545259
O3    O     O_R   0.890810 0.655190 0.552660 -0.544819
O4    O     O_R   0.609190 0.344810 0.052660 -0.541533
O5    O     O_R   0.720550 0.655820 0.440420 -0.532606
O6    O     O_R   0.779450 0.344180 0.940420 -0.531723
O7    O     O_R   0.220550 0.844180 0.559580 -0.531340
O8    O     O_R   0.279450 0.155820 0.059580 -0.535931
C1    C     C_R   0.551668 0.626058 0.426402 0.689844
C2    C     C_R   0.948787 0.374006 0.926430 0.691825
C3    C     C_R   0.050931 0.873970 0.573575 0.690663
C4    C     C_R   0.448917 0.126211 0.073677 0.724447
O9    O     O_R   0.720530 0.844130 0.440420 -0.519937
O10   O     O_R   0.779470 0.155870 0.940420 -0.521627
O11   O     O_R   0.220530 0.655870 0.559580 -0.520236
O12   O     O_R   0.279470 0.344130 0.059580 -0.518854
O13   O     O_R   0.890830 0.844810 0.552660 -0.532417
O14   O     O_R   0.609170 0.155190 0.052660 -0.530959
O15   O     O_R   0.390830 0.655190 0.447340 -0.531356
O16   O     O_R   0.109170 0.344810 0.947340 -0.532794
C5    C     C_R   0.552024 0.873229 0.426152 0.826755
C6    C     C_R   0.948213 0.126838 0.926179 0.827527
C7    C     C_R   0.052083 0.626808 0.573823 0.827663
C8    C     C_R   0.447558 0.371275 0.075348 0.887961
O17   O     O_3   0.557310 0.749980 0.536820 -0.380560
O18   O     O_3   0.942690 0.250020 0.036820 -0.382355
O19   O     O_3   0.057310 0.750020 0.463180 -0.379740
O20   O     O_3   0.442690 0.249980 0.963180 -0.383665
V1    V     V_3+5 0.832160 0.749980 0.493170 1.517461
V2    V     V_3+5 0.667840 0.250020 0.993170 1.528223
V3    V     V_3+5 0.332160 0.750020 0.506830 1.518434
V4    V     V_3+5 0.167840 0.249980 0.006830 1.508213
C9    C     C_R   0.150399 0.585490 0.868540 -0.121398
C10   C     C_R   0.351855 0.414383 0.370202 -0.123306
C11   C     C_R   0.653632 0.915481 0.131580 -0.122236
C12   C     C_R   0.848801 0.085819 0.631499 -0.120955
H1    H     H_    0.228842 0.639011 0.887820 0.162162
H2    H     H_    0.275769 0.360389 0.390094 0.171104
H3    H     H_    0.732666 0.861853 0.112289 0.164376
H4    H     H_    0.770248 0.139533 0.612229 0.161794
C13   C     C_R   0.970433 0.452368 0.886472 -0.274826
C14   C     C_R   0.531724 0.547358 0.386820 -0.275572
C15   C     C_R   0.471194 0.048016 0.113650 -0.280578
C16   C     C_R   0.028702 0.952272 0.613552 -0.274583
C17   C     C_R   0.008348 0.468325 0.592817 0.247809
C18   C     C_R   0.501647 0.529086 0.093749 0.229196
C19   C     C_R   0.501566 0.031482 0.407508 0.249536
C20   C     C_R   0.993505 0.968378 0.907188 0.247460
C21   C     C_R   0.001832 0.393608 0.630942 0.173759
C22   C     C_R   0.510853 0.604208 0.131304 0.180418
C23   C     C_R   0.491652 0.106376 0.369615 0.171049
C24   C     C_R   0.999722 0.893645 0.869109 0.173482
C25   C     C_R   0.023181 0.403933 0.693627 0.418697
C26   C     C_R   0.482842 0.595274 0.193822 0.421062
C27   C     C_R   0.516984 0.096906 0.306984 0.415551
C28   C     C_R   0.977447 0.903995 0.806455 0.419199
C29   C     C_R   0.033762 0.489528 0.719134 -0.025646
C30   C     C_R   0.462356 0.510335 0.219803 -0.049139
C31   C     C_R   0.533761 0.011599 0.281177 -0.026654
C32   C     C_R   0.966469 0.989606 0.780897 -0.025647
C33   C     C_R   0.067527 0.562562 0.680294 -0.250304
C34   C     C_R   0.417826 0.438460 0.181205 -0.194246
C35   C     C_R   0.569703 0.938505 0.319897 -0.248555
C36   C     C_R   0.932930 0.062715 0.819717 -0.250161
C37   C     C_R   0.032255 0.503220 0.782890 0.052221
C38   C     C_R   0.464243 0.497057 0.283562 0.050255
C39   C     C_R   0.534173 0.998163 0.217342 0.048184
C40   C     C_R   0.967472 0.003278 0.717134 0.052281
C41   C     C_R   0.127051 0.577493 0.806170 -0.179321
C42   C     C_R   0.366370 0.424077 0.307551 -0.138060
C43   C     C_R   0.631071 0.924105 0.193994 -0.180225
C44   C     C_R   0.872601 0.077798 0.693863 -0.179131
C45   C     C_R   0.192744 0.643058 0.766302 0.293009
C46   C     C_R   0.284233 0.361981 0.268470 0.238481
C47   C     C_R   0.699423 0.859109 0.233786 0.291376
C48   C     C_R   0.807376 0.143591 0.733720 0.292771
C49   C     C_R   0.139935 0.640809 0.705966 0.360852
C50   C     C_R   0.322916 0.365060 0.206213 0.369753
C51   C     C_R   0.646172 0.860884 0.294134 0.361807
C52   C     C_R   0.860427 0.141160 0.794041 0.360570
C53   C     C_R   0.935706 0.446769 0.823688 0.349922
C54   C     C_R   0.564369 0.552806 0.323868 0.345111
C55   C     C_R   0.437231 0.054384 0.176435 0.366801
C56   C     C_R   0.063792 0.946595 0.676317 0.350027
C57   C     C_R   0.075253 0.524384 0.908375 0.357455
C58   C     C_R   0.430505 0.474788 0.409521 0.351681
C59   C     C_R   0.576413 0.975868 0.091711 0.351395
C60   C     C_R   0.923716 0.024519 0.591660 0.358550
C61   C     C_R   0.041740 0.552386 0.617050 -0.139292
C62   C     C_R   0.455412 0.446432 0.118189 -0.143847
C63   C     C_R   0.541099 0.947979 0.383125 -0.139468
C64   C     C_R   0.959261 0.052476 0.882949 -0.139716
O21   O     O_3   0.109076 0.537464 0.968782 -0.628353
H5    H     H_    0.020774 0.502138 0.992897 0.295812
O22   O     O_3   0.402276 0.460962 0.470214 -0.627979
H6    H     H_    0.491154 0.496914 0.493488 0.295628
O23   O     O_3   0.608870 0.962095 0.031235 -0.627723
H7    H     H_    0.520016 0.997386 0.007321 0.293232
O24   O     O_3   0.889783 0.037739 0.531260 -0.627933
H8    H     H_    0.977929 0.002178 0.507123 0.295327
N1    N     N_2   0.304237 0.715151 0.785680 -0.450401
H9    H     H_    0.267168 0.744784 0.825372 0.280871
C65   C     C_3   0.501364 0.700199 0.780021 -0.462873
H10   H     H_    0.545797 0.646042 0.810498 0.176428
H11   H     H_    0.537818 0.682924 0.732948 0.213009
H12   H     H_    0.576664 0.761376 0.792298 0.208351
N2    N     N_2   0.165365 0.294316 0.290811 -0.512190
H13   H     H_    0.217723 0.256529 0.325153 0.297885
C66   C     C_3   0.975022 0.321477 0.299915 -0.531322
H14   H     H_    0.965875 0.372345 0.335738 0.202923
H15   H     H_    0.916482 0.348587 0.257625 0.206331
H16   H     H_    0.891055 0.263516 0.313596 0.220015
N3    N     N_2   0.814695 0.788038 0.214317 -0.452218
H17   H     H_    0.777035 0.756985 0.175293 0.283002
C67   C     C_3   0.010960 0.805889 0.217997 -0.466181
H18   H     H_    0.049364 0.859847 0.186520 0.176987
H19   H     H_    0.049245 0.824886 0.264523 0.212574
H20   H     H_    0.089898 0.745503 0.205731 0.208338
N4    N     N_2   0.696454 0.216169 0.714313 -0.450354
H21   H     H_    0.733609 0.245591 0.674566 0.280882
C68   C     C_3   0.499221 0.202162 0.720111 -0.462305
H22   H     H_    0.454069 0.148181 0.689727 0.176452
H23   H     H_    0.462865 0.185125 0.767227 0.212917
H24   H     H_    0.424487 0.263684 0.707800 0.208681
O25   O     O_3   0.798710 0.392596 0.801391 -0.595986
H25   H     H_    0.712670 0.376958 0.834354 0.325944
O26   O     O_3   0.702368 0.606222 0.301037 -0.597226
H26   H     H_    0.787982 0.622464 0.333822 0.325902
O27   O     O_3   0.300766 0.109567 0.198425 -0.609209
H27   H     H_    0.211503 0.121885 0.165836 0.302536
O28   O     O_3   0.200975 0.892122 0.698573 -0.596089
H28   H     H_    0.287022 0.876402 0.665596 0.326243
O29   O     O_3   0.995536 0.460858 0.531050 -0.637744
H29   H     H_    0.044587 0.402596 0.518514 0.324311
O30   O     O_3   0.523160 0.535202 0.032131 -0.638090
H30   H     H_    0.479793 0.593964 0.018562 0.324021
O31   O     O_3   0.485647 0.038388 0.469256 -0.636625
H31   H     H_    0.530617 0.097112 0.482073 0.324616
O32   O     O_3   0.007402 0.960918 0.968937 -0.636954
H32   H     H_    0.959457 0.902615 0.981607 0.325697
O33   O     O_3   0.051785 0.331503 0.730378 -0.621856
H33   H     H_    0.072147 0.277880 0.705849 0.316770
O34   O     O_3   0.456673 0.668770 0.229784 -0.620652
H34   H     H_    0.441924 0.722217 0.204666 0.316146
O35   O     O_3   0.543020 0.170080 0.270655 -0.614351
H35   H     H_    0.552922 0.224174 0.295304 0.319984
O36   O     O_3   0.948437 0.831615 0.769801 -0.621784
H36   H     H_    0.928434 0.778050 0.794404 0.316694
O37   O     O_3   0.975920 0.309753 0.608238 -0.669212
H37   H     H_    0.890912 0.313542 0.573492 0.301644
O38   O     O_3   0.547054 0.687033 0.108260 -0.669418
H38   H     H_    0.635079 0.680902 0.074312 0.302679
O39   O     O_3   0.458113 0.189605 0.392513 -0.670996
H39   H     H_    0.371991 0.184257 0.427019 0.302513
O40   O     O_3   0.026100 0.809750 0.891843 -0.669241
H40   H     H_    0.112120 0.813362 0.926322 0.301253
O41   O     O_3   0.171480 0.715140 0.672588 -0.610456
H41   H     H_    0.046858 0.736535 0.660741 0.279484
O42   O     O_3   0.259125 0.299334 0.168837 -0.638601
H42   H     H_    0.150428 0.269872 0.186901 0.329959
O43   O     O_3   0.680991 0.786682 0.327375 -0.610166
H43   H     H_    0.557259 0.763851 0.338913 0.279616
O44   O     O_3   0.829330 0.215601 0.827386 -0.610660
H44   H     H_    0.954066 0.236543 0.839216 0.279627

loop_
_geom_bond_atom_site_label_1
_geom_bond_atom_site_label_2
_ccdc_geom_bond_type
O17   V3    S    
C30   C34   A    
O21   H5    S    
C27   C31   A    
O19   V1    S    
O13   V1    S    
O3    C7    A    
O22   H6    S    
C14   C54   A    
C44   C48   A    
O15   V3    S    
O35   H35   S    
O30   H30   S    
C35   C51   A    
C12   C60   A    
C24   O40   S    
O1    C5    A    
C30   C38   A    
C1    C14   S    
N1    H9    S    
O25   H25   S    
O9    V1    S    
O10   V2    S    
C55   O27   S    
C4    C15   S    
C66   H15   S    
C5    C63   S    
C11   H3    S    
O4    C8    A    
C37   C41   A    
C27   O35   S    
C12   C44   A    
O34   H34   S    
O23   H7    S    
O1    V3    S    
C15   C55   A    
O2    V4    S    
C10   C58   A    
O3    V1    S    
C9    C57   A    
C68   H24   S    
C31   C39   A    
C18   O30   S    
C36   C52   A    
C11   C59   A    
C22   O38   S    
C1    O15   A    
O41   H41   S    
C23   O39   S    
O36   H36   S    
C33   C49   A    
C67   H19   S    
O2    C6    A    
N2    H13   S    
C7    C61   S    
C41   C45   A    
C14   C58   A    
C25   O33   S    
C17   C61   A    
C10   C42   A    
C23   C27   A    
C9    C41   A    
O11   C7    A    
C26   O34   S    
C46   N2    S    
O38   H38   S    
C11   C43   A    
O12   C8    A    
C2    C13   S    
N2    C66   S    
C57   O21   S    
C51   O43   S    
O16   V4    S    
C60   O24   S    
C33   C61   A    
O43   H43   S    
O5    V1    S    
N4    C68   S    
O32   H32   S    
C48   N4    S    
O7    V3    S    
O8    V4    S    
C12   H4    S    
C66   H14   S    
C66   H16   S    
C2    O16   A    
C25   C29   A    
O18   V4    S    
C19   C23   A    
C9    H1    S    
C28   C32   A    
N3    C67   S    
C40   C44   A    
C40   C56   A    
O7    C3    A    
C52   O44   S    
C42   C46   A    
C38   C54   A    
C37   C53   A    
O42   H42   S    
C17   C21   A    
O8    C4    A    
C67   H20   S    
C13   C53   A    
C19   O31   S    
O9    C5    A    
C3    C16   S    
C65   H11   S    
C22   C26   A    
C39   C55   A    
O11   V3    S    
C68   H22   S    
C47   N3    S    
O6    V2    S    
C20   C64   A    
O29   H29   S    
C36   C64   A    
C35   C63   A    
O26   H26   S    
O40   H40   S    
N3    H17   S    
C26   C30   A    
C3    O13   A    
C45   C49   A    
C20   O32   S    
C53   O25   S    
C10   H2    S    
C19   C63   A    
C34   C50   A    
C48   C52   A    
O5    C1    A    
C16   C56   A    
C8    C62   S    
O6    C2    A    
N4    H21   S    
C29   C33   A    
C18   C62   A    
C17   O29   S    
O12   V4    S    
C13   C57   A    
O31   H31   S    
C18   C22   A    
C56   O28   S    
C31   C35   A    
O24   H8    S    
C21   O37   S    
C32   C36   A    
C15   C59   A    
O10   C6    A    
C28   O36   S    
O20   V2    S    
O27   H27   S    
C16   C60   A    
O33   H33   S    
C43   C47   A    
C38   C42   A    
C21   C25   A    
C34   C62   A    
C45   N1    S    
C65   H12   S    
C39   C43   A    
O28   H28   S    
C54   O26   S    
C68   H23   S    
O44   H44   S    
C58   O22   S    
O14   V2    S    
C24   C28   A    
C50   O42   S    
C20   C24   A    
C32   C40   A    
N1    C65   S    
C46   C50   A    
C4    O14   A    
C65   H10   S    
C6    C64   S    
C59   O23   S    
O39   H39   S    
O37   H37   S    
C47   C51   A    
O4    V2    S    
C67   H18   S    
C49   O41   S    
C29   C37   A    
