data_mof_unit_44824.cif
_audit_creation_date              2012-12-11T15:34:58-0500
_audit_creation_method            fapswitch 2.2
_symmetry_space_group_name_H-M    P1
_symmetry_Int_Tables_number       1
_space_group_crystal_system       triclinic
_cell_length_a                    30.548586
_cell_length_b                    7.250392
_cell_length_c                    25.975498
_cell_angle_alpha                 89.997312
_cell_angle_beta                  111.97039
_cell_angle_gamma                 89.999185
_cell_volume                      5335.47335172

loop_
_atom_site_label
_atom_site_type_symbol
_atom_type_description
_atom_site_fract_x
_atom_site_fract_y
_atom_site_fract_z
_atom_type_partial_charge
O1    O     O_R   0.295360 0.592990 0.320420 -0.533736
O2    O     O_R   0.704640 0.407010 0.679580 -0.533735
O3    O     O_R   0.204640 0.092990 0.179580 -0.533742
O4    O     O_R   0.795360 0.907010 0.820420 -0.533741
O5    O     O_R   0.294060 0.265620 0.213230 -0.539721
O6    O     O_R   0.705940 0.734380 0.786770 -0.539721
O7    O     O_R   0.205940 0.765620 0.286770 -0.539749
O8    O     O_R   0.794060 0.234380 0.713230 -0.539755
C1    C     C_R   0.304212 0.432252 0.199648 0.694884
C2    C     C_R   0.695788 0.567748 0.800352 0.694885
C3    C     C_R   0.195789 0.932249 0.300352 0.694904
C4    C     C_R   0.804211 0.067750 0.699648 0.694908
O9    O     O_R   0.300850 0.263360 0.322080 -0.533694
O10   O     O_R   0.699150 0.736640 0.677920 -0.533694
O11   O     O_R   0.199150 0.763360 0.177920 -0.533689
O12   O     O_R   0.800850 0.236640 0.822080 -0.533688
O13   O     O_R   0.211480 0.091820 0.289210 -0.537080
O14   O     O_R   0.788520 0.908180 0.710790 -0.537085
O15   O     O_R   0.288520 0.591820 0.210790 -0.537059
O16   O     O_R   0.711480 0.408180 0.789210 -0.537058
C5    C     C_R   0.313265 0.431463 0.343167 0.683899
C6    C     C_R   0.686735 0.568537 0.656833 0.683899
C7    C     C_R   0.186735 0.931470 0.156833 0.683916
C8    C     C_R   0.813265 0.068530 0.843167 0.683919
O17   O     O_3   0.220670 0.426670 0.239090 -0.374669
O18   O     O_3   0.779330 0.573330 0.760910 -0.374672
O19   O     O_3   0.279330 0.926670 0.260910 -0.374647
O20   O     O_3   0.720670 0.073330 0.739090 -0.374646
V1    V     V_3+5 0.255440 0.152290 0.252020 1.416491
V2    V     V_3+5 0.744560 0.847710 0.747980 1.416489
V3    V     V_3+5 0.244560 0.652290 0.247980 1.416465
V4    V     V_3+5 0.755440 0.347710 0.752020 1.416458
C9    C     C_R   0.850233 0.063667 0.899378 -0.038643
C10   C     C_R   0.149767 0.936333 0.100623 -0.038642
C11   C     C_R   0.649765 0.563683 0.600623 -0.038630
C12   C     C_R   0.350235 0.436317 0.399377 -0.038630
C13   C     C_R   0.873694 0.126938 0.997389 -0.155788
C14   C     C_R   0.126306 0.873062 0.002611 -0.155787
C15   C     C_R   0.626308 0.626865 0.502606 -0.155776
C16   C     C_R   0.373691 0.373135 0.497395 -0.155779
C17   C     C_R   0.838872 0.118024 0.944387 -0.162596
C18   C     C_R   0.161128 0.881977 0.055613 -0.162596
C19   C     C_R   0.661129 0.617977 0.555609 -0.162579
C20   C     C_R   0.338871 0.382023 0.444391 -0.162584
C21   C     C_R   0.897216 0.018685 0.907740 -0.210803
C22   C     C_R   0.102784 0.981315 0.092260 -0.210803
C23   C     C_R   0.602781 0.518734 0.592263 -0.210799
C24   C     C_R   0.397218 0.481266 0.407737 -0.210800
C25   C     C_R   0.933797 0.029998 0.961472 0.085897
C26   C     C_R   0.066203 0.970002 0.038528 0.085897
C27   C     C_R   0.566202 0.530009 0.538528 0.085897
C28   C     C_R   0.433798 0.469991 0.461471 0.085897
C29   C     C_R   0.920820 0.084870 0.006276 0.134360
C30   C     C_R   0.079180 0.915130 0.993724 0.134359
C31   C     C_R   0.579181 0.584821 0.493720 0.134355
C32   C     C_R   0.420819 0.415179 0.506279 0.134357
C33   C     C_R   0.982637 0.991471 0.972306 0.057062
C34   C     C_R   0.017363 0.008528 0.027694 0.057063
C35   C     C_R   0.517362 0.491495 0.527696 0.057068
C36   C     C_R   0.482638 0.508505 0.472304 0.057068
C37   C     C_R   0.002057 0.062914 0.070372 -0.183041
C38   C     C_R   0.997943 0.937086 0.929628 -0.183040
C39   C     C_R   0.497946 0.562834 0.429622 -0.183047
C40   C     C_R   0.502054 0.437166 0.570378 -0.183047
C41   C     C_R   0.954892 0.099760 0.059755 -0.193689
C42   C     C_R   0.045108 0.900240 0.940245 -0.193687
C43   C     C_R   0.545111 0.599668 0.440238 -0.193693
C44   C     C_R   0.454889 0.400332 0.559762 -0.193695
H1    H     H_    0.944994 0.141679 0.093991 0.130192
H2    H     H_    0.055005 0.858321 0.906009 0.130194
H3    H     H_    0.555010 0.641542 0.405998 0.130183
H4    H     H_    0.444989 0.358459 0.594001 0.130183
H5    H     H_    0.096024 0.019896 0.128641 0.095908
H6    H     H_    0.903976 0.980104 0.871359 0.095911
H7    H     H_    0.403980 0.519803 0.371353 0.095893
H8    H     H_    0.596020 0.480196 0.628647 0.095892
H9    H     H_    0.863818 0.169537 0.031566 0.121781
H10   H     H_    0.136182 0.830463 0.968434 0.121782
H11   H     H_    0.636186 0.669416 0.468425 0.121789
H12   H     H_    0.363814 0.330584 0.531575 0.121787
H13   H     H_    0.025758 0.079071 0.112860 0.126530
H14   H     H_    0.974241 0.920929 0.887140 0.126532
H15   H     H_    0.474246 0.578954 0.387132 0.126518
H16   H     H_    0.525754 0.421046 0.612868 0.126518
C45   C     C_R   0.076462 0.122272 0.457324 0.578182
C46   C     C_R   0.923533 0.877745 0.542667 0.578170
C47   C     C_R   0.423571 0.622344 0.042718 0.578261
C48   C     C_R   0.576429 0.377657 0.957281 0.578262
N1    N     N_R   0.073315 0.972302 0.423669 -0.555109
N2    N     N_R   0.926685 0.027700 0.576329 -0.555096
N3    N     N_R   0.426693 0.472326 0.076342 -0.555143
N4    N     N_R   0.573306 0.527672 0.923656 -0.555144
C49   C     C_R   0.041658 0.833006 0.419786 0.572696
C50   C     C_R   0.958347 0.166983 0.580217 0.572689
C51   C     C_R   0.458325 0.332979 0.080195 0.572769
C52   C     C_R   0.541674 0.667017 0.919803 0.572769
C53   C     C_R   0.012302 0.840222 0.450640 -0.028835
C54   C     C_R   0.987701 0.159775 0.549360 -0.028826
C55   C     C_R   0.487690 0.340214 0.049351 -0.028898
C56   C     C_R   0.512309 0.659784 0.950647 -0.028898
C57   C     C_R   0.014821 0.994385 0.484581 -0.019802
C58   C     C_R   0.985180 0.005618 0.515416 -0.019801
C59   C     C_R   0.485182 0.494390 0.015421 -0.019762
C60   C     C_R   0.514818 0.505609 0.984578 -0.019762
C61   C     C_R   0.046908 0.137342 0.487767 -0.025035
C62   C     C_R   0.953090 0.862668 0.512228 -0.025028
C63   C     C_R   0.453110 0.637375 0.012254 -0.025098
C64   C     C_R   0.546890 0.362626 0.987745 -0.025099
C65   C     C_R   0.980350 0.697568 0.448098 -0.153401
C66   C     C_R   0.019652 0.302431 0.551901 -0.153400
C67   C     C_R   0.519638 0.197562 0.051889 -0.153431
C68   C     C_R   0.480361 0.802436 0.948109 -0.153432
C69   C     C_R   0.951124 0.708638 0.478501 -0.147040
C70   C     C_R   0.048875 0.291370 0.521494 -0.147041
C71   C     C_R   0.548857 0.208613 0.021476 -0.147058
C72   C     C_R   0.451143 0.791387 0.978523 -0.147058
O21   O     O_2   0.108533 0.255702 0.462046 -0.528737
O22   O     O_2   0.891455 0.744336 0.537935 -0.528758
O23   O     O_2   0.391541 0.755867 0.038051 -0.528656
O24   O     O_2   0.608459 0.244138 0.961949 -0.528656
O25   O     O_2   0.038014 0.688742 0.385607 -0.526585
O26   O     O_2   0.961999 0.311225 0.614406 -0.526606
O27   O     O_2   0.461929 0.188637 0.114329 -0.526501
O28   O     O_2   0.538069 0.811355 0.885667 -0.526502
H17   H     H_    0.977835 0.576635 0.422661 0.171133
H18   H     H_    0.022168 0.423360 0.577340 0.171132
H19   H     H_    0.522155 0.076645 0.077331 0.171145
H20   H     H_    0.477844 0.923351 0.922667 0.171144
C73   C     C_R   0.867577 0.194327 0.603517 -0.087796
C74   C     C_R   0.132440 0.805710 0.396503 -0.087779
C75   C     C_R   0.632510 0.694059 0.896590 -0.087709
C76   C     C_R   0.367491 0.305938 0.103411 -0.087710
H21   H     H_    0.867566 0.306795 0.576076 0.158706
H22   H     H_    0.132464 0.693275 0.423960 0.158689
H23   H     H_    0.632589 0.806314 0.924118 0.158600
H24   H     H_    0.367412 0.193679 0.075884 0.158604
C77   C     C_R   0.838347 0.205192 0.634047 -0.201452
C78   C     C_R   0.161671 0.794845 0.365974 -0.201441
C79   C     C_R   0.661747 0.704930 0.866067 -0.201390
C80   C     C_R   0.338254 0.295066 0.133934 -0.201391
H25   H     H_    0.816517 0.326458 0.629607 0.134882
H26   H     H_    0.183515 0.673610 0.370431 0.134874
H27   H     H_    0.683656 0.825985 0.870601 0.134851
H28   H     H_    0.316346 0.174008 0.129402 0.134852
C81   C     C_R   0.836361 0.058962 0.668698 -0.051918
C82   C     C_R   0.163639 0.941038 0.331301 -0.051916
C83   C     C_R   0.663638 0.558954 0.831299 -0.051939
C84   C     C_R   0.336362 0.441045 0.168700 -0.051939
C85   C     C_R   0.864905 0.903100 0.672862 -0.212278
C86   C     C_R   0.135078 0.096863 0.327115 -0.212270
C87   C     C_R   0.634997 0.403342 0.827016 -0.212242
C88   C     C_R   0.365001 0.596661 0.172982 -0.212243
H29   H     H_    0.864431 0.788786 0.699501 0.136088
H30   H     H_    0.135539 0.211144 0.300459 0.136078
H31   H     H_    0.635398 0.289243 0.800283 0.136041
H32   H     H_    0.364600 0.710764 0.199713 0.136042
C89   C     C_R   0.894964 0.894241 0.643358 -0.089220
C90   C     C_R   0.105020 0.105723 0.356620 -0.089204
C91   C     C_R   0.604938 0.394477 0.856521 -0.089130
C92   C     C_R   0.395060 0.605525 0.143477 -0.089131
H33   H     H_    0.917189 0.774085 0.648061 0.153175
H34   H     H_    0.082782 0.225849 0.351901 0.153161
H35   H     H_    0.582640 0.274525 0.851733 0.153101
H36   H     H_    0.417357 0.725480 0.148264 0.153104
C93   C     C_R   0.896359 0.038967 0.607927 0.354469
C94   C     C_R   0.103642 0.961034 0.392071 0.354471
C95   C     C_R   0.603634 0.538949 0.892062 0.354471
C96   C     C_R   0.396365 0.461051 0.107937 0.354466
H37   H     H_    0.197095 0.845153 0.061640 0.114262
H38   H     H_    0.802905 0.154847 0.938360 0.114262
H39   H     H_    0.302903 0.345230 0.438366 0.114266
H40   H     H_    0.697097 0.654770 0.561634 0.114267
H41   H     H_    0.927037 0.595859 0.475514 0.169970
H42   H     H_    0.072960 0.404153 0.524479 0.169972
H43   H     H_    0.572938 0.095831 0.024458 0.169991
H44   H     H_    0.427062 0.904170 0.975541 0.169992

loop_
_geom_bond_atom_site_label_1
_geom_bond_atom_site_label_2
_ccdc_geom_bond_type
O17   V3    S    
C55   C59   A    
C88   C92   A    
O1    C5    A    
C57   C58   A    
C54   C66   A    
C49   C53   A    
O19   V1    S    
O13   V1    S    
O3    C7    A    
C10   C18   A    
C56   C60   A    
O15   V3    S    
C80   C84   A    
C25   C33   A    
C33   C38   A    
C5    C12   S    
C74   H22   S    
O7    C3    A    
C6    C11   S    
C79   C83   A    
C35   C40   A    
C26   C30   A    
C36   C39   A    
C92   H36   S    
C64   C71   A    
C77   C81   A    
C49   O25   S    
C23   H8    S    
C14   C18   A    
C75   H23   S    
O4    C8    A    
C51   C55   A    
C76   H24   S    
C44   H4    S    
C50   C54   A    
C60   C64   A    
O1    V3    S    
C9    C21   A    
O2    V4    S    
C89   H33   S    
O3    V1    S    
C85   H29   S    
C40   H16   S    
C71   H43   S    
C28   C36   A    
C82   C86   A    
C79   H27   S    
C1    O15   A    
C15   C31   A    
C76   C80   A    
C48   N4    A    
C2    O16   A    
C16   C32   A    
O2    C6    A    
C16   H12   S    
C58   C62   A    
C10   C22   A    
C87   H31   S    
C48   O24   S    
C11   C19   A    
C66   C70   A    
C43   H3    S    
C65   C69   A    
C2    C83   S    
C13   C29   A    
C34   C37   A    
O11   C7    A    
C38   H14   S    
C11   C23   A    
C35   C36   A    
O12   C8    A    
C13   C17   A    
C24   H7    S    
C46   C62   A    
O10   V2    S    
C45   C61   A    
C73   C77   A    
N2    C50   A    
C70   H42   S    
O5    V1    S    
N4    C52   A    
C57   C61   A    
N1    C94   S    
C39   C43   A    
O7    V3    S    
C47   N3    A    
C72   H44   S    
C62   C69   A    
C26   C34   A    
C80   H28   S    
C61   C70   A    
C88   H32   S    
C46   N2    A    
C89   C93   A    
C38   C42   A    
O18   V4    S    
C15   C19   A    
C14   H10   S    
C76   C96   A    
C32   C44   A    
C13   H9    S    
O4    V2    S    
C39   H15   S    
C21   H6    S    
C87   C91   A    
C4    C81   S    
C83   C87   A    
C47   O23   S    
C18   H37   S    
C53   C65   A    
C74   C94   A    
C31   C43   A    
C14   C30   A    
C24   C28   A    
O8    C4    A    
C7    C10   S    
C55   C67   A    
C21   C25   A    
O9    C5    A    
C46   O22   S    
C45   O21   S    
C66   H18   S    
C73   H21   S    
C50   O26   S    
C52   O28   S    
C65   H17   S    
O6    V2    S    
C56   C68   A    
N2    C93   S    
C78   H26   S    
O14   V2    S    
C91   H35   S    
N3    C96   S    
C12   C20   A    
C27   C35   A    
O9    V1    S    
C74   C78   A    
C40   C44   A    
C68   C72   A    
C29   C41   A    
C90   C94   A    
C69   H41   S    
O16   V4    S    
C51   O27   S    
C77   H25   S    
C3    O13   A    
C45   N1    A    
C86   C90   A    
C84   C88   A    
O5    C1    A    
O6    C2    A    
C23   C27   A    
C19   H40   S    
C3    C82   S    
O11   V3    S    
C30   C42   A    
O12   V4    S    
C17   H38   S    
C22   C26   A    
C1    C84   S    
C8    C9    S    
C73   C93   A    
C59   C63   A    
C9    C17   A    
O10   C6    A    
O20   V2    S    
C20   H39   S    
C54   C58   A    
C67   H19   S    
N4    C95   S    
C33   C34   A    
C42   H2    S    
O8    V4    S    
C78   C82   A    
C41   H1    S    
C52   C56   A    
C91   C95   A    
C12   C24   A    
C27   C31   A    
C92   C96   A    
N1    C49   A    
C81   C85   A    
C63   C72   A    
C68   H20   S    
C25   C29   A    
C75   C79   A    
C90   H34   S    
C75   C95   A    
C48   C64   A    
C37   C41   A    
C16   C20   A    
C47   C63   A    
N3    C51   A    
C67   C71   A    
C86   H30   S    
C4    O14   A    
C59   C60   A    
C37   H13   S    
C85   C89   A    
C22   H5    S    
C53   C57   A    
C28   C32   A    
C15   H11   S    
