data_mof_unit_28777.cif
_audit_creation_date              2012-12-10T17:04:11-0500
_audit_creation_method            fapswitch 2.2
_symmetry_space_group_name_H-M    P1
_symmetry_Int_Tables_number       1
_space_group_crystal_system       triclinic
_cell_length_a                    18.791999
_cell_length_b                    18.761138
_cell_length_c                    18.729403
_cell_angle_alpha                 108.925349
_cell_angle_beta                  109.686309
_cell_angle_gamma                 108.80992
_cell_volume                      5144.19194914

loop_
_atom_site_label
_atom_site_type_symbol
_atom_type_description
_atom_site_fract_x
_atom_site_fract_y
_atom_site_fract_z
_atom_type_partial_charge
C1    C     C_R   0.618803 0.619158 0.499562 0.850845
C2    C     C_3   0.210266 0.422676 0.176894 -0.261817
C3    C     C_3   0.213554 0.431729 0.262884 0.419077
C4    C     C_3   0.309864 0.497933 0.313005 -0.088623
C5    C     C_R   0.627402 0.791685 0.526309 0.442060
C6    C     C_R   0.650510 0.878016 0.574659 -0.148970
C7    C     C_R   0.728678 0.943182 0.597817 -0.202420
C8    C     C_R   0.782118 0.922048 0.569859 -0.146638
C9    C     C_R   0.764243 0.835332 0.529578 0.036153
C10   C     C_R   0.690973 0.769394 0.517555 -0.060012
C11   C     C_R   0.818036 0.813896 0.500686 -0.084047
C12   C     C_R   0.378113 0.497658 0.380742 0.948993
C13   C     C_R   0.813067 0.732537 0.479312 0.038117
C14   C     C_R   0.752890 0.672212 0.487600 0.078467
C15   C     C_R   0.686624 0.686942 0.499433 -0.167611
C16   C     C_R   0.870247 0.711918 0.454356 -0.263132
C17   C     C_R   0.873079 0.635342 0.444780 0.561053
C18   C     C_R   0.822070 0.582652 0.465500 -0.169459
C19   C     C_R   0.763266 0.600430 0.486794 -0.246011
C20   C     C_R   0.780034 0.657759 0.751757 -0.238276
C21   C     C_R   0.847094 0.735585 0.824221 -0.145951
C22   C     C_R   0.898173 0.736855 0.898861 0.538145
C23   C     C_R   0.380899 0.381487 0.500451 0.745089
C24   C     C_R   0.888763 0.658378 0.896057 -0.187256
C25   C     C_R   0.824107 0.578216 0.820895 0.046182
C26   C     C_R   0.763700 0.578755 0.752030 0.083240
C27   C     C_R   0.816073 0.497927 0.814221 -0.136687
C28   C     C_R   0.738540 0.419320 0.747177 -0.050457
C29   C     C_R   0.670137 0.424325 0.691393 -0.031173
C30   C     C_R   0.686738 0.501344 0.687566 -0.071438
C31   C     C_R   0.724390 0.335507 0.733897 0.441102
C32   C     C_R   0.639676 0.266485 0.687342 -0.277070
C33   C     C_R   0.570015 0.274044 0.640777 0.473370
C34   C     C_R   0.620734 0.501583 0.619439 0.739893
C35   C     C_R   0.585748 0.352611 0.641362 -0.246265
C36   C     C_R   0.377623 0.408092 0.661444 -0.292451
C37   C     C_R   0.364232 0.437472 0.731597 0.345576
C38   C     C_R   0.296345 0.379872 0.733790 0.306114
C39   C     C_R   0.246219 0.293438 0.665702 0.283835
C40   C     C_R   0.247113 0.270739 0.584830 -0.058486
C41   C     C_R   0.313149 0.331703 0.582672 -0.014417
C42   C     C_R   0.186650 0.189845 0.507308 -0.079710
C43   C     C_R   0.192226 0.170981 0.430532 0.069360
C44   C     C_R   0.250242 0.236502 0.425770 -0.001330
C45   C     C_3   0.288731 0.572870 0.326076 -0.215279
C46   C     C_R   0.313801 0.315679 0.502859 -0.082266
C47   C     C_R   0.140952 0.086881 0.357717 -0.193265
C48   C     C_R   0.142892 0.070016 0.280694 -0.202001
C49   C     C_R   0.192113 0.136815 0.272372 0.467695
C50   C     C_R   0.242913 0.219935 0.343304 -0.213225
C51   C     C_R   0.998730 0.617834 0.117654 0.860651
C52   C     C_R   0.122729 0.499137 0.122768 0.819920
C53   C     C_R   0.004907 0.381661 0.885617 0.801856
C54   C     C_R   0.884278 0.498050 0.882038 0.883166
C55   C     C_R   0.005131 0.884766 0.382696 0.828447
C56   C     C_3   0.192313 0.505578 0.275521 0.389035
C57   C     C_R   0.882509 0.879124 0.497871 0.759626
C58   C     C_R   0.998246 0.117520 0.617751 0.801267
C59   C     C_R   0.118258 0.123081 0.505104 0.881147
C60   C     C_R   0.151751 0.732371 0.277943 -0.208483
C61   C     C_R   0.233635 0.799291 0.339815 -0.290742
C62   C     C_R   0.245071 0.878149 0.394328 0.464868
C63   C     C_R   0.171697 0.886011 0.392353 0.402525
C64   C     C_R   0.085581 0.816853 0.325773 -0.088581
C65   C     C_R   0.078141 0.743430 0.263374 -0.004537
C66   C     C_R   0.006481 0.816284 0.317746 -0.104944
C67   C     C_3   0.189259 0.497554 0.190339 -0.145349
C68   C     C_R   0.925354 0.747733 0.245748 -0.084680
C69   C     C_R   0.921294 0.687186 0.174265 -0.082212
C70   C     C_R   0.998373 0.683009 0.185806 -0.093225
C71   C     C_R   0.846769 0.738094 0.243536 -0.303879
C72   C     C_R   0.770099 0.694308 0.165406 0.351341
C73   C     C_R   0.770522 0.651699 0.088648 0.227982
C74   C     C_R   0.839956 0.634547 0.094922 0.292782
C75   C     C_R   0.011139 0.398028 0.737188 -0.208368
C76   C     C_R   0.028266 0.413089 0.675100 -0.197161
C77   C     C_R   0.042162 0.355797 0.619919 0.414946
C78   C     C_3   0.285724 0.564452 0.239822 -0.134543
C79   C     C_R   0.032843 0.280358 0.623245 -0.168175
C80   C     C_R   0.012791 0.262540 0.684185 0.049840
C81   C     C_R   0.009913 0.325940 0.747356 0.087419
C82   C     C_R   0.999216 0.184424 0.685235 -0.104985
C83   C     C_R   0.991770 0.172164 0.753639 0.070184
C84   C     C_R   0.000626 0.240062 0.823189 0.014139
C85   C     C_R   0.005980 0.315486 0.818258 -0.128005
C86   C     C_R   0.976664 0.093540 0.754906 -0.256339
C87   C     C_R   0.972447 0.083183 0.823790 -0.186855
C88   C     C_R   0.986587 0.151677 0.894906 0.490553
C89   C     C_3   0.307775 0.489972 0.227745 -0.119368
C90   C     C_R   0.003846 0.230325 0.896144 -0.225139
Cu1   Cu    Cu3+1 0.500490 0.438210 0.438660 1.012794
Cu2   Cu    Cu3+1 0.499510 0.561790 0.561340 1.109393
Cu3   Cu    Cu3+1 0.942070 0.438200 0.003850 1.025213
Cu4   Cu    Cu3+1 0.065670 0.561760 0.003800 1.008428
Cu5   Cu    Cu3+1 0.062280 0.000030 0.562300 0.941169
Cu6   Cu    Cu3+1 0.937720 1.000000 0.437720 1.042859
H1    H     H_    0.744333 0.009902 0.630610 0.162456
H2    H     H_    0.837949 0.974483 0.581180 0.129194
H3    H     H_    0.914567 0.756282 0.444934 0.133015
H4    H     H_    0.728991 0.558523 0.505604 0.169250
H5    H     H_    0.740041 0.660622 0.696752 0.153186
H6    H     H_    0.856676 0.795506 0.823768 0.176554
H7    H     H_    0.930368 0.661453 0.954327 0.164496
H8    H     H_    0.318823 0.634217 0.386234 0.217201
H9    H     H_    0.628662 0.204893 0.684129 0.173747
H10   H     H_    0.531305 0.358705 0.605971 0.144328
H11   H     H_    0.438694 0.447922 0.669550 0.219869
H12   H     H_    0.100296 0.032553 0.359794 0.173690
H13   H     H_    0.105008 0.004858 0.227154 0.170279
H14   H     H_    0.314727 0.618997 0.229083 0.200244
H15   H     H_    0.275517 0.270475 0.332110 0.216093
H16   H     H_    0.147554 0.672781 0.238591 0.179896
H17   H     H_    0.288135 0.790153 0.341916 0.185571
H18   H     H_    0.845167 0.768334 0.302428 0.206095
H19   H     H_    0.356847 0.484098 0.209517 0.190907
H20   H     H_    0.998334 0.443579 0.775906 0.177720
H21   H     H_    0.032075 0.470420 0.671203 0.185588
H22   H     H_    0.044269 0.237489 0.579507 0.177008
H23   H     H_    0.967260 0.038483 0.702838 0.166677
H24   H     H_    0.959626 0.021901 0.822002 0.193117
H25   H     H_    0.020326 0.283161 0.955309 0.170034
H26   H     H_    0.176934 0.361770 0.114997 0.196937
H27   H     H_    0.827724 0.526779 0.464724 0.162795
H28   H     H_    0.603709 0.895077 0.585337 0.171720
O1    O     O_R   0.590580 0.537990 0.448200 -0.580916
O2    O     O_R   0.055380 0.642340 0.093300 -0.598666
O3    O     O_R   0.042560 0.447800 0.094700 -0.567377
O4    O     O_R   0.146930 0.552150 0.094670 -0.591489
O5    O     O_R   0.952370 0.357620 0.914350 -0.558558
O6    O     O_R   0.056740 0.461970 0.914310 -0.574690
O7    O     O_R   0.860810 0.447810 0.912980 -0.541777
O8    O     O_R   0.965190 0.552160 0.912950 -0.617355
O9    O     O_R   0.053330 0.909870 0.463140 -0.574986
O10   O     O_R   0.948140 0.909840 0.357940 -0.577632
O11   O     O_R   0.962430 0.909850 0.552620 -0.607321
O12   O     O_R   0.589760 0.642350 0.551790 -0.560104
O13   O     O_R   0.857240 0.909830 0.447420 -0.549423
O14   O     O_R   0.051860 0.090180 0.642080 -0.560750
O15   O     O_R   0.946670 0.090160 0.536880 -0.602194
O16   O     O_R   0.142760 0.090200 0.552610 -0.570633
O17   O     O_R   0.037570 0.090170 0.447410 -0.581357
O18   O     O_R   0.409540 0.447820 0.357340 -0.571831
O19   O     O_R   0.408720 0.552180 0.460940 -0.528909
O20   O     O_R   0.410240 0.357650 0.448210 -0.609229
O21   O     O_R   0.409420 0.462010 0.551800 -0.566251
O22   O     O_R   0.591280 0.447820 0.539060 -0.603816
O23   O     O_R   0.590460 0.552180 0.642660 -0.558700
O24   O     O_R   0.951000 0.537990 0.093340 -0.572191
O25   O     O_3   0.126752 0.511521 0.293680 -0.596551
C91   C     C_3   0.155336 0.539650 0.382579 -0.240755
H29   H     H_    0.203983 0.609203 0.421978 0.162308
H30   H     H_    0.181939 0.501101 0.405128 0.194859
H31   H     H_    0.099360 0.531723 0.393339 0.222521
O26   O     O_3   0.931202 0.614055 0.425461 -0.573222
C92   C     C_3   0.941970 0.634350 0.362239 -0.279998
H32   H     H_    0.990141 0.703199 0.392981 0.169861
H33   H     H_    0.879726 0.617911 0.308909 0.159391
H34   H     H_    0.968214 0.595801 0.332470 0.207889
O27   O     O_3   0.487658 0.204368 0.598657 -0.584113
C93   C     C_3   0.440211 0.185470 0.512218 -0.240346
H35   H     H_    0.479633 0.188175 0.479104 0.161716
H36   H     H_    0.412192 0.228870 0.509650 0.157191
H37   H     H_    0.385292 0.118969 0.475459 0.236158
O28   O     O_3   0.960162 0.815949 0.971783 -0.563322
C94   C     C_3   0.952431 0.819383 0.045184 -0.213220
H38   H     H_    0.988903 0.791558 0.075948 0.152803
H39   H     H_    0.883899 0.787104 0.029968 0.184978
H40   H     H_    0.981462 0.887854 0.093390 0.202551
O29   O     O_3   0.792122 0.319064 0.763203 -0.559842
C95   C     C_3   0.797578 0.271338 0.691209 -0.341184
H41   H     H_    0.827149 0.314230 0.668367 0.164003
H42   H     H_    0.734407 0.215815 0.636152 0.159175
H43   H     H_    0.838464 0.242800 0.711321 0.191850
S1    S     S_3+6 0.194483 0.114758 0.174694 0.038254
O30   O     O_2   0.227617 0.196013 0.169045 -0.240366
O31   O     O_2   0.253357 0.076719 0.172151 -0.280205
O32   O     O_3   0.094462 0.043045 0.090498 -0.495017
H44   H     H_    0.101423 0.030030 0.038391 0.405712
S2    S     S_3+6 0.429908 0.548625 0.809715 0.105366
O33   O     O_2   0.510294 0.586803 0.804230 -0.239896
O34   O     O_2   0.378961 0.593756 0.789704 -0.240344
O35   O     O_3   0.458796 0.564916 0.911206 -0.419140
H45   H     H_    0.456472 0.617591 0.941491 0.374180
S3    S     S_3+6 0.277454 0.411655 0.823454 0.059733
O36   O     O_2   0.271919 0.493245 0.841585 -0.231333
O37   O     O_2   0.195139 0.343464 0.806027 -0.276883
O38   O     O_3   0.359094 0.428025 0.911445 -0.484615
H46   H     H_    0.347216 0.450079 0.959400 0.381754
O39   O     O_3   0.199748 0.231977 0.680747 -0.550297
C96   C     C_3   0.257352 0.211357 0.730366 -0.133789
H47   H     H_    0.305183 0.266351 0.796581 0.192426
H48   H     H_    0.291858 0.189423 0.697643 0.118810
H49   H     H_    0.219829 0.157817 0.737911 0.183855
S4    S     S_3+6 0.690655 0.625270 0.985888 0.088904
O40   O     O_2   0.721381 0.609176 0.920859 -0.256450
O41   O     O_2   0.609372 0.545226 0.953259 -0.218046
O42   O     O_3   0.671119 0.708375 0.995263 -0.450184
H50   H     H_    0.612009 0.688372 0.986905 0.413051
O43   O     O_3   0.326179 0.951247 0.445655 -0.579836
C97   C     C_3   0.389495 0.934996 0.493156 -0.305929
H51   H     H_    0.416156 0.908093 0.453319 0.206261
H52   H     H_    0.364701 0.892036 0.518357 0.153751
H53   H     H_    0.443686 0.997197 0.550096 0.203697
O44   O     O_3   0.184991 0.963717 0.450764 -0.586478
C98   C     C_3   0.241679 0.988012 0.537652 -0.146377
H54   H     H_    0.305573 0.042574 0.562097 0.200201
H55   H     H_    0.249847 0.934614 0.546520 0.107793
H56   H     H_    0.216005 0.010600 0.580217 0.178055
S5    S     S_3+6 0.677719 0.697062 0.168608 0.039010
O45   O     O_2   0.596687 0.614853 0.097701 -0.227508
O46   O     O_2   0.685079 0.709147 0.254683 -0.300236
O47   O     O_3   0.672460 0.780750 0.157143 -0.503059
H57   H     H_    0.617805 0.776245 0.155274 0.374336
O48   O     O_3   0.829469 0.571256 0.022412 -0.584088
C99   C     C_3   0.762087 0.489516 0.995645 -0.103271
H58   H     H_    0.718982 0.457210 0.924490 0.195685
H59   H     H_    0.721156 0.490511 0.026965 0.129227
H60   H     H_    0.789804 0.448480 0.009376 0.168764
S6    S     S_3+6 0.982031 0.139401 0.982649 -0.012406
O49   O     O_2   0.072372 0.185508 0.057161 -0.263416
O50   O     O_2   0.930664 0.178512 0.009127 -0.320774
O51   O     O_3   0.935509 0.034478 0.954873 -0.523237
H61   H     H_    0.930838 0.033346 0.005664 0.400417
S7    S     S_3+6 0.072723 0.378920 0.547486 0.012413
O52   O     O_2   0.169641 0.427864 0.591974 -0.229303
O53   O     O_2   0.040491 0.296947 0.467815 -0.303569
O54   O     O_3   0.033037 0.439798 0.518752 -0.505982
H62   H     H_    0.969445 0.403570 0.488482 0.340391
O55   O     O_3   0.182579 0.363048 0.279402 -0.609459
C100  C     C_3   0.091552 0.319110 0.234419 -0.076860
H63   H     H_    0.063336 0.311576 0.168088 0.197309
H64   H     H_    0.066866 0.352533 0.272231 0.178787
H65   H     H_    0.068831 0.253587 0.227486 0.205111
S8    S     S_3+6 0.516812 0.726147 0.451541 -0.031405
O56   O     O_2   0.471313 0.710982 0.501610 -0.293029
O57   O     O_2   0.485235 0.773271 0.408501 -0.330777
O58   O     O_3   0.496375 0.633602 0.374415 -0.574159
H66   H     H_    0.521482 0.650602 0.339998 0.363657

loop_
_geom_bond_atom_site_label_1
_geom_bond_atom_site_label_2
_ccdc_geom_bond_type
C58   O15   A    
C8    C9    A    
C66   C68   A    
C87   C88   A    
C89   H19   S    
Cu3   Cu4   S    
C92   H33   S    
C34   O22   A    
C73   C74   A    
Cu6   O13   S    
S4    O41   D    
Cu5   Cu6   S    
C6    H28   S    
C99   H58   S    
S7    O52   D    
C3    O55   S    
Cu6   O15   S    
C52   O4    A    
C27   C54   S    
C7    C8    A    
Cu2   O12   S    
C98   H54   S    
C54   O7    A    
C23   O21   A    
C28   C29   A    
Cu5   O16   S    
C94   H38   S    
S8    O57   D    
Cu3   O24   S    
C83   C84   A    
C51   O24   A    
C36   C37   A    
C1    O1    A    
C62   O43   S    
Cu1   O20   S    
C10   C15   A    
C99   H59   S    
C5    C6    A    
C39   O39   S    
C31   C32   A    
S4    O42   S    
C95   H41   S    
C65   C70   A    
C79   H22   S    
Cu5   O9    S    
S5    O47   S    
C38   S3    S    
S3    O36   D    
C100  H65   S    
C18   C19   A    
O29   C95   S    
C49   C50   A    
Cu2   O19   S    
C8    H2    S    
O35   H45   S    
C96   H49   S    
C33   C35   A    
Cu6   O17   S    
S1    O30   D    
C52   O3    A    
O27   C93   S    
C45   C56   S    
C12   O18   A    
C97   H51   S    
C91   H31   S    
C47   C48   A    
C41   C46   A    
C45   C78   S    
C1    C15   S    
C51   C70   S    
C4    C12   S    
C1    O12   A    
Cu1   O1    S    
C9    C10   A    
C81   C85   A    
C18   H27   S    
C72   C73   A    
Cu1   O18   S    
C58   O14   A    
Cu4   O2    S    
S4    O40   D    
O43   C97   S    
C94   H39   S    
C23   C46   S    
C13   C14   A    
C74   O48   S    
C36   H11   S    
O44   C98   S    
C36   C41   A    
O42   H50   S    
C67   C78   S    
C84   C90   A    
Cu3   O5    S    
C17   O26   S    
C49   S1    S    
O55   C100  S    
C44   C46   A    
C17   C18   A    
S1    O31   D    
C4    C45   S    
C2    H26   S    
C78   C89   S    
C37   S2    S    
Cu3   O7    S    
C92   H32   S    
C63   O44   S    
C30   C34   S    
C63   C64   A    
C93   H37   S    
C84   C85   A    
C80   C82   A    
C2    C67   S    
C99   H60   S    
S6    O49   D    
O48   C99   S    
C16   C17   A    
Cu6   O10   S    
C20   H5    S    
C31   O29   S    
C25   C26   A    
C55   O9    A    
C100  H63   S    
Cu4   O8    S    
S2    O33   D    
C71   H18   S    
C73   S4    S    
C60   C61   A    
S8    O58   S    
C64   C66   A    
C2    C89   S    
C75   C76   A    
Cu3   O3    S    
C96   H47   S    
C37   C38   A    
C60   H16   S    
C45   H8    S    
S6    O50   D    
C34   O23   A    
C22   O28   S    
C3    C56   S    
C77   S7    S    
O54   H62   S    
C14   C15   A    
C20   C21   A    
C62   C63   A    
Cu5   O11   S    
S5    O45   D    
C77   C79   A    
C57   O13   A    
C69   C74   A    
C78   H14   S    
Cu4   O6    S    
C24   C25   A    
C100  H64   S    
C9    C11   A    
S1    O32   S    
O26   C92   S    
C86   H23   S    
C52   C67   S    
S3    O38   S    
C21   H6    S    
C69   C70   A    
C40   C41   A    
C92   H34   S    
C88   C90   A    
C60   C65   A    
C82   C83   A    
C94   H40   S    
C5    S8    S    
C43   C44   A    
C61   H17   S    
C90   H25   S    
C91   H30   S    
C23   O20   A    
C53   O5    A    
C42   C43   A    
C3    C4    S    
C56   C67   S    
S7    O54   S    
Cu1   Cu2   S    
C55   C66   S    
C4    C89   S    
C98   H56   S    
C44   C50   A    
O39   C96   S    
C47   H12   S    
O28   C94   S    
Cu5   O14   S    
C96   H48   S    
C7    H1    S    
Cu2   O21   S    
C86   C87   A    
C51   O2    A    
C14   C19   A    
C68   C69   A    
C28   C31   A    
C75   C81   A    
C80   C81   A    
C20   C26   A    
S7    O53   D    
C42   C59   S    
C19   H4    S    
C12   O19   A    
C16   H3    S    
C68   C71   A    
C6    C7    A    
C75   H20   S    
Cu4   O4    S    
C25   C27   A    
C55   O10   A    
C54   O8    A    
C29   C35   A    
C76   H21   S    
C88   S6    S    
C97   H53   S    
C32   H9    S    
C24   H7    S    
C64   C65   A    
S2    O35   S    
C58   C82   S    
C2    C3    S    
O38   H46   S    
C35   H10   S    
C11   C57   S    
O25   C91   S    
C32   C33   A    
S6    O51   S    
C76   C77   A    
C11   C13   A    
C38   C39   A    
C95   H42   S    
C59   O16   A    
C72   S5    S    
C48   C49   A    
C40   C42   A    
C50   H15   S    
S5    O46   D    
S3    O37   D    
C48   H13   S    
C22   C24   A    
C61   C62   A    
C93   H35   S    
O58   H66   S    
C29   C30   A    
C79   C80   A    
C39   C40   A    
C5    C10   A    
C83   C86   A    
C71   C72   A    
O47   H57   S    
C59   O17   A    
C97   H52   S    
O32   H44   S    
S8    O56   D    
C13   C16   A    
C27   C28   A    
C91   H29   S    
C57   O11   A    
C53   C85   S    
C53   O6    A    
S2    O34   D    
C56   O25   S    
C21   C22   A    
C98   H55   S    
C43   C47   A    
O51   H61   S    
C95   H43   S    
Cu1   O22   S    
C87   H24   S    
C33   O27   S    
C93   H36   S    
Cu2   O23   S    
C26   C30   A    
