data_mof_unit_36246.cif
_audit_creation_date              2013-03-05T16:03:57-0500
_audit_creation_method            fapswitch 2.2
_symmetry_space_group_name_H-M    P1
_symmetry_Int_Tables_number       1
_space_group_crystal_system       triclinic
_cell_length_a                    8.210903
_cell_length_b                    14.707493
_cell_length_c                    26.868953
_cell_angle_alpha                 94.897111
_cell_angle_beta                  91.888644
_cell_angle_gamma                 88.493992
_cell_volume                      3230.2448386

loop_
_atom_site_label
_atom_site_type_symbol
_atom_site_description
_atom_site_fract_x
_atom_site_fract_y
_atom_site_fract_z
_atom_type_partial_charge
P1    P     P_3+3 0.090020 0.577590 0.608380 0.469683
O1    O     O_2   0.918080 0.549800 0.616640 -0.384972
O2    O     O_3   0.150070 0.549720 0.556460 -0.371365
O3    O     O_3   0.658250 0.379560 0.591530 -0.368530
O4    O     O_2   0.829693 0.427850 0.675462 -0.413522
O5    O     O_3   0.094403 0.695447 0.620609 -0.629475
O6    O     O_3   0.593994 0.317251 0.686707 -0.545469
H1    H     H_    0.793414 0.240455 0.660364 0.172405
C1    C     C_3   0.623268 0.158221 0.695895 -0.521394
H2    H     H_    0.637955 0.091799 0.673501 0.172459
P2    P     P_3+3 0.614340 0.285150 0.467650 0.454371
P3    P     P_3+3 0.091021 0.217349 0.578396 0.395401
O7    O     O_2   0.790750 0.271170 0.482550 -0.389077
O8    O     O_3   0.062300 0.331660 0.568480 -0.374660
O9    O     O_2   0.940909 0.167959 0.553540 -0.426753
O10   O     O_3   0.613676 0.253604 0.403399 -0.585386
O11   O     O_3   0.073675 0.208270 0.642320 -0.549718
C2    C     C_3   0.176426 0.272784 0.667683 0.409539
H3    H     H_    0.133567 0.342856 0.660935 0.133558
H4    H     H_    0.303992 0.261952 0.655581 0.075953
C3    C     C_3   0.172884 0.263948 0.723522 -0.993349
H5    H     H_    0.048778 0.280722 0.737239 0.268145
H6    H     H_    0.208841 0.193499 0.731929 0.255173
C4    C     C_3   0.180632 0.248795 0.369801 1.058515
H7    H     H_    0.294764 0.276010 0.388898 -0.031848
C5    C     C_3   0.226185 0.207667 0.317699 -0.875666
H8    H     H_    0.297291 0.257625 0.298061 0.207537
H9    H     H_    0.302309 0.143760 0.320631 0.209454
H10   H     H_    0.112973 0.189982 0.295059 0.262191
Ba1   Ba    Ba6+2 0.849670 0.455410 0.524690 1.541017
C6    C     C_3   0.995825 0.740484 0.587085 0.258526
H11   H     H_    0.877201 0.706917 0.580522 0.114440
H12   H     H_    0.059621 0.743359 0.551282 0.103870
C7    C     C_3   0.969342 0.835994 0.612346 0.106448
H13   H     H_    0.903313 0.829682 0.647584 0.106860
H14   H     H_    0.090985 0.863935 0.622735 0.105730
C8    C     C_3   0.666390 0.325735 0.377847 0.430665
H15   H     H_    0.778582 0.355310 0.395848 0.129090
H16   H     H_    0.569325 0.379782 0.377069 0.086909
C9    C     C_3   0.702196 0.288509 0.324421 -0.940391
H17   H     H_    0.781847 0.226050 0.324689 0.295285
H18   H     H_    0.765689 0.339596 0.304611 0.230323
H19   H     H_    0.586397 0.270904 0.303607 0.234324
P4    P     P_3+3 0.099670 0.422330 0.391610 0.432324
O12   O     O_2   0.271610 0.450170 0.383330 -0.405417
O13   O     O_3   0.039630 0.450200 0.443530 -0.400574
O14   O     O_3   0.531440 0.620360 0.408460 -0.365507
O15   O     O_3   0.057447 0.313954 0.364008 -0.634380
P5    P     P_3+3 0.124427 0.783828 0.424210 0.456861
O16   O     O_3   0.643350 0.612530 0.521650 -0.390695
O17   O     O_3   0.127390 0.668260 0.431510 -0.360110
O18   O     O_2   0.271079 0.818961 0.456846 -0.416173
O19   O     O_3   0.185638 0.800517 0.363768 -0.515219
Ba2   Ba    Ba6+2 0.340150 0.544510 0.475310 1.537705
P6    P     P_3+3 0.652832 0.410706 0.655904 0.475373
C10   C     C_3   0.660260 0.236013 0.663856 0.383356
H20   H     H_    0.602190 0.221119 0.626181 0.057386
H21   H     H_    0.493669 0.165074 0.706212 0.196160
O20   O     O_3   0.546340 0.387390 0.478340 -0.391433
C11   C     C_3   0.521353 0.698899 0.622017 0.359145
H22   H     H_    0.412007 0.668490 0.602334 0.104760
H23   H     H_    0.614038 0.643709 0.626145 0.070448
C12   C     C_3   0.466500 0.741178 0.673300 -0.441594
H24   H     H_    0.370609 0.794249 0.666948 0.187894
H25   H     H_    0.409093 0.688660 0.693756 0.174812
P7    P     P_3+3 0.585808 0.730617 0.531623 0.437594
O21   O     O_2   0.398940 0.728800 0.517420 -0.350787
O22   O     O_3   0.587574 0.766502 0.595513 -0.589981
H26   H     H_    0.259609 0.312071 0.743171 0.280056
C13   C     C_3   0.083849 0.751829 0.328546 0.547924
H27   H     H_    0.110043 0.677182 0.328402 0.077329
H28   H     H_    0.954511 0.765865 0.336750 -0.229137
C14   C     C_3   0.110991 0.783699 0.276848 0.132558
H29   H     H_    0.014178 0.756374 0.249989 0.060559
H30   H     H_    0.095010 0.859289 0.279049 0.122139
P8    P     P_3+3 0.537672 0.600405 0.343923 0.492748
C15   C     C_3   0.616682 0.769030 0.354538 0.387132
H31   H     H_    0.728486 0.739936 0.372103 -0.054699
O23   O     O_2   0.368869 0.565234 0.325886 -0.405599
O24   O     O_3   0.547376 0.705555 0.318466 -0.477252
H32   H     H_    0.528448 0.788354 0.384441 0.118809
H33   H     H_    0.758849 0.891885 0.352037 0.016538
C16   C     C_3   0.662153 0.853892 0.329339 0.181028
H34   H     H_    0.717699 0.832047 0.292884 0.129998
C17   C     C_R   0.047998 0.439357 0.183143 0.516114
O25   O     O_2   0.091339 0.375108 0.206786 -0.600862
N1    N     N_R   0.955169 0.510565 0.205863 -0.162560
C18   C     C_R   0.904044 0.582471 0.178251 0.476407
C19   C     C_2   0.751627 0.523627 0.271354 -0.171154
C20   C     C_3   0.704620 0.518958 0.325220 0.128969
C21   C     C_1   0.988000 0.491248 0.346828 0.380165
C22   C     C_2   0.033112 0.491434 0.299381 -0.256307
C23   C     C_2   0.909174 0.509468 0.258229 0.108213
C24   C     C_R   0.034439 0.510406 0.103862 -0.073050
C25   C     C_R   0.090659 0.439167 0.132323 -0.058941
C26   C     C_R   0.187602 0.368766 0.109205 -0.089940
C27   C     C_R   0.942795 0.583193 0.127250 -0.051486
C28   C     C_2   0.851160 0.532764 0.360412 -0.467060
H35   H     H_    0.155285 0.469582 0.289239 0.197224
H36   H     H_    0.232363 0.312548 0.129835 0.165800
C29   C     C_2   0.357355 0.491422 0.639960 -0.457053
C30   C     C_R   0.223044 0.444955 0.979270 0.061555
C31   C     C_R   0.024288 0.571682 0.969991 -0.006860
C32   C     C_R   0.145578 0.509921 0.949342 0.041339
C33   C     C_R   0.345495 0.386621 0.957402 -0.208884
C34   C     C_R   0.386657 0.389891 0.907654 -0.112246
C35   C     C_R   0.308364 0.451720 0.877283 -0.033061
C36   C     C_R   0.187269 0.511594 0.898066 -0.072901
C37   C     C_R   0.106960 0.572541 0.867457 -0.068602
C38   C     C_R   0.153238 0.575858 0.817146 0.539495
N2    N     N_R   0.271115 0.515820 0.796459 -0.161943
C39   C     C_R   0.347739 0.453723 0.826377 0.502282
C40   C     C_2   0.467420 0.510382 0.728211 -0.161918
C41   C     C_3   0.508206 0.506315 0.672967 0.165149
C42   C     C_1   0.216405 0.524043 0.655736 0.289224
C43   C     C_2   0.178009 0.522527 0.703354 -0.242976
C44   C     C_2   0.310347 0.516257 0.743332 0.113710
O26   O     O_2   0.448943 0.398909 0.808646 -0.599631
C45   C     C_R   0.175673 0.440329 0.029790 0.041466
C46   C     C_R   0.071019 0.509380 0.051989 0.083638
C47   C     C_R   0.004823 0.578560 0.023023 0.043771
C48   C     C_R   0.230522 0.369655 0.059342 -0.212765
H37   H     H_    0.567666 0.510802 0.755565 0.161731
H38   H     H_    0.481591 0.343482 0.893051 0.163578
H39   H     H_    0.414944 0.338672 0.978238 0.126803
H40   H     H_    0.304007 0.312411 0.044563 0.127168
O27   O     O_2   0.825274 0.646427 0.198103 -0.615648
C49   C     C_R   0.897107 0.657006 0.099539 -0.104437
H41   H     H_    0.656404 0.532242 0.243023 0.153198
H42   H     H_    0.836714 0.717197 0.117147 0.167379
C50   C     C_R   0.923726 0.620116 0.935865 0.183490
C51   C     C_R   0.974716 0.625084 0.886638 -0.184113
O28   O     O_2   0.089193 0.633144 0.792014 -0.614960
C52   C     C_R   0.931541 0.655593 0.048913 -0.201860
H43   H     H_    0.902889 0.665745 0.861778 0.162574
H44   H     H_    0.051419 0.526010 0.713500 0.199676
H45   H     H_    0.909758 0.717957 0.031288 0.127663
H46   H     H_    0.839987 0.566096 0.397830 0.170236
H47   H     H_    0.366506 0.457589 0.602552 0.171185
C53   C     C_R   0.697519 0.064332 0.472944 -0.114775
C54   C     C_R   0.521462 0.198122 0.504930 0.279859
C55   C     C_R   0.394033 0.229808 0.535511 -0.494369
C56   C     C_R   0.289257 0.169472 0.554979 0.157984
C57   C     C_R   0.332233 0.075685 0.554076 0.039894
C58   C     C_R   0.470835 0.041390 0.526822 -0.016351
C59   C     C_R   0.563660 0.101921 0.500803 -0.068933
H48   H     H_    0.361816 0.301855 0.538199 0.176711
C60   C     C_R   0.647233 0.910086 0.496507 0.008972
C61   C     C_R   0.744503 0.970094 0.471918 -0.074017
C62   C     C_R   0.688969 0.814891 0.494954 0.277740
C63   C     C_R   0.828010 0.782823 0.470259 -0.525216
C64   C     C_R   0.932519 0.840728 0.448497 0.090276
C65   C     C_R   0.891140 0.936179 0.448763 0.429342
C66   C     C_R   0.515032 0.947172 0.523958 -0.148513
H49   H     H_    0.859828 0.710995 0.470386 0.178160
H50   H     H_    0.768138 0.108532 0.452538 0.209348
H51   H     H_    0.449318 0.901347 0.544331 0.178508
O29   O     O_3   0.886956 0.893358 0.580044 -0.618471
C67   C     C_3   0.817979 0.968823 0.608570 -0.217422
H52   H     H_    0.903824 0.998779 0.638022 0.138965
H53   H     H_    0.705851 0.948032 0.625923 0.146845
H54   H     H_    0.784494 0.023022 0.583663 0.203578
C68   C     C_3   0.604144 0.786148 0.706180 -0.283600
C69   C     C_3   0.730614 0.717322 0.724655 -0.807582
H55   H     H_    0.673687 0.674395 0.751323 0.240917
H56   H     H_    0.782194 0.672265 0.693159 0.261487
H57   H     H_    0.833680 0.754918 0.744448 0.257788
H58   H     H_    0.664342 0.837511 0.685685 0.205773
H59   H     H_    0.549127 0.824008 0.739420 0.192678
C70   C     C_3   0.728055 0.159838 0.744511 -0.136646
C71   C     C_3   0.877250 0.096113 0.739218 -0.984614
H60   H     H_    0.838870 0.024095 0.732865 0.254938
H61   H     H_    0.950183 0.112723 0.707443 0.304801
H62   H     H_    0.954555 0.103548 0.773952 0.262158
H63   H     H_    0.767071 0.230228 0.756632 0.224594
H64   H     H_    0.653634 0.136989 0.774689 0.189051
O30   O     O_3   0.271732 0.761276 0.261660 -0.514938
C72   C     C_3   0.272735 0.683087 0.227318 0.011918
H65   H     H_    0.212174 0.698587 0.191262 0.089582
H66   H     H_    0.213611 0.624656 0.242640 0.085100
H67   H     H_    0.401216 0.662180 0.219775 0.168915
O31   O     O_3   0.521252 0.907940 0.319864 -0.529645
C73   C     C_3   0.502721 0.977502 0.358927 -0.118346
H68   H     H_    0.382181 0.011463 0.353886 0.156931
H69   H     H_    0.598457 0.029672 0.357885 0.151508
H70   H     H_    0.504476 0.949295 0.396090 0.088784
C74   C     C_3   0.747482 0.650857 0.945730 -0.376711
C75   C     C_3   0.644556 0.572266 0.959780 -0.830071
H71   H     H_    0.657360 0.512753 0.931654 0.260070
H72   H     H_    0.681736 0.551105 0.997233 0.261108
H73   H     H_    0.514091 0.594297 0.960697 0.246769
H74   H     H_    0.736234 0.709997 0.973570 0.182082
H75   H     H_    0.688322 0.675625 0.911402 0.184025
C76   C     C_3   0.234460 0.014827 0.584341 -0.280197
C77   C     C_3   0.312060 0.010665 0.636471 -0.941070
H76   H     H_    0.434368 0.977036 0.634175 0.254519
H77   H     H_    0.322416 0.080830 0.654705 0.269343
H78   H     H_    0.236009 0.972441 0.660549 0.243783
H79   H     H_    0.108549 0.040501 0.588449 0.243714
H80   H     H_    0.217655 0.945894 0.565338 0.178141
O32   O     O_3   0.983493 0.997333 0.424981 -0.627280
C78   C     C_3   0.150399 0.990991 0.439333 -0.035108
H81   H     H_    0.215595 0.948699 0.410301 0.184483
H82   H     H_    0.171178 0.971572 0.478379 0.109277
H83   H     H_    0.214178 0.054866 0.437605 0.122991
O33   O     O_3   0.108555 0.180685 0.395049 -0.638278
C79   C     C_3   0.111611 0.212045 0.446520 -0.102892
H84   H     H_    0.239200 0.205931 0.459635 0.032811
H85   H     H_    0.036595 0.167059 0.466763 0.209395
H86   H     H_    0.066275 0.283538 0.454850 0.183074

loop_
_geom_bond_atom_site_label_1
_geom_bond_atom_site_label_2
_geom_bond_distance
_ccdc_geom_bond_type
P7    O22   1.752079 S    
C71   H60   1.110626 S    
C12   H25   1.108875 S    
C2    C3    1.518251 S    
C17   C25   1.420584 A    
C14   H29   1.115200 S    
N2    C39   1.392089 Am   
P8    O23   1.540830 D    
O6    P6    1.750165 S    
N1    C18   1.391106 Am   
H1    C10   1.104523 S    
C52   H45   1.075874 S    
C58   C59   1.428044 A    
C29   H47   1.086799 S    
C70   H64   1.110748 S    
C15   H31   1.110803 S    
C10   H20   1.111684 S    
C12   C68   1.539153 S    
Ba1   Ba2   4.541265 S    
C5    H8    1.126156 S    
O16   Ba2   2.909101 S    
C78   H82   1.117192 S    
C28   H46   1.085856 S    
C75   H73   1.111430 S    
C75   H72   1.109498 S    
C69   H55   1.115943 S    
C60   C62   1.430084 A    
O14   P8    1.736027 S    
C7    H13   1.118257 S    
C8    C9    1.527079 S    
C73   H69   1.115462 S    
C67   H52   1.112296 S    
O2    Ba2   2.717617 S    
C56   C57   1.413165 A    
C15   O24   1.404217 S    
C57   C76   1.520527 S    
C70   C71   1.525676 S    
C15   C16   1.530035 S    
C42   C43   1.329925 D    
N1    C23   1.470305 S    
C19   H41   1.085759 S    
C36   C37   1.404899 A    
C30   C33   1.414121 A    
C11   H23   1.108015 S    
P1    O1    1.508612 D    
O32   C78   1.414253 S    
C4    O33   1.409819 S    
C61   C65   1.431917 A    
C38   N2    1.390026 Am   
P1    Ba1   3.374052 S    
C31   C32   1.423917 A    
O31   C73   1.410846 S    
C24   C46   1.434156 A    
C9    H19   1.112221 S    
C76   H80   1.105418 S    
C68   C69   1.531663 S    
P2    Ba1   3.428843 S    
P5    O17   1.726994 S    
C78   H83   1.092643 S    
P3    O11   1.744819 S    
C79   H86   1.113105 S    
C35   C36   1.408024 A    
C6    H12   1.114860 S    
C13   H27   1.112892 S    
C63   H49   1.081809 S    
C47   C52   1.409535 A    
C1    H2    1.108670 S    
C2    H4    1.110439 S    
C18   C27   1.417942 A    
O10   C8    1.397222 S    
Ba2   O20   2.833773 S    
C77   H78   1.109807 S    
C14   O30   1.416647 S    
C9    H18   1.107623 S    
C76   C77   1.524925 S    
Ba1   O16   2.834409 S    
C3    H5    1.109558 S    
C74   H75   1.112627 S    
C29   C41   1.509095 S    
C14   H30   1.112791 S    
C1    C70   1.539112 S    
C60   C66   1.404545 A    
O6    C10   1.401145 S    
O8    Ba1   2.794325 S    
C27   C49   1.404230 A    
P2    O20   1.596260 S    
O19   C13   1.403770 S    
P4    O13   1.514682 S    
C72   H65   1.112546 S    
C65   O32   1.399371 S    
C70   H63   1.110618 S    
C17   N1    1.389250 Am   
C71   H62   1.110424 S    
C6    C7    1.520552 S    
C78   H81   1.099602 S    
C12   H24   1.113491 S    
C79   H84   1.098134 S    
C4    O15   1.389171 S    
O7    Ba1   2.892673 S    
P7    O21   1.569206 D    
C60   C61   1.422917 A    
C66   H51   1.070802 S    
C73   H70   1.113029 S    
C53   C59   1.423231 A    
C21   C22   1.339491 D    
O33   C79   1.419651 S    
C2    H3    1.107904 S    
Ba2   O21   2.892904 S    
C24   C27   1.407512 A    
C17   O25   1.221892 D    
P1    O5    1.737563 S    
C16   O31   1.414910 S    
C3    H26   1.106642 S    
C11   H22   1.111420 S    
P1    O2    1.514711 S    
C48   H40   1.078228 S    
O2    Ba1   2.928381 S    
C73   H68   1.106417 S    
C75   H71   1.111640 S    
C8    H15   1.107933 S    
C49   C52   1.396740 A    
C71   H61   1.106451 S    
P2    O10   1.748825 S    
C16   H34   1.112965 S    
C40   H37   1.085051 S    
P3    O9    1.550116 D    
C15   H32   1.113443 S    
C63   C64   1.400017 A    
P5    O18   1.540020 D    
Ba1   O20   2.910107 S    
O13   Ba2   2.929274 S    
C13   C14   1.528364 S    
C67   H53   1.107238 S    
O11   C2    1.403675 S    
C67   H54   1.107397 S    
C1    C10   1.531677 S    
C4    H7    1.120122 S    
C30   C32   1.424664 A    
P2    C54   1.882501 S    
C74   H74   1.101763 S    
P4    C21   1.844615 S    
C54   C59   1.443678 A    
C53   H50   1.077518 S    
O14   Ba2   2.749168 S    
C40   C44   1.363293 D    
C58   C66   1.419509 A    
C7    O29   1.406761 S    
C9    H17   1.113948 S    
P3    O8    1.733386 S    
O12   Ba2   2.777346 S    
O30   C72   1.411647 S    
C11   C12   1.538845 S    
O3    P6    1.752795 S    
O29   C67   1.410825 S    
C29   C42   1.310607 D    
C50   C51   1.408807 A    
C31   C47   1.433774 A    
C32   C36   1.432920 A    
C46   C47   1.419394 A    
C40   C41   1.528282 S    
C45   C48   1.416500 A    
C1    H21   1.108329 S    
P5    C64   1.874664 S    
C55   C56   1.396517 A    
C55   H48   1.082346 S    
O4    P6    1.547550 D    
C6    H11   1.105708 S    
P4    O12   1.508947 D    
P8    O24   1.748305 S    
C4    C5    1.530885 S    
C57   C58   1.430908 A    
C49   H42   1.083655 S    
C72   H66   1.113180 S    
C45   C46   1.417755 A    
O16   P7    1.788061 S    
P7    C62   1.882324 S    
C43   H44   1.082042 S    
P6    C41   1.853561 S    
C26   C48   1.397750 A    
C18   O27   1.221774 D    
C33   C34   1.394589 A    
C37   C51   1.402365 A    
C5    H9    1.121973 S    
P3    C56   1.863534 S    
Ba1   O13   2.717248 S    
O1    Ba1   2.776784 S    
O17   Ba2   2.795085 S    
C33   H39   1.077555 S    
C3    H6    1.109605 S    
C68   H58   1.107627 S    
C74   C75   1.529601 S    
C8    H16   1.111720 S    
C54   C55   1.397404 A    
C39   O26   1.221783 D    
P2    O7    1.503608 D    
C51   H43   1.084115 S    
P5    O19   1.754594 S    
C26   H36   1.083897 S    
C69   H56   1.117054 S    
C22   C23   1.513360 S    
C43   C44   1.509218 S    
O5    C6    1.389567 S    
C7    H14   1.108155 S    
C69   H57   1.117787 S    
C21   C28   1.312024 D    
C19   C23   1.358131 D    
C24   C25   1.408456 A    
C68   H59   1.113653 S    
C72   H67   1.111278 S    
N2    C44   1.474284 S    
C77   H76   1.108937 S    
C76   H79   1.097030 S    
P4    Ba2   3.374831 S    
C64   C65   1.435137 A    
C11   O22   1.402197 S    
C5    H10   1.118140 S    
H33   C16   1.117044 S    
C34   C35   1.402662 A    
C34   H38   1.083480 S    
C25   C26   1.403914 A    
C79   H85   1.103598 S    
C62   C63   1.390794 A    
C35   C39   1.418724 A    
C38   O28   1.221811 D    
C13   H28   1.102341 S    
P1    C42   1.832280 S    
C19   C20   1.517758 S    
C37   C38   1.421368 A    
C31   C50   1.435493 A    
C53   C61   1.427115 A    
C20   C28   1.512679 S    
O3    Ba1   2.749623 S    
C30   C45   1.431950 A    
P4    O15   1.738139 S    
C22   H35   1.081659 S    
P8    C20   1.850090 S    
C77   H77   1.108037 S    
C50   C74   1.529464 S    
