data_mof_unit_65976.cif
_audit_creation_date              2012-12-10T18:23:12-0500
_audit_creation_method            fapswitch 2.2
_symmetry_space_group_name_H-M    P1
_symmetry_Int_Tables_number       1
_space_group_crystal_system       triclinic
_cell_length_a                    21.755203
_cell_length_b                    21.813777
_cell_length_c                    22.339895
_cell_angle_alpha                 59.776031
_cell_angle_beta                  119.983201
_cell_angle_gamma                 90.798298
_cell_volume                      7524.0391553

loop_
_atom_site_label
_atom_site_type_symbol
_atom_type_description
_atom_site_fract_x
_atom_site_fract_y
_atom_site_fract_z
_atom_type_partial_charge
C1    C     C_R   0.623832 0.496131 0.507085 0.902761
C2    C     C_3   0.290272 0.710608 0.082760 0.044270
C3    C     C_3   0.175961 0.769415 0.969944 -0.244562
C4    C     C_3   0.208503 0.793130 0.917244 0.164895
C5    C     C_3   0.236133 0.790043 0.025732 -0.024791
C6    C     C_3   0.267351 0.815382 0.971348 -0.168401
C7    C     C_1   0.336605 0.664772 0.173846 0.089819
C8    C     C_1   0.163611 0.838129 0.826295 0.001575
C9    C     C_3   0.734483 0.413267 0.539509 -0.207753
C10   C     C_3   0.807141 0.420698 0.539172 -0.305760
C11   C     C_3   0.663720 0.555537 0.413310 -0.341655
C12   C     C_R   0.419246 0.581342 0.338008 0.924463
C13   C     C_3   0.746820 0.517012 0.566094 -0.258914
C14   C     C_3   0.691680 0.494299 0.507809 -0.178298
C15   C     C_3   0.807066 0.504682 0.496289 -0.113587
C16   C     C_3   0.730106 0.553131 0.404726 -0.225918
C17   C     C_3   0.811477 0.528961 0.554067 -0.286792
C18   C     C_3   0.720283 0.197827 0.027952 -0.135984
C19   C     C_3   0.681499 0.283523 0.970522 -0.176845
C20   C     C_1   0.626026 0.373429 0.751203 -0.090560
C21   C     C_1   0.874022 0.126265 0.248780 -0.130442
C22   C     C_3   0.748427 0.206010 0.973635 -0.174824
C23   C     C_R   0.377012 0.501192 0.495591 0.854782
C24   C     C_3   0.710264 0.291003 0.917546 0.111106
C25   C     C_3   0.820892 0.216081 0.030131 -0.187297
C26   C     C_3   0.791731 0.208897 0.082616 0.172481
C27   C     C_3   0.781581 0.301204 0.973016 -0.000846
C28   C     C_3   0.753779 0.293801 0.026979 -0.187788
C29   C     C_1   0.664174 0.335866 0.826428 0.014109
C30   C     C_1   0.836628 0.163689 0.173597 -0.026637
C31   C     C_3   0.256683 0.463016 0.449619 -0.143246
C32   C     C_3   0.192998 0.454810 0.463639 -0.471484
C33   C     C_3   0.333481 0.453120 0.586636 -0.485713
C34   C     C_R   0.580935 0.418632 0.662066 0.935331
C35   C     C_3   0.261147 0.581690 0.448655 -0.268899
C36   C     C_3   0.308153 0.499503 0.493800 -0.023215
C37   C     C_3   0.189963 0.499671 0.498991 -0.062371
C38   C     C_3   0.264977 0.457817 0.590679 -0.142250
C39   C     C_3   0.185761 0.581989 0.439997 -0.256984
C40   C     C_R   0.997377 0.882020 0.494947 0.889699
C41   C     C_R   0.081257 0.918977 0.662087 0.911587
C42   C     C_R   0.002518 0.118859 0.503911 0.909002
C43   C     C_R   0.918797 0.081601 0.337891 0.987220
C44   C     C_R   0.007034 0.378619 0.500334 0.826209
C45   C     C_3   0.262435 0.713493 0.973169 -0.180405
C46   C     C_R   0.877440 0.504360 0.498703 0.909303
C47   C     C_R   0.999652 0.622768 0.498380 0.952811
C48   C     C_R   0.122053 0.500062 0.500263 0.838203
C49   C     C_3   0.037154 0.816754 0.444973 -0.263710
C50   C     C_3   0.042987 0.739389 0.450342 -0.299337
C51   C     C_3   0.040448 0.748279 0.581605 -0.455835
C52   C     C_3   0.910400 0.815072 0.443380 -0.229180
C53   C     C_3   0.995415 0.817625 0.488952 -0.121944
C54   C     C_3   0.999360 0.694981 0.491830 -0.131849
C55   C     C_3   0.042124 0.676376 0.585176 -0.184565
C56   C     C_3   0.322057 0.734790 0.029175 -0.180257
C57   C     C_3   0.915167 0.745343 0.438607 -0.350258
C58   C     C_3   0.086284 0.176531 0.574182 -0.276493
C59   C     C_3   0.089094 0.250031 0.569975 -0.281485
C60   C     C_3   0.985390 0.254381 0.415661 -0.270574
C61   C     C_3   0.948289 0.204147 0.524772 -0.176893
C62   C     C_3   0.004071 0.187128 0.503679 -0.139297
C63   C     C_3   0.008821 0.309754 0.500931 -0.092402
C64   C     C_3   0.986720 0.327217 0.413233 -0.253682
C65   C     C_3   0.953334 0.277086 0.520999 -0.397520
C66   C     C_1   0.374613 0.626646 0.249002 -0.042214
C67   C     C_1   0.126164 0.875125 0.751131 -0.117851
C68   C     C_3   0.231265 0.689705 0.027463 -0.024937
H1    H     H_    0.382410 0.720034 0.054604 0.178886
H2    H     H_    0.714506 0.570574 0.545474 0.213597
H3    H     H_    0.623689 0.311731 0.944713 0.164137
H4    H     H_    0.272346 0.682546 0.950112 0.170425
H5    H     H_    0.756944 0.329054 0.050285 0.177835
H6    H     H_    0.878766 0.187987 0.055981 0.176843
H7    H     H_    0.745465 0.170753 0.950395 0.167699
H8    H     H_    0.230647 0.502336 0.380981 0.228066
H9    H     H_    0.363723 0.393774 0.619656 0.224686
H10   H     H_    0.375913 0.472420 0.621723 0.195289
H11   H     H_    0.097924 0.747337 0.620607 0.224192
H12   H     H_    0.894355 0.707942 0.474285 0.217018
H13   H     H_    0.018488 0.750589 0.616052 0.212754
H14   H     H_    0.098364 0.132046 0.636313 0.192456
H15   H     H_    0.125255 0.274914 0.548660 0.161060
H16   H     H_    0.033089 0.240574 0.414011 0.189762
H17   H     H_    0.034069 0.342509 0.408553 0.150743
H18   H     H_    0.899228 0.320594 0.471761 0.236613
O1    O     O_R   0.592630 0.447740 0.499990 -0.588801
O2    O     O_R   0.947670 0.907410 0.499960 -0.597005
O3    O     O_R   0.113890 0.938270 0.623230 -0.598521
O4    O     O_R   0.009320 0.938380 0.623210 -0.596417
O5    O     O_R   0.052330 0.092440 0.500040 -0.630639
O6    O     O_R   0.947760 0.092550 0.500030 -0.555180
O7    O     O_R   0.990680 0.061470 0.376790 -0.579237
O8    O     O_R   0.886110 0.061580 0.376770 -0.586411
O9    O     O_R   0.034860 0.372650 0.569600 -0.604995
O10   O     O_R   0.965300 0.442140 0.430470 -0.598169
O11   O     O_R   0.942170 0.465260 0.569550 -0.638038
O12   O     O_R   0.592590 0.552250 0.500040 -0.609814
O13   O     O_R   0.872610 0.534760 0.430420 -0.534743
O14   O     O_R   0.034700 0.557860 0.569530 -0.577187
O15   O     O_R   0.965140 0.627350 0.430400 -0.569012
O16   O     O_R   0.127390 0.465250 0.569580 -0.576370
O17   O     O_R   0.057830 0.534740 0.430450 -0.619329
O18   O     O_R   0.438420 0.509360 0.376750 -0.599311
O19   O     O_R   0.438370 0.613870 0.376810 -0.591151
O20   O     O_R   0.407410 0.447750 0.499960 -0.611815
O21   O     O_R   0.407370 0.552260 0.500010 -0.629883
O22   O     O_R   0.561630 0.386130 0.623190 -0.596744
O23   O     O_R   0.561580 0.490640 0.623250 -0.587170
O24   O     O_R   0.052240 0.907300 0.499970 -0.603242
Zn1   Zn    Zn3+2 0.500030 0.430220 0.499960 1.105953
Zn2   Zn    Zn3+2 0.499970 0.569780 0.500040 1.076965
Zn3   Zn    Zn3+2 0.069820 0.999850 0.500010 1.096213
Zn4   Zn    Zn3+2 0.930180 0.000000 0.499990 1.110472
Zn5   Zn    Zn3+2 0.046440 0.453600 0.592900 1.104445
Zn6   Zn    Zn3+2 0.953560 0.546400 0.407100 1.151708
C69   C     C_2   0.820625 0.380173 0.505756 0.891806
O25   O     O_2   0.837008 0.312000 0.546644 -0.561724
O26   O     O_R   0.805932 0.420091 0.425237 -0.783290
H19   H     H_    0.787495 0.392622 0.397418 0.387780
H20   H     H_    0.622491 0.538695 0.374167 0.176235
H21   H     H_    0.721305 0.518843 0.380084 0.229727
C70   C     C_2   0.773819 0.466886 0.658326 0.933062
O27   O     O_2   0.730312 0.469247 0.677134 -0.576214
O28   O     O_R   0.847571 0.418945 0.721924 -0.785736
H22   H     H_    0.857408 0.388885 0.779971 0.368878
H23   H     H_    0.866425 0.494117 0.615769 0.185886
C71   C     C_2   0.810198 0.608181 0.525092 1.019806
O29   O     O_2   0.801373 0.652177 0.458197 -0.575492
O30   O     O_R   0.813303 0.632386 0.573542 -0.755380
H24   H     H_    0.797010 0.688823 0.541114 0.385725
C72   C     C_2   0.617068 0.633531 0.374015 1.023453
O31   O     O_2   0.551803 0.659443 0.313455 -0.638919
O32   O     O_R   0.647217 0.675948 0.405334 -0.747939
H25   H     H_    0.609775 0.726217 0.373053 0.364198
C73   C     C_2   0.723825 0.624959 0.331272 1.043560
O33   O     O_2   0.740621 0.620311 0.288585 -0.577141
O34   O     O_R   0.692783 0.696110 0.306207 -0.706806
H26   H     H_    0.686912 0.737946 0.252772 0.362457
H27   H     H_    0.695913 0.154347 0.052371 0.159055
C74   C     C_2   0.817255 0.358536 0.944105 0.919529
O35   O     O_2   0.874891 0.359420 0.996314 -0.573415
O36   O     O_R   0.784714 0.410586 0.858064 -0.766572
H28   H     H_    0.814153 0.446193 0.846725 0.369640
C75   C     C_2   0.295620 0.388459 0.475153 0.970951
O37   O     O_2   0.296652 0.384385 0.422993 -0.581984
O38   O     O_R   0.328780 0.324276 0.556967 -0.805045
H29   H     H_    0.352257 0.278410 0.565322 0.357019
H30   H     H_    0.138853 0.472615 0.404172 0.224553
H31   H     H_    0.201791 0.395158 0.508912 0.196333
H32   H     H_    0.281269 0.868004 0.946782 0.173048
H33   H     H_    0.265522 0.399273 0.627983 0.177435
H34   H     H_    0.293327 0.598997 0.491654 0.218215
C76   C     C_2   0.252157 0.640773 0.366451 0.961803
O39   O     O_2   0.235422 0.706704 0.340145 -0.550187
O40   O     O_R   0.261681 0.620674 0.320518 -0.806448
H35   H     H_    0.252978 0.665527 0.266868 0.368258
C77   C     C_2   0.118519 0.622661 0.347878 0.999544
O41   O     O_2   0.070301 0.677099 0.317342 -0.588192
O42   O     O_R   0.112845 0.600702 0.296803 -0.798909
H36   H     H_    0.066035 0.633308 0.237178 0.364969
H37   H     H_    0.179178 0.613726 0.463645 0.199123
C78   C     C_2   0.275206 0.489810 0.640164 0.949673
O43   O     O_2   0.267130 0.457652 0.697847 -0.587855
O44   O     O_R   0.301349 0.551459 0.625837 -0.798757
H38   H     H_    0.317432 0.560476 0.671082 0.351127
C79   C     C_2   0.118111 0.822093 0.486674 1.032226
O45   O     O_2   0.162394 0.786719 0.563181 -0.635584
O46   O     O_R   0.143694 0.863219 0.436463 -0.705999
H39   H     H_    0.197546 0.860969 0.470700 0.362465
C80   C     C_2   0.993129 0.890893 0.354215 0.985787
O47   O     O_2   0.004843 0.949296 0.344417 -0.563003
O48   O     O_R   0.937943 0.895065 0.282604 -0.743132
H40   H     H_    0.914308 0.947381 0.228817 0.362755
C81   C     C_2   0.018381 0.757761 0.363510 1.028669
O49   O     O_2   0.051890 0.791075 0.333068 -0.506212
O50   O     O_R   0.959662 0.739775 0.316869 -0.737806
H41   H     H_    0.947162 0.761670 0.258412 0.379598
C82   C     C_2   0.220291 0.834082 0.053418 0.939435
O51   O     O_2   0.175617 0.897347 0.000445 -0.581394
O52   O     O_R   0.256317 0.802845 0.139226 -0.797687
H42   H     H_    0.240667 0.837997 0.149742 0.372960
C83   C     C_2   0.125073 0.686948 0.506474 0.815643
O53   O     O_2   0.171570 0.709675 0.492952 -0.524621
O54   O     O_R   0.146746 0.611629 0.569404 -0.819831
H43   H     H_    0.196599 0.596405 0.622319 0.362592
H44   H     H_    0.101955 0.647464 0.621320 0.173560
C84   C     C_2   0.877467 0.803939 0.495158 0.915757
O55   O     O_2   0.897782 0.743537 0.560183 -0.625859
O56   O     O_R   0.823029 0.863300 0.467700 -0.744700
H45   H     H_    0.806378 0.848632 0.506800 0.352808
C85   C     C_2   0.852270 0.888349 0.356940 1.025073
O57   O     O_2   0.787307 0.890110 0.316721 -0.567610
O58   O     O_R   0.868503 0.955380 0.328074 -0.812998
H46   H     H_    0.823975 0.998617 0.271419 0.341227
C86   C     C_2   0.861185 0.759780 0.351473 1.080205
O59   O     O_2   0.831667 0.713047 0.346696 -0.560414
O60   O     O_R   0.844268 0.824716 0.276741 -0.730061
H47   H     H_    0.807326 0.826019 0.224794 0.355974
C87   C     C_2   0.022604 0.622736 0.645271 1.050452
O61   O     O_2   0.060064 0.603648 0.718362 -0.585766
O62   O     O_R   0.964853 0.593346 0.620096 -0.796512
H48   H     H_    0.961369 0.555951 0.668359 0.362223
C88   C     C_2   0.151240 0.148409 0.575709 0.959129
O63   O     O_2   0.193727 0.084276 0.632383 -0.591399
O64   O     O_R   0.164387 0.195593 0.514935 -0.807519
H49   H     H_    0.209700 0.169915 0.524022 0.360791
H50   H     H_    0.115608 0.784160 0.944571 0.181429
C89   C     C_2   0.126684 0.232661 0.657768 0.960419
O65   O     O_2   0.183333 0.249138 0.687278 -0.601673
O66   O     O_R   0.097732 0.197112 0.705375 -0.781287
H51   H     H_    0.128104 0.188735 0.762581 0.366973
C90   C     C_2   0.865764 0.214469 0.464122 1.021360
O67   O     O_2   0.825816 0.272383 0.393674 -0.568084
O68   O     O_R   0.834313 0.158289 0.490297 -0.749154
H52   H     H_    0.779672 0.172067 0.445069 0.354710
C91   C     C_2   0.969972 0.140913 0.613596 0.996565
O69   O     O_2   0.943288 0.152744 0.645218 -0.512231
O70   O     O_R   0.014921 0.068369 0.656373 -0.818772
H53   H     H_    0.023088 0.032381 0.713006 0.363730
H54   H     H_    0.967102 0.269611 0.579753 0.249516
C92   C     C_2   0.920777 0.264038 0.335262 0.938041
O71   O     O_2   0.912535 0.309298 0.268222 -0.584778
O72   O     O_R   0.874044 0.219592 0.336833 -0.784725
H55   H     H_    0.833760 0.233102 0.278637 0.343606
C93   C     C_2   0.209795 0.619971 0.056975 0.938141
O73   O     O_2   0.161812 0.610676 0.005167 -0.575952
O74   O     O_R   0.244347 0.566134 0.143127 -0.781338
H56   H     H_    0.224891 0.521792 0.154884 0.371595
C94   C     C_2   0.918249 0.394889 0.333373 1.055190
O75   O     O_2   0.925586 0.445951 0.281217 -0.585044
O76   O     O_R   0.847724 0.399664 0.318828 -0.750175
H57   H     H_    0.807720 0.447692 0.263636 0.363654
C95   C     C_2   0.683581 0.387277 0.483182 0.969669
O77   O     O_2   0.664714 0.332199 0.512459 -0.555516
O78   O     O_R   0.660249 0.424153 0.399374 -0.832720
H58   H     H_    0.628269 0.400738 0.370761 0.362922
C96   C     C_2   0.759163 0.350423 0.630113 0.967532
O79   O     O_2   0.819004 0.300261 0.679172 -0.545395
O80   O     O_R   0.710848 0.346281 0.655056 -0.772245
H59   H     H_    0.733088 0.301961 0.715145 0.351336
H60   H     H_    0.857734 0.391232 0.605051 0.198877

loop_
_geom_bond_atom_site_label_1
_geom_bond_atom_site_label_2
_ccdc_geom_bond_type
C1    O1    A    
C41   O3    A    
C80   O47   D    
C63   C65   S    
C58   C62   S    
O56   H45   S    
C47   O15   A    
C60   H16   S    
O21   Zn2   S    
C59   C89   S    
C19   H3    S    
C50   C83   S    
C10   H60   S    
C24   C27   S    
O38   H29   S    
C4    C8    S    
C11   C72   S    
C43   O8    A    
C69   O26   S    
C65   H54   S    
C75   O37   D    
O8    Zn4   S    
O34   H26   S    
C65   H18   S    
C41   C67   S    
C51   C55   S    
O48   H40   S    
C18   H27   S    
C80   O48   S    
C56   H1    S    
O58   H46   S    
O44   H38   S    
O28   H22   S    
C95   O78   S    
C3    H50   S    
C84   O56   S    
O40   H35   S    
C78   O44   S    
C3    C68   S    
C59   H15   S    
C12   O18   A    
C2    C68   S    
C10   C15   S    
C58   H14   S    
C5    C6    S    
C13   C70   S    
C11   C14   S    
C68   C93   S    
C33   H10   S    
C70   O28   S    
O1    Zn1   S    
C13   H2    S    
O15   Zn6   S    
O36   H28   S    
C33   C36   S    
O78   H58   S    
C60   C62   S    
C42   O5    A    
C52   C85   S    
C16   H21   S    
C24   C29   S    
C5    C82   S    
O16   Zn5   S    
C2    C7    S    
C27   C74   S    
C21   C43   S    
C78   O43   D    
C74   O35   D    
O54   H43   S    
C32   H30   S    
C35   C36   S    
C45   C56   S    
O9    Zn5   S    
C87   O61   D    
C22   C25   S    
C18   C26   S    
C35   C76   S    
O60   H47   S    
C55   H44   S    
O11   Zn5   S    
C9    C10   S    
C51   H13   S    
C76   O40   S    
C61   C62   S    
C20   C29   T    
C20   C34   S    
C41   O4    A    
C58   C88   S    
C13   C14   S    
C71   O29   D    
C45   H4    S    
C77   O42   S    
C79   O46   S    
C57   H12   S    
C11   H20   S    
O14   Zn5   S    
C61   C90   S    
C22   H7    S    
C28   H5    S    
C38   H33   S    
O74   H56   S    
C75   O38   S    
O3    Zn3   S    
C4    C45   S    
C90   O68   S    
C44   C63   S    
C25   H6    S    
C96   O80   S    
O12   Zn2   S    
O62   H48   S    
C57   C86   S    
O46   H39   S    
C70   O27   D    
C81   O50   S    
C96   O79   D    
O23   Zn2   S    
C6    C56   S    
C79   O45   D    
C49   C80   S    
O64   H49   S    
C18   C19   S    
C40   O24   A    
O72   H55   S    
C91   O69   D    
O52   H42   S    
C23   O20   A    
C12   C66   S    
C72   O32   S    
C47   O14   A    
O5    Zn3   S    
C71   O30   S    
C50   C81   S    
C51   C53   S    
C85   O58   S    
C35   C39   S    
C9    C14   S    
C84   O55   D    
O66   H51   S    
C37   C38   S    
C44   O10   A    
C83   O54   S    
C11   C16   S    
O30   H24   S    
C55   C87   S    
C90   O67   D    
C23   O21   A    
C45   C68   S    
C89   O65   D    
C3    C4    S    
C83   O53   D    
C93   O73   D    
C50   C54   S    
C32   C37   S    
C37   C48   S    
C94   O76   S    
C19   C28   S    
O24   Zn3   S    
C76   O39   D    
O50   H41   S    
C47   C54   S    
C6    H32   S    
C4    C6    S    
C38   C78   S    
C46   O11   A    
C88   O64   S    
C49   C50   S    
C93   O74   S    
C39   C77   S    
C77   O41   D    
C39   H37   S    
C58   C59   S    
C2    C5    S    
C91   O70   S    
C95   O77   D    
O20   Zn1   S    
C16   C73   S    
C64   H17   S    
O13   Zn6   S    
C52   C53   S    
C73   O34   S    
O70   H53   S    
C42   C62   S    
C54   C55   S    
C92   O72   S    
C42   O6    A    
C9    C95   S    
C18   C22   S    
C59   C63   S    
O19   Zn2   S    
C31   C32   S    
C17   H23   S    
C35   H34   S    
C61   C91   S    
C86   O59   D    
C3    C5    S    
C60   C92   S    
C1    O12   A    
O18   Zn1   S    
O26   H19   S    
C40   C53   S    
C17   C71   S    
C49   C79   S    
O32   H25   S    
C25   C27   S    
C21   C30   T    
C26   C28   S    
C33   C38   S    
O22   Zn1   S    
C13   C17   S    
C48   O16   A    
C60   C64   S    
C34   O22   A    
C85   O57   D    
C40   O2    A    
C46   O13   A    
C74   O36   S    
C19   C24   S    
C25   C26   S    
C37   C39   S    
C81   O49   D    
C2    C56   S    
C69   O25   D    
O42   H36   S    
C7    C66   T    
C64   C94   S    
C48   O17   A    
C33   H9    S    
C31   H8    S    
C12   O19   A    
O17   Zn6   S    
C49   C53   S    
C63   C64   S    
O80   H59   S    
C43   O7    A    
C72   O31   D    
C22   C24   S    
O4    Zn4   S    
O68   H52   S    
O2    Zn4   S    
C94   O75   D    
C51   H11   S    
C86   O60   S    
C52   C57   S    
C82   O51   D    
C31   C75   S    
C61   C65   S    
C32   H31   S    
C88   O63   D    
C8    C67   T    
O7    Zn3   S    
C23   C36   S    
C9    C96   S    
C10   C69   S    
C34   O23   A    
C89   O66   S    
C31   C36   S    
O10   Zn6   S    
C1    C14   S    
C52   C84   S    
C15   C46   S    
C82   O52   S    
C15   C17   S    
O6    Zn4   S    
C92   O71   D    
C54   C57   S    
C87   O62   S    
C44   O9    A    
C73   O33   D    
C15   C16   S    
O76   H57   S    
C27   C28   S    
C26   C30   S    
