data_mof_unit_29374.cif
_audit_creation_date              2012-12-11T15:45:39-0500
_audit_creation_method            fapswitch 2.2
_symmetry_space_group_name_H-M    P1
_symmetry_Int_Tables_number       1
_space_group_crystal_system       triclinic
_cell_length_a                    8.438727
_cell_length_b                    18.980206
_cell_length_c                    23.006781
_cell_angle_alpha                 96.161128
_cell_angle_beta                  90.570136
_cell_angle_gamma                 93.300269
_cell_volume                      3657.12463397

loop_
_atom_site_label
_atom_site_type_symbol
_atom_type_description
_atom_site_fract_x
_atom_site_fract_y
_atom_site_fract_z
_atom_type_partial_charge
Ba1   Ba    Ba6+2 0.850680 0.532880 0.472010 1.881318
Ba2   Ba    Ba6+2 0.339140 0.467180 0.527990 1.821034
C1    C     C_3   0.762074 0.766343 0.277738 0.644053
C2    C     C_R   0.129331 0.541538 0.936420 -0.028796
C3    C     C_R   0.084021 0.540110 0.876594 0.610626
C4    C     C_3   0.236180 0.695913 0.321213 0.295993
C5    C     C_R   0.968459 0.421892 0.876914 0.575999
C6    C     C_R   0.009994 0.422271 0.937029 -0.022076
C7    C     C_R   0.090888 0.482468 0.966872 -0.051031
C8    C     C_R   0.211923 0.601198 0.966704 -0.050030
C9    C     C_R   0.255034 0.602114 0.025710 -0.036453
C10   C     C_R   0.216680 0.543510 0.056821 -0.026927
C11   C     C_R   0.134096 0.483547 0.027337 -0.050697
C12   C     C_3   0.714796 0.710887 0.319810 0.266629
C13   C     C_R   0.973030 0.363393 0.968052 -0.036115
C14   C     C_R   0.014592 0.364602 0.027387 -0.046615
C15   C     C_R   0.095439 0.424600 0.057984 -0.042559
C16   C     C_3   0.225084 0.693911 0.255179 0.263437
C17   C     C_R   0.139170 0.426710 0.118211 0.623234
C18   C     C_R   0.259280 0.544069 0.116682 0.651238
C19   C     C_2   0.812445 0.452510 0.764245 -0.084548
C20   C     C_3   0.780265 0.433111 0.699142 -0.106633
C21   C     C_1   0.024769 0.503972 0.682934 -0.050914
C22   C     C_2   0.069150 0.506334 0.739319 -0.173477
C23   C     C_3   0.420707 0.288137 0.351933 0.725726
C24   C     C_2   0.956857 0.480256 0.784393 0.226368
C25   C     C_R   0.417160 0.514063 0.230610 -0.038600
C26   C     C_R   0.456544 0.522632 0.290655 0.036108
C27   C     C_R   0.193616 0.477322 0.313440 0.017129
C28   C     C_3   0.193875 0.671421 0.706433 0.658659
C29   C     C_R   0.151665 0.469478 0.253024 0.021886
C30   C     C_R   0.262873 0.488905 0.210329 0.246540
C31   C     C_2   0.907443 0.460307 0.660934 -0.155788
C32   C     C_R   0.374325 0.716000 0.491889 0.137645
C33   C     C_R   0.535416 0.727837 0.504367 -0.077230
C34   C     C_3   0.371138 0.210905 0.360110 -0.309532
C35   C     C_R   0.607211 0.792924 0.490489 -0.183731
C36   C     C_R   0.514496 0.844724 0.467978 0.099781
C37   C     C_R   0.357454 0.823929 0.448350 -0.116258
C38   C     C_R   0.292478 0.756254 0.456259 -0.085590
C39   C     C_R   0.560913 0.969603 0.432004 0.478506
C40   C     C_3   0.072961 0.687576 0.753725 -0.304287
C41   C     C_R   0.617495 0.040684 0.445010 -0.161613
C42   C     C_R   0.676737 0.067939 0.500681 -0.101215
C43   C     C_R   0.681264 0.021319 0.544617 0.448221
C44   C     C_R   0.635037 0.949139 0.530665 -0.170130
C45   C     C_3   0.978892 0.258574 0.674248 0.253117
C46   C     C_R   0.573443 0.921597 0.475118 -0.055491
C47   C     C_R   0.870556 0.171971 0.535553 -0.067641
C48   C     C_R   0.910265 0.245436 0.542913 -0.045134
C49   C     C_R   0.662089 0.267091 0.496297 0.025331
C50   C     C_R   0.618178 0.194472 0.491616 -0.106735
C51   C     C_R   0.721372 0.145808 0.511268 0.088848
C52   C     C_3   0.979462 0.318718 0.403969 0.286587
C53   C     C_R   0.803598 0.292459 0.524810 -0.244077
C54   C     C_3   0.928149 0.241728 0.383327 -0.324032
C55   C     C_3   0.737635 0.725086 0.648521 0.642443
C56   C     C_3   0.997124 0.265667 0.740572 0.308303
C57   C     C_3   0.692110 0.797609 0.632758 -0.258067
C58   C     C_3   0.413865 0.381428 0.735475 0.263487
C59   C     C_3   0.362507 0.382091 0.798693 -0.345278
C60   C     C_R   0.345532 0.503865 0.331183 -0.264728
Cl1   Cl    Cl    0.704134 0.722838 0.724703 -0.601575
Cl2   Cl    Cl    0.594829 0.785208 0.234850 -0.511886
Cl3   Cl    Cl    0.057717 0.638661 0.227178 -0.672010
Cl4   Cl    Cl    0.311003 0.752095 0.702377 -0.551435
H1    H     H_    0.822796 0.692772 0.339653 0.085343
H2    H     H_    0.865189 0.718028 0.640264 0.034979
H3    H     H_    0.719367 0.839529 0.669578 0.185487
H4    H     H_    0.563873 0.797200 0.621470 0.146973
H5    H     H_    0.765708 0.812540 0.596142 -0.004714
H6    H     H_    0.638886 0.734643 0.354989 0.026161
H7    H     H_    0.328750 0.324234 0.368217 -0.028352
H8    H     H_    0.320411 0.207660 0.404074 0.032675
H9    H     H_    0.279018 0.189004 0.327276 0.145458
H10   H     H_    0.474988 0.177471 0.355083 0.135989
H11   H     H_    0.848827 0.743576 0.246370 0.095033
H12   H     H_    0.982606 0.642940 0.754441 0.111753
H13   H     H_    0.334631 0.672480 0.236151 0.124954
H14   H     H_    0.899975 0.300457 0.663318 -0.121312
H15   H     H_    0.921349 0.205687 0.659157 0.123975
H16   H     H_    0.059155 0.317508 0.755757 0.022215
H17   H     H_    0.877373 0.264120 0.760150 0.064787
H18   H     H_    0.524476 0.352106 0.731083 0.003306
H19   H     H_    0.321408 0.351936 0.706567 0.110657
H20   H     H_    0.453496 0.411864 0.828371 0.117610
H21   H     H_    0.346991 0.326948 0.810443 0.176046
H22   H     H_    0.246311 0.640737 0.332199 -0.053693
H23   H     H_    0.134217 0.698273 0.796898 0.179112
H24   H     H_    0.248741 0.407884 0.804733 0.111200
H25   H     H_    0.983066 0.318123 0.049258 0.149132
H26   H     H_    0.911109 0.315973 0.946534 0.155098
H27   H     H_    0.318505 0.649277 0.046989 0.154830
H28   H     H_    0.505818 0.529373 0.199966 0.128274
H29   H     H_    0.243801 0.647638 0.944821 0.146457
H30   H     H_    0.189854 0.523592 0.752532 0.132328
H31   H     H_    0.724021 0.435756 0.794505 0.102664
H32   H     H_    0.033079 0.449056 0.239626 0.131678
H33   H     H_    0.377729 0.510692 0.377200 0.070623
H34   H     H_    0.013990 0.736398 0.745931 0.183651
H35   H     H_    0.344839 0.728665 0.336658 0.001687
H36   H     H_    0.896405 0.444039 0.614407 0.050568
H37   H     H_    0.506378 0.175473 0.470665 0.070054
H38   H     H_    0.610408 0.076356 0.411457 0.129290
H39   H     H_    0.730430 0.806286 0.501633 0.140521
H40   H     H_    0.638400 0.914460 0.564909 0.142745
H41   H     H_    0.956365 0.135765 0.547611 0.124961
H42   H     H_    0.283049 0.860442 0.429882 0.150183
H43   H     H_    0.836311 0.348745 0.528968 0.040635
H44   H     H_    0.214500 0.748250 0.242476 0.167405
H45   H     H_    0.874383 0.347046 0.419582 0.028487
H46   H     H_    0.275169 0.632093 0.720095 0.036625
H47   H     H_    0.096270 0.860503 0.344875 0.383134
H48   H     H_    0.544810 0.237101 0.202002 0.385435
H49   H     H_    0.274458 0.162977 0.699187 0.382626
H50   H     H_    0.241913 0.980307 0.330332 0.396929
H51   H     H_    0.685078 0.011459 0.702246 0.401818
H52   H     H_    0.127330 0.757171 0.571308 0.321007
H53   H     H_    0.068432 0.320266 0.440021 0.021118
H54   H     H_    0.829405 0.239439 0.350811 0.182752
H55   H     H_    0.889098 0.212877 0.420279 0.031777
H56   H     H_    0.028451 0.214140 0.362546 0.130600
N1    N     N_R   0.003085 0.480963 0.846838 -0.427763
N2    N     N_R   0.219044 0.486496 0.147720 -0.426448
O1    O     O_2   0.896730 0.461690 0.361000 -0.442723
O2    O     O_2   0.245040 0.251626 0.543740 -0.460226
O3    O     O_3   0.128610 0.265991 0.648501 -0.591916
O4    O     O_3   0.137170 0.462400 0.432040 -0.476707
O5    O     O_3   0.560670 0.583970 0.528500 -0.397875
O6    O     O_2   0.373560 0.329680 0.473470 -0.490614
O7    O     O_3   0.568614 0.308659 0.379042 -0.656951
O8    O     O_2   0.599743 0.537874 0.660754 -0.410616
O9    O     O_3   0.430390 0.451802 0.721168 -0.595317
O10   O     O_2   0.115482 0.592272 0.851372 -0.610801
O11   O     O_2   0.903298 0.368161 0.851313 -0.602185
O12   O     O_3   0.644003 0.667239 0.620672 -0.530905
O13   O     O_2   0.108176 0.374668 0.143891 -0.528654
O14   O     O_2   0.331650 0.596638 0.141131 -0.563309
O15   O     O_3   0.657500 0.588540 0.395070 -0.518382
O16   O     O_2   0.789841 0.542487 0.291761 -0.421011
O17   O     O_3   0.047281 0.348568 0.356567 -0.602455
O18   O     O_3   0.628069 0.654434 0.287424 -0.634702
O19   O     O_2   0.816140 0.670340 0.526560 -0.448877
O20   O     O_3   0.069580 0.624410 0.423530 -0.412560
O21   O     O_2   0.954194 0.752258 0.444503 -0.451396
O22   O     O_2   0.815273 0.855042 0.377784 -0.334681
O23   O     O_3   0.101065 0.726104 0.345926 -0.592853
O24   O     O_2   0.794405 0.910015 0.286775 -0.122054
O25   O     O_3   0.050351 0.848659 0.305078 -0.485461
O26   O     O_2   0.277897 0.296682 0.248023 -0.270502
O27   O     O_2   0.532085 0.365001 0.267882 -0.318818
O28   O     O_3   0.537172 0.228341 0.243587 -0.477156
O29   O     O_2   0.121150 0.207538 0.830678 -0.221051
O30   O     O_2   0.015125 0.125603 0.748372 -0.210487
O31   O     O_3   0.286617 0.194977 0.736106 -0.477773
O32   O     O_2   0.543964 0.991293 0.318960 -0.205079
O33   O     O_2   0.468467 0.870924 0.341831 -0.248168
O34   O     O_2   0.292960 0.538340 0.639040 -0.412996
O35   O     O_3   0.276227 0.971206 0.370008 -0.550757
O36   O     O_2   0.904724 0.055988 0.627592 -0.277409
O37   O     O_2   0.663129 0.122577 0.635216 -0.302815
O38   O     O_3   0.647187 0.993222 0.662265 -0.484425
O39   O     O_2   0.236845 0.596884 0.505693 -0.267106
O40   O     O_2   0.349957 0.667192 0.593270 -0.291786
O41   O     O_3   0.093855 0.709511 0.551719 -0.497555
O42   O     O_3   0.052540 0.537650 0.567960 -0.406651
O43   O     O_3   0.532200 0.411510 0.604930 -0.471677
O44   O     O_3   0.116115 0.650914 0.651751 -0.573805
O45   O     O_3   0.629030 0.416090 0.471500 -0.466079
O46   O     O_3   0.120120 0.375640 0.576470 -0.489145
P1    P     P_3+3 0.067040 0.441110 0.370020 1.058792
P2    P     P_3+3 0.640420 0.660110 0.543790 1.134511
P3    P     P_3+3 0.103587 0.716420 0.420263 1.065145
P4    P     P_3+3 0.122660 0.558950 0.629980 1.167828
P5    P     P_3+3 0.100987 0.283095 0.576048 0.985594
P6    P     P_3+3 0.637940 0.574060 0.318126 1.007933
P7    P     P_3+3 0.554007 0.327555 0.455237 0.930049
P8    P     P_3+3 0.585975 0.458870 0.672276 1.018934
S1    S     S_3+6 0.852928 0.847578 0.313780 0.018262
S2    S     S_3+6 0.439981 0.296651 0.275698 -0.048309
S3    S     S_3+6 0.104491 0.195762 0.765228 0.008786
S4    S     S_3+6 0.465204 0.948371 0.363013 -0.018298
S5    S     S_3+6 0.727604 0.051077 0.618791 -0.055792
S6    S     S_3+6 0.262507 0.669493 0.537132 -0.054803

loop_
_geom_bond_atom_site_label_1
_geom_bond_atom_site_label_2
_ccdc_geom_bond_type
C19   C24   D    
C12   O18   S    
C50   H37   S    
O37   S5    D    
C16   H13   S    
C39   C41   A    
C30   N2    S    
O5    P2    S    
C29   H32   S    
Ba1   O4    S    
H48   O28   S    
C20   P8    S    
O7    P7    S    
C23   S2    S    
C5    C6    A    
C47   H41   S    
C21   P4    S    
C43   C44   A    
C59   H24   S    
C16   Cl3   S    
O44   P4    S    
C58   C59   S    
C56   S3    S    
C32   C38   A    
Ba1   O42   S    
C57   H4    S    
O6    P7    D    
Ba1   O1    S    
O19   P2    D    
C32   C33   A    
Ba1   O5    S    
C56   H16   S    
C38   P3    S    
O9    P8    S    
C55   C57   S    
C12   H1    S    
C13   C14   A    
O30   S3    D    
O25   S1    S    
Ba2   O5    S    
C4    H22   S    
Ba1   Ba2   S    
C4    H35   S    
C18   O14   D    
C1    S1    S    
C41   H38   S    
C7    C11   A    
C34   H10   S    
O17   P1    S    
C13   H26   S    
C42   C51   S    
O34   P4    D    
O12   P2    S    
C14   C15   A    
C21   C31   D    
O20   P3    S    
C52   H45   S    
C21   C22   D    
C55   O12   S    
C32   S6    S    
C59   H21   S    
Ba2   O42   S    
O36   S5    D    
C36   C46   S    
Ba1   O15   S    
C17   O13   D    
H49   O31   S    
C9    H27   S    
C25   C30   A    
C52   H53   S    
C53   H43   S    
C33   P2    S    
C54   H54   S    
O15   P6    S    
C37   H42   S    
C45   H14   S    
O4    P1    S    
O45   P7    S    
C55   Cl1   S    
C44   C46   A    
O46   P5    S    
O3    P5    S    
C3    O10   D    
C4    C16   S    
C52   C54   S    
C17   N2    Am   
O42   P4    S    
O29   S3    D    
C31   H36   S    
H47   O25   S    
H50   O35   S    
C8    C9    A    
C37   C38   A    
O32   S4    D    
C6    C7    A    
O18   P6    S    
C23   C34   S    
C49   C53   A    
C1    Cl2   S    
Ba1   P1    S    
C49   C50   A    
C28   H46   S    
C48   P5    S    
C54   H56   S    
O28   S2    S    
C41   C42   A    
C35   H39   S    
C35   C36   A    
O40   S6    D    
C34   H9    S    
C40   H34   S    
C58   O9    S    
C19   H31   S    
C29   C30   A    
Ba2   O34   S    
C10   C18   A    
O23   P3    S    
Ba2   O4    S    
C27   P1    S    
C28   Cl4   S    
C1    C12   S    
C34   H8    S    
C57   H3    S    
O21   P3    D    
C40   H12   S    
O24   S1    D    
H51   O38   S    
C39   S4    S    
O33   S4    D    
C55   H2    S    
C2    C8    A    
C1    H11   S    
C5    O11   D    
Ba2   O6    S    
C50   C51   A    
C43   S5    S    
O26   S2    D    
C20   C31   S    
C27   C60   A    
H52   O41   S    
C33   C35   A    
O39   S6    D    
O41   S6    S    
C12   H6    S    
C26   P6    S    
C42   C43   A    
C16   H44   S    
C5    N1    Am   
C2    C3    A    
C25   H28   S    
C9    C10   A    
O31   S3    S    
C45   O3    S    
Ba1   O19   S    
C6    C13   A    
C3    N1    Am   
Ba1   P2    S    
C48   C53   A    
C11   C15   A    
C40   H23   S    
C54   H55   S    
C22   H30   S    
C52   O17   S    
C28   O44   S    
O38   S5    S    
Ba2   O46   S    
Ba1   O20   S    
C49   P7    S    
C56   H17   S    
Ba2   P4    S    
C45   C56   S    
C4    O23   S    
C58   H18   S    
C22   C24   S    
O27   S2    D    
C36   C37   A    
C8    H29   S    
C23   O7    S    
C47   C51   A    
C44   H40   S    
Ba1   O45   S    
C15   C17   A    
C39   C46   A    
O22   S1    D    
C23   H7    S    
C45   H15   S    
O35   S4    S    
O1    P1    D    
C18   N2    Am   
C59   H20   S    
Ba2   O45   S    
C60   H33   S    
O43   P8    S    
C10   C11   A    
C14   H25   S    
C27   C29   A    
C47   C48   A    
C24   N1    S    
C57   H5    S    
C25   C26   A    
C28   C40   S    
C58   H19   S    
C2    C7    A    
C19   C20   S    
Ba2   O43   S    
O2    P5    D    
O8    P8    D    
O16   P6    D    
C26   C60   A    
