data_mof_unit_44308.cif
_audit_creation_date              2012-12-11T15:29:34-0500
_audit_creation_method            fapswitch 2.2
_symmetry_space_group_name_H-M    P1
_symmetry_Int_Tables_number       1
_space_group_crystal_system       triclinic
_cell_length_a                    13.484827
_cell_length_b                    13.493303
_cell_length_c                    27.565648
_cell_angle_alpha                 90.512795
_cell_angle_beta                  90.015382
_cell_angle_gamma                 60.074315
_cell_volume                      4346.7507492

loop_
_atom_site_label
_atom_site_type_symbol
_atom_type_description
_atom_site_fract_x
_atom_site_fract_y
_atom_site_fract_z
_atom_type_partial_charge
C1    C     C_R   0.620367 0.101169 0.569878 0.545466
C2    C     C_1   0.631343 0.731505 0.615871 -0.016193
C3    C     C_3   0.699558 0.560729 0.767042 -0.101536
C4    C     C_3   0.679669 0.654424 0.804370 0.052817
C5    C     C_3   0.590364 0.648089 0.740014 -0.099202
C6    C     C_3   0.663769 0.682794 0.709913 0.052701
C7    C     C_3   0.570692 0.741317 0.778074 -0.101953
C8    C     C_3   0.643898 0.776499 0.747232 -0.102949
C9    C     C_1   0.688422 0.633694 0.856581 -0.059181
C10   C     C_1   0.649818 0.704152 0.657767 -0.059083
C11   C     C_3   0.090888 0.132738 0.737370 -0.101931
C12   C     C_R   0.599781 0.779157 0.568429 0.545445
C13   C     C_3   0.182942 0.059317 0.775319 -0.100343
C14   C     C_1   0.097749 0.200120 0.900280 -0.016230
C15   C     C_1   0.229568 0.137587 0.617068 -0.016595
C16   C     C_3   0.055517 0.241186 0.768808 -0.101466
C17   C     C_3   0.148002 0.167594 0.805901 0.052795
C18   C     C_3   0.144114 0.262192 0.742005 -0.099072
C19   C     C_3   0.179089 0.154033 0.711341 0.052616
C20   C     C_3   0.236127 0.188864 0.779802 -0.101788
C21   C     C_3   0.271604 0.080397 0.748410 -0.102925
C22   C     C_1   0.125539 0.180897 0.858206 -0.058801
C23   C     C_R   0.277711 0.121625 0.569370 0.545276
C24   C     C_1   0.201621 0.146405 0.659085 -0.059168
C25   C     C_3   0.629242 0.276633 0.738874 -0.101791
C26   C     C_3   0.555063 0.258210 0.776761 -0.100000
C27   C     C_1   0.691497 0.206730 0.901387 -0.015941
C28   C     C_1   0.635698 0.133227 0.617796 -0.016514
C29   C     C_3   0.737154 0.204020 0.769896 -0.101500
C30   C     C_3   0.662817 0.185326 0.806946 0.052872
C31   C     C_3   0.758655 0.094296 0.742546 -0.099309
C32   C     C_3   0.650993 0.167057 0.712296 0.052561
C33   C     C_3   0.684560 0.075821 0.780316 -0.101985
C34   C     C_R   0.621794 0.100225 0.431522 0.541187
C35   C     C_3   0.576620 0.148367 0.749322 -0.102973
C36   C     C_1   0.674471 0.195856 0.859290 -0.058604
C37   C     C_1   0.644049 0.152170 0.659944 -0.059216
C38   C     C_R   0.640709 0.720982 0.383324 0.023695
C39   C     C_R   0.724460 0.733521 0.358332 -0.126322
C40   C     C_R   0.737877 0.714368 0.308814 -0.123882
C41   C     C_R   0.670488 0.678748 0.283854 0.037215
C42   C     C_R   0.595495 0.654386 0.309652 -0.122080
C43   C     C_R   0.579929 0.676332 0.359209 -0.130066
C44   C     C_R   0.577345 0.701669 0.203667 -0.122683
C45   C     C_R   0.602075 0.776602 0.430543 0.541662
C46   C     C_R   0.585668 0.680083 0.154059 -0.132203
C47   C     C_R   0.790334 0.607844 0.157822 -0.127131
C48   C     C_R   0.782428 0.626766 0.207398 -0.125147
C49   C     C_R   0.676617 0.669768 0.230919 0.035840
C50   C     C_R   0.693115 0.628148 0.131357 0.022831
C51   C     C_R   0.220972 0.139506 0.384462 0.022188
C52   C     C_R   0.238076 0.044746 0.356520 -0.129413
C53   C     C_R   0.211065 0.057345 0.307612 -0.126154
C54   C     C_R   0.164270 0.165272 0.286182 0.033799
C55   C     C_R   0.137578 0.261627 0.315144 -0.122990
C56   C     C_R   0.278317 0.120387 0.431205 0.540981
C57   C     C_R   0.166592 0.248704 0.363987 -0.131161
C58   C     C_R   0.168770 0.252962 0.207557 -0.120088
C59   C     C_R   0.144377 0.269483 0.158277 -0.130448
C60   C     C_R   0.086384 0.125767 0.159608 -0.126108
C61   C     C_R   0.108602 0.110948 0.208859 -0.127602
C62   C     C_R   0.147129 0.176483 0.233505 0.036886
C63   C     C_R   0.099665 0.208435 0.134333 0.023136
C64   C     C_R   0.640477 0.140041 0.385099 0.006345
C65   C     C_R   0.544972 0.214333 0.357572 -0.135263
C66   C     C_R   0.558273 0.235228 0.309713 -0.139728
C67   C     C_3   0.772842 0.595833 0.736147 -0.101663
C68   C     C_R   0.667190 0.183796 0.288602 0.036923
C69   C     C_R   0.765688 0.116724 0.317121 0.028791
C70   C     C_R   0.750605 0.094620 0.365399 -0.112486
C71   C     C_R   0.624355 0.305978 0.216328 -0.129984
C72   C     C_R   0.630255 0.318281 0.166624 -0.127444
C73   C     C_R   0.729196 0.111863 0.156191 -0.130974
C74   C     C_R   0.721068 0.099847 0.205837 -0.118493
C75   C     C_R   0.673089 0.196595 0.236234 0.025957
C76   C     C_R   0.686370 0.221073 0.136495 0.024635
C77   C     C_R   0.049926 0.234851 0.947980 0.546201
C78   C     C_3   0.753200 0.689103 0.774342 -0.100275
C79   C     C_R   0.711984 0.561913 0.946425 0.545624
C80   C     C_R   0.722573 0.224105 0.949110 0.545586
C81   C     C_R   0.047241 0.243929 0.086541 0.541475
C82   C     C_R   0.709341 0.572141 0.084306 0.539630
C83   C     C_R   0.720364 0.233714 0.087751 0.539920
C84   C     C_1   0.697389 0.607507 0.898631 -0.016427
Cr1   Cr    Cr6+3 0.417550 0.169090 0.500530 1.020522
Cr2   Cr    Cr6+3 0.669180 0.913420 0.499920 1.019185
Cr3   Cr    Cr6+3 0.413260 0.917540 0.499520 1.020037
Cr4   Cr    Cr6+3 0.909770 0.175810 0.018240 1.020180
Cr5   Cr    Cr6+3 0.913300 0.427650 0.016090 1.019893
Cr6   Cr    Cr6+3 0.657770 0.431010 0.016900 1.021350
H1    H     H_    0.819737 0.706407 0.789103 0.104030
H2    H     H_    0.296062 0.211505 0.797677 0.103215
H3    H     H_    0.127681 0.345738 0.727773 0.104119
H4    H     H_    0.966269 0.307686 0.777787 0.099226
H5    H     H_    0.471273 0.325234 0.791431 0.104274
H6    H     H_    0.607000 0.358914 0.721371 0.102575
H7    H     H_    0.510303 0.125394 0.740242 0.100516
H8    H     H_    0.706868 0.993478 0.797780 0.103194
H9    H     H_    0.842515 0.027241 0.727938 0.104029
H10   H     H_    0.803553 0.226899 0.778943 0.099353
H11   H     H_    0.772879 0.767697 0.376049 0.134391
H12   H     H_    0.855640 0.535826 0.718404 0.103008
H13   H     H_    0.494086 0.739139 0.220956 0.102833
H14   H     H_    0.509520 0.697436 0.134119 0.124763
H15   H     H_    0.796196 0.733961 0.289822 0.098769
H16   H     H_    0.860325 0.601242 0.227540 0.099715
H17   H     H_    0.874512 0.567574 0.141214 0.134350
H18   H     H_    0.545859 0.622537 0.291249 0.098643
H19   H     H_    0.515868 0.664828 0.377974 0.123986
H20   H     H_    0.280459 0.959344 0.371386 0.133511
H21   H     H_    0.202111 0.301821 0.225551 0.101697
H22   H     H_    0.155705 0.333333 0.139496 0.124211
H23   H     H_    0.620935 0.865591 0.738438 0.100732
H24   H     H_    0.232911 0.981509 0.286152 0.100833
H25   H     H_    0.090753 0.051760 0.227937 0.097598
H26   H     H_    0.051347 0.077726 0.142205 0.135074
H27   H     H_    0.097770 0.346365 0.299707 0.102552
H28   H     H_    0.151657 0.323066 0.385080 0.124181
H29   H     H_    0.458873 0.250654 0.371931 0.140063
H30   H     H_    0.584837 0.381452 0.239446 0.106971
H31   H     H_    0.597909 0.403453 0.152336 0.136118
H32   H     H_    0.482580 0.287409 0.288325 0.110544
H33   H     H_    0.753996 0.015233 0.220653 0.114573
H34   H     H_    0.487832 0.801319 0.795779 0.103119
H35   H     H_    0.772605 0.035999 0.133472 0.122167
H36   H     H_    0.824468 0.040618 0.387392 0.123076
H37   H     H_    0.523780 0.630757 0.725324 0.104170
H38   H     H_    0.722433 0.471660 0.775828 0.098814
H39   H     H_    0.199332 0.975857 0.789627 0.104077
H40   H     H_    0.030950 0.110171 0.719451 0.102890
H41   H     H_    0.360867 0.013991 0.739398 0.100508
O1    O     O_R   0.301780 0.195490 0.553940 -0.507407
O2    O     O_R   0.658840 0.818280 0.449970 -0.505946
O3    O     O_R   0.503160 0.801780 0.445740 -0.521729
O4    O     O_R   0.319320 0.022190 0.450230 -0.504577
O5    O     O_3   0.499990 0.000010 0.499990 -0.243807
O6    O     O_R   0.819250 0.149410 0.965240 -0.507123
O7    O     O_R   0.006940 0.180310 0.968270 -0.494143
O8    O     O_R   0.028420 0.332670 0.963010 -0.506533
O9    O     O_R   0.810130 0.520390 0.966030 -0.494477
O10   O     O_R   0.636050 0.541380 0.962520 -0.506790
O11   O     O_R   0.666480 0.323610 0.968170 -0.493662
O12   O     O_R   0.522450 0.158840 0.550250 -0.493931
O13   O     O_R   0.817280 0.156800 0.072180 -0.519905
O14   O     O_R   0.005110 0.187160 0.067410 -0.505529
O15   O     O_R   0.026450 0.340060 0.069950 -0.521691
O16   O     O_R   0.808300 0.527240 0.065170 -0.506077
O17   O     O_R   0.634070 0.548770 0.069460 -0.522395
O18   O     O_R   0.664650 0.330470 0.067300 -0.503723
O19   O     O_3   0.826940 0.344820 0.017080 -0.244787
O20   O     O_R   0.694460 0.003360 0.553820 -0.507593
O21   O     O_R   0.657750 0.819520 0.549120 -0.494373
O22   O     O_R   0.501990 0.803120 0.552700 -0.507359
O23   O     O_R   0.318230 0.023430 0.549370 -0.494150
O24   O     O_R   0.302950 0.194150 0.446980 -0.522128
O25   O     O_R   0.523540 0.157600 0.451100 -0.503510
O26   O     O_R   0.695630 0.002030 0.446860 -0.520748
C85   C     C_3   0.886334 0.072366 0.298206 -0.277970
C86   C     C_3   0.953958 0.941835 0.295315 -0.449528
H42   H     H_    0.966614 0.904425 0.332044 0.146699
H43   H     H_    0.908879 0.908822 0.272450 0.145777
H44   H     H_    0.039435 0.913604 0.279079 0.129500
H45   H     H_    0.886616 0.106999 0.261891 0.156257
H46   H     H_    0.931551 0.102275 0.322834 0.149130

loop_
_geom_bond_atom_site_label_1
_geom_bond_atom_site_label_2
_ccdc_geom_bond_type
C44   C49   A    
C58   C62   A    
C66   C68   A    
C72   H31   S    
C41   C42   A    
C12   O21   A    
C7    H34   S    
Cr6   O19   S    
C2    C12   S    
Cr1   O12   S    
C82   O16   A    
C7    C8    S    
C79   O10   A    
C53   C54   A    
C52   C53   A    
C68   C75   S    
C34   O25   A    
C20   H2    S    
C11   C19   S    
C45   O3    A    
C71   H30   S    
C63   C81   S    
C60   C63   A    
C5    C6    S    
C19   C21   S    
C33   H8    S    
C56   O24   A    
Cr1   O1    S    
Cr1   O24   S    
C79   C84   S    
C45   O2    A    
C80   O6    A    
C17   C20   S    
C18   C19   S    
C51   C56   S    
C73   C74   A    
C14   C77   S    
C21   H41   S    
C38   C45   S    
Cr6   O17   S    
C86   H43   S    
C48   H16   S    
C31   C32   S    
C16   C17   S    
Cr5   O8    S    
Cr1   O5    S    
C61   H25   S    
C1    C28   S    
Cr4   O14   S    
C66   H32   S    
C1    O20   A    
C51   C57   A    
C31   H9    S    
C12   O22   A    
C30   C33   S    
C72   C76   A    
C81   O14   A    
C70   H36   S    
C25   C32   S    
C15   C23   S    
C79   O9    A    
Cr2   O20   S    
C8    C78   S    
Cr3   O3    S    
C69   C70   A    
C67   C78   S    
Cr4   O19   S    
Cr6   O18   S    
C76   C83   S    
C41   C49   S    
C44   H13   S    
C44   C46   A    
C39   H11   S    
C47   C50   A    
C25   C29   S    
Cr5   O15   S    
Cr3   O23   S    
C31   C33   S    
C51   C52   A    
C32   C35   S    
Cr3   O4    S    
C47   H17   S    
C77   O7    A    
C27   C80   S    
C74   C75   A    
C39   C40   A    
C5    C7    S    
C3    H38   S    
C68   C69   A    
C6    C8    S    
C54   C62   S    
C4    C7    S    
C25   C26   S    
C46   H14   S    
C58   H21   S    
C60   C61   A    
Cr1   O25   S    
C4    C78   S    
C29   C30   S    
C1    O12   A    
Cr2   O21   S    
C11   C16   S    
Cr2   O2    S    
C47   C48   A    
C52   H20   S    
C48   C49   A    
Cr5   O9    S    
C5    H37   S    
C34   C64   S    
C59   H22   S    
C65   H29   S    
C86   H44   S    
C13   C21   S    
C32   C37   S    
Cr4   O7    S    
Cr6   O11   S    
C85   H45   S    
C8    H23   S    
Cr2   O5    S    
C15   C24   T    
C26   C30   S    
C64   C70   A    
C55   C57   A    
C86   H42   S    
C85   C86   S    
C27   C36   T    
C73   C76   A    
C60   H26   S    
C42   C43   A    
C3    C4    S    
C2    C10   T    
C11   H40   S    
Cr5   O19   S    
C56   O4    A    
C53   H24   S    
C50   C82   S    
C55   H27   S    
C26   H5    S    
Cr5   O16   S    
C54   C55   A    
C40   C41   A    
C80   O11   A    
C29   H10   S    
C59   C63   A    
Cr3   O5    S    
C3    C67   S    
C77   O8    A    
C3    C5    S    
C6    C10   S    
C82   O17   A    
C85   H46   S    
C78   H1    S    
C46   C50   A    
C16   H4    S    
C17   C22   S    
C30   C36   S    
C64   C65   A    
C14   C22   T    
C19   C24   S    
C58   C59   A    
C38   C43   A    
C29   C31   S    
C6    C67   S    
C83   O13   A    
Cr3   O22   S    
C71   C75   A    
C11   C13   S    
C38   C39   A    
C28   C37   T    
C73   H35   S    
C33   C35   S    
C69   C85   S    
C23   O1    A    
C74   H33   S    
C18   C20   S    
C65   C66   A    
C61   C62   A    
Cr2   O26   S    
Cr4   O6    S    
Cr6   O10   S    
C9    C84   T    
C13   C17   S    
C34   O26   A    
C26   C35   S    
C71   C72   A    
C20   C21   S    
C25   H6    S    
C16   C18   S    
C81   O15   A    
C23   O23   A    
C18   H3    S    
C13   H39   S    
C40   H15   S    
C43   H19   S    
C4    C9    S    
C35   H7    S    
C42   H18   S    
Cr4   O13   S    
C67   H12   S    
C57   H28   S    
C83   O18   A    
