data_mof_unit_47074.cif
_audit_creation_date              2012-12-11T14:39:33-0500
_audit_creation_method            fapswitch 2.2
_symmetry_space_group_name_H-M    P1
_symmetry_Int_Tables_number       1
_space_group_crystal_system       triclinic
_cell_length_a                    7.282897
_cell_length_b                    14.315772
_cell_length_c                    16.141491
_cell_angle_alpha                 90.021333
_cell_angle_beta                  97.322847
_cell_angle_gamma                 89.999758
_cell_volume                      1669.19008387

loop_
_atom_site_label
_atom_site_type_symbol
_atom_type_description
_atom_site_fract_x
_atom_site_fract_y
_atom_site_fract_z
_atom_type_partial_charge
O1    O     O_R   0.525340 0.338340 0.164530 -0.501822
O2    O     O_R   0.474660 0.661660 0.835470 -0.503000
O3    O     O_R   0.974660 0.838340 0.835470 -0.504020
O4    O     O_R   0.025340 0.161660 0.164530 -0.500569
O5    O     O_R   0.253520 0.352000 0.336710 -0.561941
O6    O     O_R   0.746480 0.648000 0.663290 -0.555892
O7    O     O_R   0.246480 0.852000 0.663290 -0.562536
O8    O     O_R   0.753520 0.148000 0.336710 -0.554294
O9    O     O_R   0.083330 0.168380 0.337300 -0.539941
O10   O     O_R   0.916670 0.831620 0.662700 -0.544208
O11   O     O_R   0.416670 0.668380 0.662700 -0.545982
O12   O     O_R   0.583330 0.331620 0.337300 -0.541086
C1    C     C_R   0.432169 0.368225 0.363868 0.655383
C2    C     C_R   0.567315 0.632091 0.636046 0.645818
C3    C     C_R   0.067787 0.868028 0.635954 0.650080
C4    C     C_R   0.932676 0.132147 0.363992 0.654390
O13   O     O_R   0.195840 0.349670 0.165140 -0.522814
O14   O     O_R   0.804160 0.650330 0.834860 -0.520705
O15   O     O_R   0.304160 0.849670 0.834860 -0.521199
O16   O     O_R   0.695840 0.150330 0.165140 -0.522648
C5    C     C_R   0.359694 0.374232 0.140143 0.773085
C6    C     C_R   0.642400 0.631283 0.864273 0.830380
C7    C     C_R   0.142403 0.868635 0.864433 0.828140
C8    C     C_R   0.859613 0.125725 0.140182 0.778846
O17   O     O_3   0.387830 0.193120 0.250910 -0.354907
O18   O     O_3   0.612170 0.806880 0.749090 -0.378097
O19   O     O_3   0.112170 0.693120 0.749090 -0.372014
O20   O     O_3   0.887830 0.306880 0.250910 -0.365266
V1    V     V_3+5 0.113010 0.264540 0.250910 1.497421
V2    V     V_3+5 0.886990 0.735460 0.749090 1.494581
V3    V     V_3+5 0.386990 0.764540 0.749090 1.487806
V4    V     V_3+5 0.613010 0.235460 0.250910 1.503868
H1    H     H_    0.814442 0.817052 0.257150 0.159250
H2    H     H_    0.161237 0.185616 0.743379 0.118996
H3    H     H_    0.686398 0.316841 0.742282 0.112808
H4    H     H_    0.337663 0.686077 0.256906 0.166425
C9    C     C_R   0.062040 0.193464 0.531777 -0.176700
C10   C     C_R   0.947896 0.807029 0.466814 -0.183038
C11   C     C_R   0.436449 0.693521 0.468547 -0.175880
C12   C     C_R   0.553071 0.307078 0.532640 -0.183977
C13   C     C_R   0.105225 0.226565 0.614069 0.150539
C14   C     C_R   0.886803 0.775819 0.385685 0.133775
C15   C     C_R   0.393873 0.726813 0.386304 0.119947
C16   C     C_R   0.614020 0.275761 0.613698 0.155380
C17   C     C_R   0.128693 0.161866 0.679445 -0.231028
C18   C     C_R   0.862230 0.840002 0.320178 -0.149284
C19   C     C_R   0.370113 0.662219 0.320800 -0.208469
C20   C     C_R   0.638758 0.339897 0.679292 -0.174513
C21   C     C_R   0.105714 0.066495 0.664065 -0.177510
C22   C     C_R   0.892811 0.934612 0.335442 -0.172725
C23   C     C_R   0.392717 0.566789 0.336017 -0.172844
C24   C     C_R   0.608329 0.434538 0.664204 -0.193610
C25   C     C_R   0.059149 0.032296 0.582017 0.076557
C26   C     C_R   0.945867 0.968114 0.417364 0.063993
C27   C     C_R   0.439720 0.532454 0.417983 0.062528
C28   C     C_R   0.554766 0.468121 0.582390 0.080543
C29   C     C_R   0.033673 0.096887 0.514849 0.006918
C30   C     C_R   0.976306 0.903256 0.484159 0.020778
C31   C     C_R   0.465222 0.596935 0.485264 0.011444
C32   C     C_R   0.524257 0.403340 0.515511 0.020734
C33   C     C_R   0.032831 0.935558 0.566525 -0.161391
C34   C     C_R   0.971060 0.064700 0.433068 -0.159048
C35   C     C_R   0.466927 0.435729 0.433290 -0.166357
C36   C     C_R   0.528823 0.564693 0.566899 -0.155693
H5    H     H_    0.043289 0.243275 0.481317 0.110338
H6    H     H_    0.965859 0.755595 0.516328 0.111936
H7    H     H_    0.455209 0.743228 0.519110 0.114662
H8    H     H_    0.534757 0.255668 0.483083 0.109061
H9    H     H_    0.123339 0.020194 0.717445 0.103551
H10   H     H_    0.871376 0.981210 0.282356 0.130069
H11   H     H_    0.374974 0.520564 0.282563 0.131185
H12   H     H_    0.629924 0.481083 0.717366 0.100650
C37   C     C_2   0.144502 0.933693 0.936358 -0.330795
C38   C     C_2   0.859636 0.052737 0.074647 -0.354036
C39   C     C_2   0.360200 0.447516 0.074894 -0.353716
C40   C     C_2   0.644543 0.565600 0.935522 -0.328600
C41   C     C_2   0.004132 0.940641 0.985117 0.346618
C42   C     C_2   0.015285 0.008432 0.055185 0.326601
C43   C     C_2   0.516585 0.490082 0.054074 0.323713
C44   C     C_2   0.505352 0.558911 0.984882 0.348771
H13   H     H_    0.726941 0.037453 0.038418 0.164852
H14   H     H_    0.265053 0.978524 0.949326 0.147272
H15   H     H_    0.763975 0.519855 0.947188 0.147737
H16   H     H_    0.226835 0.464840 0.040232 0.168709
C45   C     C_3   0.117228 0.329392 0.636831 -0.357197
C46   C     C_3   0.055702 0.397956 0.565466 -0.341176
C47   C     C_3   0.057297 0.498154 0.597706 -0.681038
H17   H     H_    0.961474 0.505248 0.645400 0.236764
H18   H     H_    0.197945 0.517611 0.626821 0.231261
H19   H     H_    0.013250 0.546884 0.545503 0.205226
H20   H     H_    0.149275 0.393162 0.516628 0.204829
H21   H     H_    0.913462 0.380732 0.536657 0.205755
H22   H     H_    0.028987 0.341431 0.687146 0.175609
H23   H     H_    0.261222 0.345483 0.663606 0.191365
C48   C     C_3   0.819805 0.677242 0.371213 -0.386618
C49   C     C_3   0.968598 0.609376 0.353758 -0.356502
C50   C     C_3   0.891829 0.510376 0.345096 -0.631887
H24   H     H_    0.851527 0.485699 0.405417 0.200300
H25   H     H_    0.769714 0.507227 0.296398 0.259546
H26   H     H_    0.999597 0.463601 0.326377 0.245732
H27   H     H_    0.018324 0.629377 0.294067 0.237532
H28   H     H_    0.081518 0.611231 0.406594 0.219778
H29   H     H_    0.762488 0.652655 0.427359 0.196400
H30   H     H_    0.712084 0.675809 0.316409 0.210424
C51   C     C_3   0.383337 0.829741 0.363811 -0.326293
C52   C     C_3   0.445317 0.897944 0.435493 -0.365943
C53   C     C_3   0.444873 0.998277 0.403753 -0.649064
H31   H     H_    0.540256 0.005262 0.355870 0.244603
H32   H     H_    0.304308 0.018367 0.375012 0.239737
H33   H     H_    0.490170 0.046533 0.456224 0.196973
H34   H     H_    0.351487 0.893214 0.484225 0.206570
H35   H     H_    0.587304 0.880306 0.464380 0.206381
H36   H     H_    0.472146 0.841607 0.313688 0.195607
H37   H     H_    0.239738 0.846368 0.336856 0.204258
C54   C     C_3   0.679033 0.176864 0.628347 -0.387453
C55   C     C_3   0.530192 0.110951 0.649245 -0.368363
C56   C     C_3   0.605810 0.012159 0.662859 -0.675896
H38   H     H_    0.645624 0.983266 0.603841 0.217762
H39   H     H_    0.727643 0.011233 0.711853 0.222353
H40   H     H_    0.497218 0.967605 0.683993 0.241666
H41   H     H_    0.480872 0.135024 0.707891 0.212848
H42   H     H_    0.417417 0.110197 0.596336 0.228587
H43   H     H_    0.732056 0.150338 0.571710 0.196978
H44   H     H_    0.789188 0.175888 0.682041 0.198069
Cl1   Cl    Cl    0.235286 0.018808 0.116081 -0.635090
Cl2   Cl    Cl    0.810581 0.864058 0.976029 -0.590936
Cl3   Cl    Cl    0.314583 0.637146 0.977689 -0.591398
Cl4   Cl    Cl    0.739556 0.475374 0.111434 -0.652038

loop_
_geom_bond_atom_site_label_1
_geom_bond_atom_site_label_2
_ccdc_geom_bond_type
C43   Cl4   S    
O1    C5    A    
C12   C32   A    
C27   C31   A    
O13   V1    S    
O3    C7    A    
C48   C49   S    
C6    C40   S    
C47   H17   S    
O15   V3    S    
C50   H24   S    
C29   C34   A    
C52   H35   S    
C41   C42   S    
C31   C36   A    
C22   C26   A    
C55   H42   S    
C32   C35   A    
C51   H36   S    
O20   V1    S    
O9    C4    A    
C10   C14   A    
C49   H28   S    
O10   C3    A    
C56   H39   S    
C15   C51   S    
O4    C8    A    
O11   C2    A    
C39   H16   S    
C52   C53   S    
C54   C55   S    
C55   C56   S    
H4    C19   S    
C14   C18   A    
C10   C30   A    
C45   H22   S    
O16   C8    A    
C16   C54   S    
C9    H5    S    
O2    C6    A    
C53   H31   S    
C28   C36   A    
O14   V2    S    
C12   C16   A    
O5    C1    A    
O4    V1    S    
O9    V1    S    
C30   C33   A    
O7    C3    A    
C11   C31   A    
O18   V3    S    
O8    C4    A    
C21   H9    S    
C49   H27   S    
O12   V4    S    
O19   V2    S    
H1    C18   S    
C53   H32   S    
C4    C34   S    
C7    C37   S    
O16   V4    S    
H3    C20   S    
C40   H15   S    
C50   H25   S    
C48   H29   S    
O5    V1    S    
C52   H34   S    
C54   H43   S    
C55   H41   S    
C14   C48   S    
O8    V4    S    
C10   H6    S    
C51   H37   S    
O7    V3    S    
C56   H40   S    
C25   C29   A    
C46   C47   S    
C19   C23   A    
C26   C34   A    
C45   C46   S    
O1    V4    S    
O13   C5    A    
C28   C32   A    
C27   C35   A    
O2    V3    S    
O3    V2    S    
O15   C7    A    
C24   H12   S    
O6    C2    A    
C45   H23   S    
O10   V2    S    
C1    C35   S    
C17   C21   A    
C2    C36   S    
C49   C50   S    
C3    C33   S    
H2    C17   S    
O6    V2    S    
C47   H18   S    
C12   H8    S    
C53   H33   S    
C38   H13   S    
C25   C33   A    
C37   H14   S    
C50   H26   S    
C48   H30   S    
C26   C30   A    
C5    C39   S    
C37   C41   D    
C54   H44   S    
O14   C6    A    
C11   H7    S    
C40   C44   D    
C11   C15   A    
C23   H11   S    
C44   Cl3   S    
C13   C45   S    
C51   C52   S    
C18   C22   A    
C46   H20   S    
C22   H10   S    
C46   H21   S    
C56   H38   S    
C8    C38   S    
C15   C19   A    
O17   V4    S    
C21   C25   A    
C23   C27   A    
C9    C13   A    
O11   V3    S    
C43   C44   S    
C16   C20   A    
C20   C24   A    
O12   C1    A    
C38   C42   D    
C47   H19   S    
C13   C17   A    
C42   Cl1   S    
C39   C43   D    
C9    C29   A    
C41   Cl2   S    
C24   C28   A    
