data_mof_unit_31893.cif
_audit_creation_date              2012-10-26T19:40:43-0400
_audit_creation_method            fapswitch 2.2
_symmetry_space_group_name_H-M    P1
_symmetry_Int_Tables_number       1
_space_group_crystal_system       triclinic
_cell_length_a                    9.67524
_cell_length_b                    10.920132
_cell_length_c                    13.519857
_cell_angle_alpha                 90.187793
_cell_angle_beta                  75.307937
_cell_angle_gamma                 89.860365
_cell_volume                      1381.7179797

loop_
_atom_site_label
_atom_site_type_symbol
_atom_type_description
_atom_site_fract_x
_atom_site_fract_y
_atom_site_fract_z
_atom_type_partial_charge
C1    C     C_R   0.499211 0.734717 0.501744 0.564771
C2    C     C_R   0.382191 0.462423 0.809073 0.009197
C3    C     C_2   0.611609 0.066833 0.505347 -0.163642
C4    C     C_R   0.425806 0.484487 0.697805 0.545005
C5    C     C_2   0.500460 0.133268 0.493401 -0.123828
C6    C     C_2   0.613335 0.932798 0.500845 -0.168615
C7    C     C_2   0.494723 0.866763 0.507746 -0.116441
C8    C     C_2   0.060130 0.579060 0.553231 0.370798
C9    C     C_2   0.907805 0.587079 0.540552 -0.037021
C10   C     C_R   0.500496 0.265279 0.498687 0.530652
C11   C     C_R   0.573344 0.484946 0.302470 0.575230
C12   C     C_R   0.443315 0.464124 0.973625 0.040117
C13   C     C_R   0.770639 0.350753 0.048119 0.123460
C14   C     C_R   0.608983 0.445547 0.194857 -0.017486
C15   C     C_R   0.236201 0.475274 0.860869 0.140250
C16   C     C_R   0.203484 0.517860 0.961166 -0.162462
C17   C     C_R   0.308646 0.520376 0.014851 -0.132969
C18   C     C_3   0.956046 0.432320 0.204684 -0.258129
C19   C     C_3   0.008976 0.697754 0.703555 0.002262
C20   C     C_3   0.962815 0.831368 0.698238 -0.278591
C21   C     C_3   0.851966 0.869470 0.795406 -0.486982
C22   C     C_3   0.866603 0.147475 0.997195 -0.320777
C23   C     C_R   0.482302 0.438540 0.867351 -0.014196
C24   C     C_3   0.327086 0.312486 0.228197 0.027855
C25   C     C_3   0.303002 0.229101 0.142389 -0.281316
C26   C     C_3   0.237052 0.107267 0.184584 -0.484514
C27   C     C_3   0.127719 0.337174 0.755746 -0.260026
C28   C     C_R   0.540546 0.434818 0.033877 0.004998
C29   C     C_R   0.676942 0.383978 0.986847 -0.013257
C30   C     C_R   0.712269 0.360118 0.881705 -0.150450
C31   C     C_R   0.616210 0.384603 0.823481 -0.139481
C32   C     C_R   0.501610 0.443426 0.141252 0.208009
C33   C     C_R   0.741042 0.389583 0.150122 0.104059
Cu1   Cu    Cu3+1 0.361370 0.499980 0.499980 0.995017
Cu2   Cu    Cu3+1 0.638630 0.500020 0.500020 0.919002
H1    H     H_    0.406707 0.092228 0.477466 0.093373
H2    H     H_    0.646100 0.354118 0.744852 0.145828
H3    H     H_    0.706374 0.111510 0.517198 0.142358
H4    H     H_    0.859156 0.262646 0.208603 0.260460
H5    H     H_    0.037652 0.411328 0.133255 0.147696
H6    H     H_    0.002541 0.414484 0.270310 0.140819
H7    H     H_    0.925572 0.530645 0.206162 0.159054
H8    H     H_    0.062990 0.690819 0.766664 0.169399
H9    H     H_    0.914901 0.635580 0.724951 0.108640
H10   H     H_    0.057865 0.891577 0.688054 0.166369
H11   H     H_    0.917189 0.844964 0.631571 0.148949
H12   H     H_    0.715853 0.887796 0.493045 0.141474
H13   H     H_    0.754835 0.811848 0.806178 0.157892
H14   H     H_    0.821235 0.966642 0.789198 0.139734
H15   H     H_    0.896647 0.860041 0.863034 0.140743
H16   H     H_    0.973927 0.315123 0.957049 0.261557
H17   H     H_    0.969690 0.096883 0.977784 0.137577
H18   H     H_    0.813254 0.134219 0.934392 0.137379
H19   H     H_    0.798393 0.108877 0.068993 0.153257
H20   H     H_    0.227159 0.315797 0.290509 0.139983
H21   H     H_    0.410100 0.272002 0.262472 0.128409
H22   H     H_    0.231009 0.274782 0.101755 0.181892
H23   H     H_    0.389937 0.908130 0.520276 0.106769
H24   H     H_    0.406641 0.210476 0.086329 0.158627
H25   H     H_    0.307556 0.059261 0.225325 0.147990
H26   H     H_    0.223571 0.048303 0.120635 0.150449
H27   H     H_    0.130458 0.122582 0.238061 0.144178
H28   H     H_    0.022645 0.482263 0.849239 0.225891
H29   H     H_    0.047677 0.271418 0.797379 0.091730
H30   H     H_    0.233352 0.290894 0.741187 0.143913
H31   H     H_    0.103094 0.355671 0.681424 0.171137
H32   H     H_    0.122625 0.445598 0.448981 0.153880
H33   H     H_    0.845131 0.667877 0.568724 0.143152
H34   H     H_    0.900867 0.420366 0.481546 0.191371
H35   H     H_    0.813232 0.319229 0.843644 0.118641
H36   H     H_    0.279993 0.562922 0.089325 0.178438
H37   H     H_    0.096200 0.548566 0.997831 0.101700
N1    N     N_2   0.152660 0.501340 0.501130 -0.326355
N2    N     N_2   0.846520 0.501370 0.501160 -0.379943
N3    N     N_2   0.833309 0.354536 0.212397 -0.481591
N4    N     N_2   0.893094 0.275891 0.011073 -0.529969
N5    N     N_2   0.123541 0.451993 0.812042 -0.502233
O1    O     O_R   0.382960 0.678040 0.499980 -0.438652
O2    O     O_3   0.359017 0.434488 0.194116 -0.579121
O3    O     O_R   0.617100 0.678080 0.500020 -0.505924
O4    O     O_R   0.325800 0.499940 0.650950 -0.433330
O5    O     O_R   0.559930 0.499980 0.650990 -0.517105
O6    O     O_R   0.382900 0.321920 0.499980 -0.535331
O7    O     O_R   0.617040 0.321960 0.500020 -0.504444
O8    O     O_R   0.440070 0.500020 0.349010 -0.464753
O9    O     O_R   0.674200 0.500060 0.349050 -0.470467
O10   O     O_3   0.110440 0.665107 0.611873 -0.511987

loop_
_geom_bond_atom_site_label_1
_geom_bond_atom_site_label_2
_ccdc_geom_bond_type
Cu2   N2    S    
C18   N3    S    
C10   O6    A    
C19   C20   S    
C16   H37   S    
C22   N4    S    
C3    C6    S    
C14   C33   A    
C21   H14   S    
C22   H19   S    
C24   H20   S    
C12   C23   A    
C12   C28   A    
C13   C29   A    
C28   C29   A    
C26   H26   S    
C19   O10   S    
C18   H7    S    
C30   C31   A    
Cu2   O9    S    
C11   O9    A    
C15   C16   A    
C5    H1    S    
Cu2   O3    S    
Cu1   Cu2   S    
C18   H5    S    
C33   N3    S    
C4    O4    A    
C3    H3    S    
C8    C9    S    
C12   C17   A    
H32   N1    S    
Cu1   O4    S    
H4    N3    S    
C7    H23   S    
C20   H10   S    
C21   H13   S    
C1    O1    A    
C25   H22   S    
C21   H15   S    
C30   H35   S    
Cu2   O5    S    
C19   H8    S    
C22   H18   S    
C6    H12   S    
C28   C32   A    
H16   N4    S    
C18   H6    S    
C16   C17   A    
C3    C5    D    
C25   C26   S    
C31   H2    S    
Cu1   O8    S    
C23   C31   A    
C2    C4    S    
C13   C33   A    
C29   C30   A    
C27   H30   S    
C24   O2    S    
C13   N4    S    
H34   N2    S    
C24   C25   S    
C2    C15   A    
C17   H36   S    
C9    N2    D    
C19   H9    S    
C22   H17   S    
H28   N5    S    
C1    C7    S    
C14   C32   A    
C27   N5    S    
Cu2   O7    S    
C6    C7    D    
C24   H21   S    
C8    O10   S    
C26   H27   S    
C9    H33   S    
C5    C10   S    
C27   H31   S    
Cu1   O1    S    
C32   O2    S    
C15   N5    S    
C11   O8    A    
C10   O7    A    
C8    N1    D    
C11   C14   S    
C27   H29   S    
Cu1   N1    S    
C4    O5    A    
C20   C21   S    
Cu1   O6    S    
C2    C23   A    
C1    O3    A    
C25   H24   S    
C26   H25   S    
C20   H11   S    
