data_mof_unit_20529.cif
_audit_creation_date              2012-12-10T18:50:50-0500
_audit_creation_method            fapswitch 2.2
_symmetry_space_group_name_H-M    P1
_symmetry_Int_Tables_number       1
_space_group_crystal_system       triclinic
_cell_length_a                    10.729453
_cell_length_b                    9.855646
_cell_length_c                    15.725403
_cell_angle_alpha                 88.521394
_cell_angle_beta                  89.881616
_cell_angle_gamma                 90.453099
_cell_volume                      1662.28363909

loop_
_atom_site_label
_atom_site_type_symbol
_atom_type_description
_atom_site_fract_x
_atom_site_fract_y
_atom_site_fract_z
_atom_type_partial_charge
C1    C     C_R   0.259879 0.499648 0.500462 0.861989
C2    C     C_3   0.613780 0.444910 0.952274 -0.502083
C3    C     C_3   0.611750 0.438152 0.049762 -0.421818
C4    C     C_1   0.491948 0.496314 0.825615 -0.037191
C5    C     C_1   0.498394 0.510409 0.173847 -0.043987
C6    C     C_1   0.499907 0.506758 0.249229 -0.197987
C7    C     C_R   0.063050 0.380891 0.481065 -0.195767
C8    C     C_R   0.064758 0.618171 0.521575 -0.198396
C9    C     C_R   0.935276 0.381408 0.480620 -0.195308
C10   C     C_R   0.936916 0.618701 0.521091 -0.198533
C11   C     C_R   0.872569 0.500392 0.500438 -0.010789
C12   C     C_R   0.127419 0.499377 0.501243 -0.009156
C13   C     C_R   0.575853 0.070333 0.553716 -0.079823
C14   C     C_R   0.575834 0.926541 0.553735 -0.073588
C15   C     C_R   0.500440 0.501808 0.338210 0.906979
C16   C     C_R   0.423715 0.929634 0.446503 -0.074388
C17   C     C_R   0.423678 0.073419 0.446524 -0.071147
C18   C     C_R   0.740081 0.500327 0.500070 0.857848
C19   C     C_R   0.499749 0.498265 0.661696 0.904686
C20   C     C_3   0.492145 0.656369 0.044930 -0.424055
C21   C     C_3   0.376370 0.432598 0.054096 -0.553873
C22   C     C_3   0.380049 0.408406 0.954988 0.946407
C23   C     C_3   0.472429 0.660091 0.946389 0.881301
C24   C     C_1   0.496027 0.494490 0.750406 -0.200581
C25   C     C_3   0.494749 0.509582 0.082260 0.159666
C26   C     C_3   0.488450 0.505332 0.916820 0.041498
H1    H     H_    0.362733 0.876471 0.403702 0.127866
H2    H     H_    0.362612 0.129014 0.403757 0.124989
H3    H     H_    0.416488 0.712248 0.076673 0.186041
H4    H     H_    0.296040 0.490523 0.076840 0.154729
H5    H     H_    0.370573 0.334809 0.090470 0.175139
H6    H     H_    0.580101 0.709465 0.061992 0.167553
H7    H     H_    0.697026 0.487837 0.074950 0.184498
H8    H     H_    0.612222 0.330246 0.072542 0.201090
H9    H     H_    0.696995 0.500947 0.931279 0.179537
H10   H     H_    0.631027 0.341598 0.928099 0.241017
H11   H     H_    0.111085 0.288758 0.464792 0.152217
H12   H     H_    0.114189 0.710066 0.538143 0.155093
H13   H     H_    0.885946 0.289432 0.464120 0.157294
H14   H     H_    0.888809 0.710788 0.537365 0.151590
H15   H     H_    0.636580 0.123468 0.596693 0.129769
H16   H     H_    0.636509 0.870919 0.596762 0.120534
N1    N     N_R   0.499970 0.857200 0.499980 -0.077167
N2    N     N_R   0.499970 0.142800 0.499980 -0.079619
O1    O     O_R   0.316750 0.614620 0.499990 -0.629563
O2    O     O_R   0.316750 0.385380 0.499990 -0.625032
O3    O     O_R   0.499990 0.614720 0.377140 -0.612540
O4    O     O_R   0.499990 0.385280 0.377140 -0.615850
O5    O     O_R   0.683220 0.614710 0.500000 -0.626242
O6    O     O_R   0.683220 0.385290 0.500000 -0.628258
O7    O     O_R   0.499980 0.614620 0.622860 -0.626384
O8    O     O_R   0.499980 0.385380 0.622860 -0.602564
Zn1   Zn    Zn3+2 0.499980 0.653120 0.500000 0.940114
Zn2   Zn    Zn3+2 0.499980 0.346880 0.500000 0.950442
O9    O     O_3   0.347326 0.705609 0.935009 -0.695463
C27   C     C_3   0.304183 0.729274 0.850098 0.075710
H17   H     H_    0.204985 0.758854 0.856529 0.157150
H18   H     H_    0.300134 0.636004 0.812931 0.162630
C28   C     C_3   0.370403 0.844411 0.799375 -0.309866
H19   H     H_    0.390115 0.930844 0.841176 0.249756
H20   H     H_    0.459025 0.806647 0.772791 0.231865
C29   C     C_3   0.291678 0.894370 0.724236 -0.967975
H21   H     H_    0.270743 0.809327 0.681322 0.271853
H22   H     H_    0.343781 0.974305 0.687579 0.276770
H23   H     H_    0.202977 0.938160 0.747066 0.259509
O10   O     O_3   0.266389 0.426391 0.907262 -0.672544
C30   C     C_3   0.160134 0.484830 0.945958 0.032222
H24   H     H_    0.103143 0.526582 0.892715 0.177527
H25   H     H_    0.179928 0.573678 0.985122 0.174036
C31   C     C_3   0.078322 0.380484 0.994478 -0.395054
H26   H     H_    0.064115 0.289689 0.955030 0.234255
H27   H     H_    0.122617 0.350044 0.055618 0.204663
C32   C     C_3   0.951297 0.438729 0.015224 -0.973210
H28   H     H_    0.961507 0.531320 0.053506 0.268195
H29   H     H_    0.895618 0.361992 0.052027 0.265625
H30   H     H_    0.901569 0.464102 0.955393 0.270413
O11   O     O_3   0.420905 0.272641 0.940968 -0.655123
C33   C     C_3   0.335270 0.169427 0.966674 0.111531
H31   H     H_    0.300025 0.118111 0.909431 0.163963
H32   H     H_    0.253811 0.207594 0.000523 0.136095
C34   C     C_3   0.400996 0.066406 0.025355 -0.369578
H33   H     H_    0.462248 0.000774 0.987314 0.259695
H34   H     H_    0.460753 0.120569 0.071291 0.220060
C35   C     C_3   0.307147 0.978765 0.075624 -0.946476
H35   H     H_    0.240508 0.043265 0.110194 0.249260
H36   H     H_    0.356976 0.915860 0.123871 0.259103
H37   H     H_    0.254656 0.912064 0.032257 0.291395
O12   O     O_3   0.550643 0.768588 0.913506 -0.677071
C36   C     C_3   0.666246 0.745172 0.873571 0.018552
H38   H     H_    0.675871 0.825008 0.822756 0.169302
H39   H     H_    0.672916 0.651212 0.837979 0.129431
C37   C     C_3   0.774492 0.767400 0.935344 -0.340495
H40   H     H_    0.765654 0.869080 0.963662 0.230338
H41   H     H_    0.771969 0.690911 0.988162 0.211411
C38   C     C_3   0.900063 0.760048 0.889901 -0.997101
H42   H     H_    0.909012 0.661901 0.857429 0.259434
H43   H     H_    0.976669 0.768963 0.936865 0.263703
H44   H     H_    0.909343 0.844290 0.841954 0.266309

loop_
_geom_bond_atom_site_label_1
_geom_bond_atom_site_label_2
_ccdc_geom_bond_type
C2    H9    S    
O9    C27   S    
C11   C18   S    
C32   H28   S    
C38   H42   S    
C35   H37   S    
C15   O3    A    
C13   H15   S    
C34   H33   S    
C38   H44   S    
O11   C33   S    
O4    Zn2   S    
C21   H5    S    
O6    Zn2   S    
C35   H36   S    
C5    C6    T    
C4    C24   T    
C33   H32   S    
C1    O2    A    
C20   C25   S    
C3    H7    S    
C9    H13   S    
C27   H17   S    
C10   H14   S    
C23   C26   S    
C22   O10   S    
C29   H22   S    
C6    C15   S    
C19   O8    A    
N1    Zn1   S    
C16   C17   A    
C31   H26   S    
C36   H39   S    
O3    Zn1   S    
C16   H1    S    
O10   C30   S    
O1    Zn1   S    
C28   H19   S    
C21   C22   S    
C32   H29   S    
C1    C12   S    
C8    H12   S    
C15   O4    A    
C34   H34   S    
O8    Zn2   S    
C20   H3    S    
C7    C12   A    
C28   H20   S    
C30   H24   S    
C3    C25   S    
C35   H35   S    
C33   H31   S    
C3    H8    S    
C37   C38   S    
C30   H25   S    
C29   H21   S    
N2    Zn2   S    
C20   C23   S    
C8    C12   A    
O2    Zn2   S    
C31   C32   S    
C37   H41   S    
C7    H11   S    
C2    C26   S    
C36   C37   S    
C9    C11   A    
C16   N1    A    
C5    C25   S    
C23   O12   S    
C32   H30   S    
C34   C35   S    
C18   O6    A    
C20   H6    S    
C2    H10   S    
C7    C9    A    
C21   C25   S    
C28   C29   S    
C29   H23   S    
C17   H2    S    
C22   O11   S    
C4    C26   S    
C38   H43   S    
C23   O9    S    
C21   H4    S    
C27   C28   S    
C14   H16   S    
C30   C31   S    
C2    C3    S    
C17   N2    A    
C33   C34   S    
C1    O1    A    
O5    Zn1   S    
C37   H40   S    
C27   H18   S    
C19   C24   S    
C10   C11   A    
C19   O7    A    
O12   C36   S    
C8    C10   A    
C22   C26   S    
C31   H27   S    
O7    Zn1   S    
C36   H38   S    
C13   C14   A    
C13   N2    A    
C18   O5    A    
C14   N1    A    
