data_mof_unit_41414.cif
_audit_creation_date              2013-03-05T15:57:43-0500
_audit_creation_method            fapswitch 2.2
_symmetry_space_group_name_H-M    P1
_symmetry_Int_Tables_number       1
_space_group_crystal_system       triclinic
_cell_length_a                    19.247263
_cell_length_b                    18.371464
_cell_length_c                    12.608879
_cell_angle_alpha                 89.066736
_cell_angle_beta                  97.984387
_cell_angle_gamma                 88.107232
_cell_volume                      4411.89305411

loop_
_atom_site_label
_atom_site_type_symbol
_atom_site_description
_atom_site_fract_x
_atom_site_fract_y
_atom_site_fract_z
_atom_type_partial_charge
O1    O     O_R   0.448200 0.076800 0.373930 -0.590753
O2    O     O_R   0.448200 0.923200 0.373930 -0.610617
O3    O     O_R   0.948200 0.576800 0.373930 -0.590774
O4    O     O_R   0.948200 0.423200 0.373930 -0.610590
O5    O     O_R   0.414750 0.076790 0.542400 -0.605101
O6    O     O_R   0.414750 0.923210 0.542400 -0.617102
O7    O     O_R   0.914750 0.576790 0.542400 -0.605102
O8    O     O_R   0.914750 0.423210 0.542400 -0.617120
C1    C     C_R   0.408151 0.099636 0.442152 0.897018
C2    C     C_R   0.409672 0.899762 0.444831 0.855003
C3    C     C_R   0.908149 0.599634 0.442151 0.897002
C4    C     C_R   0.909674 0.399759 0.444832 0.855020
Zn1   Zn    Zn3+2 0.522330 1.000000 0.387520 1.024187
Zn2   Zn    Zn3+2 0.022330 0.500000 0.387520 1.024185
Zn3   Zn    Zn3+2 0.477660 1.000000 0.612480 1.006617
Zn4   Zn    Zn3+2 0.977660 0.500000 0.612480 1.006620
O9    O     O_R   0.585240 0.923200 0.457600 -0.590231
O10   O     O_R   0.585240 0.076800 0.457600 -0.556122
O11   O     O_R   0.085240 0.423200 0.457600 -0.590238
O12   O     O_R   0.085240 0.576800 0.457600 -0.556129
O13   O     O_R   0.551780 0.923190 0.626070 -0.602208
O14   O     O_R   0.551780 0.076810 0.626070 -0.613141
O15   O     O_R   0.051780 0.423190 0.626070 -0.602195
O16   O     O_R   0.051780 0.576810 0.626070 -0.613139
C5    C     C_R   0.588347 0.896323 0.555153 0.951726
C6    C     C_R   0.589399 0.101092 0.555323 0.959998
C7    C     C_R   0.088347 0.396323 0.555153 0.951770
C8    C     C_R   0.089397 0.601094 0.555322 0.960021
C9    C     C_R   0.660201 0.271883 0.683251 0.211326
C10   C     C_R   0.619495 0.695552 0.618303 0.217835
C11   C     C_R   0.160162 0.771914 0.683217 0.211320
C12   C     C_R   0.119492 0.195551 0.618288 0.217835
C13   C     C_R   0.636343 0.160710 0.585313 -0.350649
C14   C     C_R   0.624823 0.825422 0.576776 -0.326620
C15   C     C_R   0.136332 0.660722 0.585309 -0.350644
C16   C     C_R   0.124824 0.325423 0.576780 -0.326599
C17   C     C_R   0.397413 0.780208 0.365145 -0.343496
C18   C     C_R   0.365545 0.203291 0.321488 -0.294240
C19   C     C_R   0.897426 0.280207 0.365146 -0.343508
C20   C     C_R   0.865529 0.703276 0.321470 -0.294281
C21   C     C_R   0.380322 0.707072 0.377751 0.553935
C22   C     C_R   0.315431 0.258905 0.286625 0.521886
C23   C     C_R   0.880323 0.207071 0.377712 0.553952
C24   C     C_R   0.815407 0.758881 0.286596 0.521903
C25   C     C_R   0.331198 0.691665 0.445674 -0.061199
C26   C     C_R   0.261903 0.272886 0.348735 -0.171148
C27   C     C_R   0.831202 0.191655 0.445637 -0.061200
C28   C     C_R   0.761881 0.772863 0.348708 -0.171125
C29   C     C_R   0.292345 0.746975 0.491191 0.045716
C30   C     C_R   0.252896 0.226006 0.435496 0.069661
C31   C     C_R   0.792354 0.246959 0.491176 0.045718
C32   C     C_R   0.752884 0.725993 0.435483 0.069651
C33   C     C_R   0.314231 0.819074 0.484780 0.036319
C34   C     C_R   0.291936 0.160416 0.449008 0.029292
C35   C     C_R   0.814239 0.319060 0.484772 0.036320
C36   C     C_R   0.791930 0.660407 0.449007 0.029306
C37   C     C_R   0.734590 0.232935 0.547977 -0.102255
C38   C     C_R   0.703233 0.740107 0.505274 -0.095699
C39   C     C_R   0.234572 0.732957 0.547976 -0.102268
C40   C     C_R   0.203241 0.240115 0.505283 -0.095678
C41   C     C_R   0.715163 0.284837 0.622096 -0.208247
C42   C     C_R   0.674632 0.681201 0.557050 -0.179667
C43   C     C_R   0.215133 0.784865 0.622078 -0.208255
C44   C     C_R   0.174633 0.181204 0.557040 -0.179668
C45   C     C_R   0.250909 0.849836 0.631605 0.554480
C46   C     C_R   0.202429 0.110053 0.544217 0.523784
C47   C     C_R   0.750932 0.349812 0.631613 0.554502
C48   C     C_R   0.702434 0.610049 0.544242 0.523779
C49   C     C_R   0.286779 0.871611 0.549600 -0.273643
C50   C     C_R   0.264969 0.101501 0.500503 -0.302855
C51   C     C_R   0.786786 0.371593 0.549595 -0.273690
C52   C     C_R   0.764971 0.601496 0.500520 -0.302843
C53   C     C_R   0.693775 0.171323 0.529257 0.267230
C54   C     C_R   0.684424 0.811671 0.527883 0.233310
C55   C     C_R   0.193761 0.671343 0.529250 0.267246
C56   C     C_R   0.184431 0.311677 0.527899 0.233295
C57   C     C_R   0.620159 0.210466 0.663041 0.144463
C58   C     C_R   0.592507 0.767393 0.623666 0.176211
C59   C     C_R   0.120140 0.710481 0.663030 0.144470
C60   C     C_R   0.092504 0.267392 0.623658 0.176248
C61   C     C_R   0.368619 0.834857 0.423717 -0.097012
C62   C     C_R   0.354123 0.154488 0.403507 -0.113171
C63   C     C_R   0.868627 0.334850 0.423717 -0.097001
C64   C     C_R   0.854115 0.654479 0.403501 -0.113166
H1    H     H_    0.439107 0.794216 0.320508 0.129969
H2    H     H_    0.412756 0.197482 0.284260 0.168661
H3    H     H_    0.939140 0.294216 0.320546 0.129971
H4    H     H_    0.912739 0.697468 0.284240 0.168646
H5    H     H_    0.827171 0.135112 0.466212 0.209305
H6    H     H_    0.724507 0.817108 0.323967 0.163870
H7    H     H_    0.327168 0.635125 0.466264 0.209298
H8    H     H_    0.224535 0.317138 0.323999 0.163882
H9    H     H_    0.298826 0.928210 0.546886 0.163357
H10   H     H_    0.287964 0.047396 0.496784 0.137746
H11   H     H_    0.798827 0.428194 0.546880 0.163360
H12   H     H_    0.787970 0.547391 0.496814 0.137753
C65   C     C_R   0.645069 0.011713 0.131838 0.414409
C66   C     C_R   0.145068 0.511725 0.131836 0.414378
H13   H     H_    0.657064 0.010496 0.303608 0.258643
H14   H     H_    0.157059 0.510516 0.303608 0.258609
N1    N     N_R   0.552340 1.000000 0.237260 -0.169702
N2    N     N_R   0.052340 0.500000 0.237260 -0.169690
C67   C     C_R   0.378868 0.016088 0.762563 0.083110
C68   C     C_R   0.878867 0.516078 0.762564 0.083096
C69   C     C_R   0.354674 0.037674 0.856182 -0.238994
C70   C     C_R   0.854669 0.537644 0.856189 -0.238920
C71   C     C_R   0.401553 0.038972 0.950504 -0.168804
C72   C     C_R   0.901547 0.538942 0.950511 -0.168822
C73   C     C_R   0.472752 0.016864 0.951868 0.055706
C74   C     C_R   0.972750 0.516849 0.951871 0.055695
C75   C     C_R   0.495841 0.003728 0.852414 0.208358
C76   C     C_R   0.995840 0.503723 0.852415 0.208305
C77   C     C_R   0.522330 0.010405 0.046671 -0.244095
C78   C     C_R   0.022330 0.510396 0.046672 -0.244091
C79   C     C_R   0.595590 0.010845 0.037982 -0.091294
C80   C     C_R   0.095589 0.510849 0.037982 -0.091348
C81   C     C_R   0.617478 0.009658 0.935816 0.469907
C82   C     C_R   0.117475 0.509666 0.935814 0.469863
C83   C     C_R   0.567680 0.999905 0.846073 -0.226269
C84   C     C_R   0.067679 0.499904 0.846074 -0.226126
C85   C     C_R   0.502568 0.000815 0.150177 0.548285
C86   C     C_R   0.002569 0.500801 0.150178 0.548306
C87   C     C_R   0.621089 0.007083 0.230817 -0.153345
C88   C     C_R   0.121088 0.507095 0.230816 -0.153402
N3    N     N_R   0.448170 1.000000 0.762060 -0.133224
N4    N     N_R   0.948170 0.500000 0.762060 -0.133238
H15   H     H_    0.343132 0.016656 0.688495 0.155114
H16   H     H_    0.843131 0.516646 0.688496 0.155119
H17   H     H_    0.381573 0.060181 0.019993 0.202674
H18   H     H_    0.881565 0.560141 0.020003 0.202680
H19   H     H_    0.300096 0.054245 0.855372 0.204261
H20   H     H_    0.800088 0.554205 0.855381 0.204290
H21   H     H_    0.586584 0.992309 0.771291 0.203282
H22   H     H_    0.086585 0.492314 0.771292 0.203321
N5    N     N_R   0.556044 0.205860 0.708476 0.264933
O17   O     O_R   0.497180 0.229959 0.653992 -0.332807
O18   O     O_R   0.556024 0.175929 0.802650 -0.378779
N6    N     N_R   0.533650 0.781208 0.679502 0.250343
O19   O     O_R   0.470757 0.765905 0.635734 -0.387291
O20   O     O_R   0.543173 0.807468 0.775413 -0.383276
N7    N     N_R   0.056039 0.705848 0.708497 0.264940
O21   O     O_R   0.997163 0.729953 0.654057 -0.332756
O22   O     O_R   0.056049 0.675903 0.802669 -0.378890
N8    N     N_R   0.033644 0.281204 0.679488 0.250317
O23   O     O_R   0.970752 0.265893 0.635715 -0.387295
O24   O     O_R   0.043160 0.307484 0.775388 -0.383328
O25   O     O_3   0.688206 0.009390 0.924704 -0.589821
C89   C     C_3   0.701974 0.072277 0.865869 0.159862
H23   H     H_    0.678959 0.122526 0.897685 0.193910
H24   H     H_    0.681084 0.067096 0.779724 0.136154
C90   C     C_3   0.780785 0.081053 0.874243 -0.745730
H25   H     H_    0.806498 0.030642 0.848287 0.274957
H26   H     H_    0.791753 0.127414 0.822091 0.206205
H27   H     H_    0.802807 0.092488 0.958166 0.260334
O26   O     O_3   0.188198 0.509414 0.924687 -0.589814
C91   C     C_3   0.201955 0.572368 0.865990 0.160073
H28   H     H_    0.179062 0.622586 0.898078 0.193949
H29   H     H_    0.180924 0.567348 0.779867 0.136142
C92   C     C_3   0.280768 0.581039 0.874107 -0.745803
H30   H     H_    0.306356 0.530647 0.847862 0.275033
H31   H     H_    0.291715 0.627471 0.822067 0.206180
H32   H     H_    0.302939 0.592313 0.958022 0.260294
O27   O     O_3   0.714680 0.026679 0.127454 -0.554038
C93   C     C_3   0.757796 0.965534 0.165482 0.182371
H33   H     H_    0.745429 0.918520 0.112646 0.181234
H34   H     H_    0.751505 0.949933 0.249024 0.177738
C94   C     C_3   0.834185 0.983875 0.165324 -0.709268
H35   H     H_    0.846146 0.032799 0.214136 0.290915
H36   H     H_    0.869125 0.937798 0.200341 0.243633
H37   H     H_    0.844550 0.994636 0.082236 0.235663
O28   O     O_3   0.214677 0.526700 0.127442 -0.554093
C95   C     C_3   0.257808 0.465581 0.165544 0.182312
H38   H     H_    0.245423 0.418517 0.112814 0.181177
H39   H     H_    0.251555 0.450062 0.249131 0.177831
C96   C     C_3   0.334190 0.483911 0.165267 -0.709204
H40   H     H_    0.346163 0.532895 0.213937 0.290888
H41   H     H_    0.369142 0.437869 0.200373 0.243622
H42   H     H_    0.344525 0.494568 0.082139 0.235673
O29   O     O_3   0.433784 0.993926 0.167131 -0.603615
C97   C     C_3   0.412548 0.922752 0.141554 0.092174
H43   H     H_    0.446722 0.881198 0.190247 0.146084
H44   H     H_    0.415360 0.910871 0.056354 0.133513
C98   C     C_3   0.336850 0.915805 0.162322 -0.786358
H45   H     H_    0.301542 0.952592 0.106805 0.247256
H46   H     H_    0.320561 0.858736 0.150966 0.222454
H47   H     H_    0.330977 0.931851 0.244965 0.255156
O30   O     O_3   0.933788 0.493887 0.167130 -0.603608
C99   C     C_3   0.912576 0.422707 0.141549 0.092114
H48   H     H_    0.946756 0.381163 0.190254 0.146060
H49   H     H_    0.915403 0.410827 0.056352 0.133523
C100  C     C_3   0.836876 0.415734 0.162291 -0.786335
H50   H     H_    0.801566 0.452516 0.106769 0.247283
H51   H     H_    0.820606 0.358661 0.150923 0.222453
H52   H     H_    0.830988 0.431773 0.244930 0.255172
O31   O     O_3   0.260098 0.886494 0.726873 -0.565282
C101  C     C_3   0.313577 0.848199 0.797194 0.126035
H53   H     H_    0.365427 0.870236 0.787712 0.177659
H54   H     H_    0.317041 0.788220 0.783958 0.139181
C102  C     C_3   0.300353 0.857161 0.911824 -0.779768
H55   H     H_    0.250573 0.832277 0.924666 0.296849
H56   H     H_    0.343426 0.828731 0.966009 0.192443
H57   H     H_    0.297378 0.915704 0.930494 0.266957
O32   O     O_3   0.168008 0.048491 0.568814 -0.544897
C103  C     C_3   0.120969 0.031570 0.476766 0.049370
H58   H     H_    0.149596 0.020851 0.407227 0.117994
H59   H     H_    0.081347 0.076909 0.455340 0.158621
C104  C     C_3   0.081922 0.963575 0.498311 -0.582956
H60   H     H_    0.051877 0.972579 0.566281 0.310609
H61   H     H_    0.044582 0.950841 0.426290 0.178881
H62   H     H_    0.119652 0.916623 0.516832 0.243704
O33   O     O_3   0.760154 0.386451 0.726888 -0.565334
C105  C     C_3   0.813662 0.348158 0.797144 0.126013
H63   H     H_    0.865497 0.370235 0.787667 0.177731
H64   H     H_    0.817154 0.288190 0.783846 0.139276
C106  C     C_3   0.800459 0.357050 0.911790 -0.780006
H65   H     H_    0.750709 0.332112 0.924615 0.296871
H66   H     H_    0.843562 0.328647 0.965932 0.192475
H67   H     H_    0.797442 0.415581 0.930500 0.267035
O34   O     O_3   0.668027 0.548487 0.568877 -0.544906
C107  C     C_3   0.620992 0.531537 0.476845 0.049232
H68   H     H_    0.649618 0.520800 0.407312 0.118051
H69   H     H_    0.581366 0.576870 0.455396 0.158587
C108  C     C_3   0.581953 0.463544 0.498433 -0.582972
H70   H     H_    0.551917 0.472564 0.566408 0.310625
H71   H     H_    0.544609 0.450793 0.426430 0.178876
H72   H     H_    0.619687 0.416599 0.516964 0.243719
N9    N     N_R   0.638851 0.324543 0.756881 0.258644
O35   O     O_R   0.620176 0.390659 0.723997 -0.299914
O36   O     O_R   0.627102 0.303613 0.851648 -0.348732
N10   N     N_R   0.592505 0.638660 0.678460 0.264756
O37   O     O_R   0.632645 0.606268 0.758047 -0.316036
O38   O     O_R   0.527075 0.621513 0.657348 -0.328654
N11   N     N_R   0.138786 0.824589 0.756807 0.258638
O39   O     O_R   0.120118 0.890703 0.723885 -0.299879
O40   O     O_R   0.126999 0.803683 0.851566 -0.348713
N12   N     N_R   0.092499 0.138654 0.678432 0.264741
O41   O     O_R   0.132637 0.106247 0.758009 -0.316034
O42   O     O_R   0.027065 0.121508 0.657314 -0.328608
N13   N     N_R   0.705388 0.123262 0.445023 0.191031
O43   O     O_R   0.729564 0.057295 0.468644 -0.365192
O44   O     O_R   0.693300 0.145726 0.345493 -0.386049
N14   N     N_R   0.732727 0.868651 0.519199 0.220381
O45   O     O_R   0.719898 0.917957 0.443628 -0.394460
O46   O     O_R   0.794729 0.863941 0.575575 -0.320495
N15   N     N_R   0.205377 0.623288 0.445010 0.191040
O47   O     O_R   0.229554 0.557319 0.468623 -0.365211
O48   O     O_R   0.193295 0.645758 0.345483 -0.386057
N16   N     N_R   0.232734 0.368659 0.519230 0.220362
O49   O     O_R   0.219905 0.417977 0.443675 -0.394452
O50   O     O_R   0.294735 0.363946 0.575609 -0.320514
O51   O     O_3   0.410208 0.647527 0.330378 -0.605594
C109  C     C_3   0.466582 0.664862 0.274767 0.088098
H73   H     H_    0.510171 0.687457 0.330666 0.136252
H74   H     H_    0.448788 0.703732 0.207015 0.144253
C110  C     C_3   0.494464 0.596082 0.227121 -0.810526
H75   H     H_    0.455658 0.577656 0.160405 0.258314
H76   H     H_    0.544082 0.607385 0.195262 0.215441
H77   H     H_    0.504730 0.551970 0.288979 0.255611
O52   O     O_3   0.319409 0.303750 0.197958 -0.650747
C111  C     C_3   0.340043 0.263944 0.111519 0.046951
H78   H     H_    0.315786 0.209573 0.104313 0.150009
H79   H     H_    0.398183 0.256822 0.121536 0.177352
C112  C     C_3   0.316848 0.306005 0.006960 -0.729513
H80   H     H_    0.341219 0.359991 0.009271 0.260670
H81   H     H_    0.333406 0.275131 0.939166 0.239318
H82   H     H_    0.258796 0.313753 0.993614 0.253746
O53   O     O_3   0.910224 0.147530 0.330351 -0.605601
C113  C     C_3   0.966449 0.164919 0.274443 0.087878
H83   H     H_    0.010123 0.187511 0.330174 0.136277
H84   H     H_    0.948511 0.203810 0.206772 0.144244
C114  C     C_3   0.994244 0.096176 0.226610 -0.810307
H85   H     H_    0.955347 0.077794 0.159984 0.258225
H86   H     H_    0.043806 0.107511 0.194567 0.215517
H87   H     H_    0.004604 0.052034 0.288412 0.255674
O54   O     O_3   0.819375 0.803720 0.197917 -0.650779
C115  C     C_3   0.840040 0.763917 0.111496 0.046953
H88   H     H_    0.815806 0.709535 0.104293 0.150037
H89   H     H_    0.898182 0.756822 0.121536 0.177340
C116  C     C_3   0.816846 0.805965 0.006926 -0.729559
H90   H     H_    0.841194 0.859963 0.009236 0.260656
H91   H     H_    0.833428 0.775094 0.939145 0.239338
H92   H     H_    0.758792 0.813687 0.993556 0.253757

loop_
_geom_bond_atom_site_label_1
_geom_bond_atom_site_label_2
_geom_bond_distance
_ccdc_geom_bond_type
C38   C42   1.420053 A    
C114  H87   1.109149 S    
O28   C95   1.410951 S    
C43   C45   1.396162 A    
C112  H82   1.110641 S    
C27   H5    1.074481 S    
C20   C64   1.402733 A    
O27   C93   1.410957 S    
O10   C6    1.310229 A    
C89   C90   1.519982 S    
C19   H3    1.077696 S    
C71   H17   1.078063 S    
C104  H61   1.110230 S    
C33   C49   1.410940 A    
C81   C83   1.395660 A    
C110  H76   1.110621 S    
C108  H72   1.109420 S    
N5    O17   1.300887 A    
C85   O29   1.379578 S    
C46   C50   1.397172 A    
N16   O49   1.296617 A    
C66   C88   1.391755 A    
C69   C71   1.390447 A    
C15   C55   1.409357 A    
N1    C87   1.347363 A    
C97   C98   1.524750 S    
Zn1   O10   2.023338 S    
C18   H2    1.082193 S    
C99   C100  1.524734 S    
C10   C58   1.408449 A    
C17   H1    1.077688 S    
C91   H28   1.115265 S    
C50   H10   1.079048 S    
N13   O43   1.298648 A    
C89   H24   1.111356 S    
Zn1   N1    2.056016 S    
C53   N13   1.428650 S    
C49   H9    1.073836 S    
C98   H46   1.110020 S    
C10   C42   1.417075 A    
C45   C49   1.381634 A    
C105  H64   1.118316 S    
Zn2   N2    2.056016 S    
C51   H11   1.073837 S    
C72   C74   1.414098 A    
C114  H85   1.109728 S    
C110  H75   1.109747 S    
N12   O41   1.301104 A    
C69   H19   1.082642 S    
C114  H86   1.110875 S    
C22   C26   1.397824 A    
C116  H92   1.110640 S    
C37   C53   1.403570 A    
C14   C54   1.393643 A    
O2    Zn1   2.031940 S    
O13   C5    1.305684 A    
C16   C56   1.393639 A    
O25   C89   1.415017 S    
O6    Zn3   2.023207 S    
C40   C44   1.420068 A    
Zn3   O14   2.031932 S    
C92   H30   1.110975 S    
C8    C15   1.463909 S    
N16   O50   1.300934 A    
C60   N8    1.432402 S    
C68   H16   1.079882 S    
C75   N3    1.364107 A    
C104  H62   1.109447 S    
N14   O46   1.300933 A    
C116  H90   1.110154 S    
C92   H31   1.111144 S    
C47   O33   1.379385 S    
C31   C37   1.431622 A    
O15   C7    1.305678 A    
C65   C79   1.412873 A    
O11   C7    1.310806 A    
N11   O39   1.299999 A    
C74   C78   1.422869 A    
C20   C24   1.403569 A    
C76   N4    1.364098 A    
C55   N15   1.428661 S    
C95   C96   1.519469 S    
C73   C77   1.422870 A    
C5    C14   1.462446 S    
C90   H26   1.111134 S    
C110  H77   1.109119 S    
C102  H55   1.105809 S    
O8    Zn4   2.023207 S    
C28   H6    1.079941 S    
N15   O47   1.298646 A    
C18   C62   1.402736 A    
O4    Zn2   2.031940 S    
C71   C73   1.414101 A    
C17   C61   1.400580 A    
C56   N16   1.435597 S    
C101  C102  1.512659 S    
N2    C88   1.347369 A    
C11   C59   1.394372 A    
C58   N6    1.432407 S    
C68   C70   1.386810 A    
C107  H68   1.115252 S    
C97   H44   1.108001 S    
C26   C30   1.414363 A    
C36   C64   1.399230 A    
C96   H42   1.109207 S    
C82   C84   1.395635 A    
C93   C94   1.519456 S    
C19   C23   1.405532 A    
C32   C38   1.406973 A    
C9    C41   1.416887 A    
O5    Zn3   1.945884 S    
C104  H60   1.110072 S    
Zn2   O12   2.023338 S    
C112  H80   1.110143 S    
C48   O34   1.381789 S    
O1    C1    1.297964 A    
C89   H23   1.115244 S    
C12   C44   1.417065 A    
C108  H70   1.110045 S    
C96   H41   1.109713 S    
C80   C82   1.410142 A    
C16   C60   1.413646 A    
C106  H67   1.105999 S    
O34   C107  1.414804 S    
C76   C84   1.395572 A    
C111  H78   1.116223 S    
C27   C31   1.417443 A    
C94   H37   1.109223 S    
O12   C8    1.310241 A    
C31   C35   1.407601 A    
C36   C52   1.403660 A    
C40   C56   1.396529 A    
N1    C85   1.352734 A    
C100  H50   1.109359 S    
C94   H36   1.109737 S    
C99   H48   1.109849 S    
H14   C88   1.074208 S    
N7    O22   1.300482 A    
C44   C46   1.416246 A    
O1    Zn1   1.961394 S    
O7    C3    1.313252 A    
C98   H45   1.109358 S    
C100  H51   1.110004 S    
O33   C105  1.420819 S    
O5    C1    1.313251 A    
C22   O52   1.390135 S    
C11   C43   1.416891 A    
C102  H57   1.106059 S    
N8    O24   1.300810 A    
C11   N11   1.440749 S    
C41   C47   1.396161 A    
C6    C13   1.463887 S    
C66   C80   1.412866 A    
N9    O35   1.299937 A    
C34   C50   1.403672 A    
C115  C116  1.521516 S    
C25   C29   1.417440 A    
O8    C4    1.302023 A    
C21   O51   1.399835 S    
C111  H79   1.111682 S    
N14   O45   1.296604 A    
O51   C109  1.413265 S    
C92   H32   1.109978 S    
C68   N4    1.357559 A    
C82   O26   1.387562 S    
C67   C69   1.386826 A    
N8    O23   1.300382 A    
C30   C34   1.394119 A    
C103  H58   1.115281 S    
N10   O38   1.300724 A    
N11   O40   1.301016 A    
C65   O27   1.385000 S    
C23   O53   1.399824 S    
O3    Zn2   1.961394 S    
C12   C60   1.408449 A    
C90   H27   1.109974 S    
C109  C110  1.521537 S    
C66   O28   1.385013 S    
C75   C83   1.395579 A    
C101  H54   1.118341 S    
O7    Zn4   1.945884 S    
N9    O36   1.301016 A    
O54   C115  1.416839 S    
C103  H59   1.114384 S    
Zn4   O15   1.961387 S    
N15   O48   1.301937 A    
Zn3   N3    2.043699 S    
C83   H21   1.066395 S    
C54   N14   1.435591 S    
C98   H47   1.107263 S    
C113  C114  1.521402 S    
O4    C4    1.314243 A    
C46   O32   1.381802 S    
C35   C63   1.417496 A    
O52   C111  1.416840 S    
O2    C2    1.314246 A    
C39   C55   1.403566 A    
C94   H35   1.109945 S    
C67   H15   1.079885 S    
C95   H38   1.111196 S    
C38   C54   1.396529 A    
C109  H74   1.113425 S    
C26   H8    1.079945 S    
C12   N12   1.434275 S    
H13   C87   1.074215 S    
C13   C53   1.409365 A    
N5    O18   1.300477 A    
C79   C81   1.410142 A    
C93   H33   1.111192 S    
C34   C62   1.399229 A    
C21   C25   1.393660 A    
C48   C52   1.397165 A    
C97   H43   1.109850 S    
C113  H84   1.113427 S    
C105  C106  1.512584 S    
C72   H18   1.078049 S    
Zn2   O11   1.946012 S    
C91   C92   1.519980 S    
O16   C8    1.306451 A    
C115  H89   1.111680 S    
C101  H53   1.110145 S    
C84   H22   1.066403 S    
O6    C2    1.302019 A    
C78   C80   1.429665 A    
O53   C113  1.413348 S    
C108  H71   1.110193 S    
C37   C41   1.423009 A    
N6    O20   1.300802 A    
C42   C48   1.416251 A    
C3    C64   1.452011 S    
C77   C85   1.419104 A    
C1    C62   1.452005 S    
C2    C61   1.459857 S    
C39   C43   1.423019 A    
C29   C39   1.431611 A    
Zn1   O9    1.946012 S    
C107  H69   1.114375 S    
C81   O25   1.387587 S    
C7    C16   1.462441 S    
C30   C40   1.406980 A    
C10   N10   1.434271 S    
C111  C112  1.521514 S    
C93   H34   1.110996 S    
C100  H52   1.107244 S    
O9    C5    1.310800 A    
O30   C99   1.411810 S    
C65   C87   1.391731 A    
C96   H40   1.109922 S    
C112  H81   1.110635 S    
N7    O21   1.300891 A    
C14   C58   1.413633 A    
C115  H88   1.116222 S    
C13   C57   1.410062 A    
C86   O30   1.379567 S    
C59   N7    1.435235 S    
Zn3   O13   1.961387 S    
C70   C72   1.390445 A    
C29   C33   1.407584 A    
C73   C75   1.409214 A    
C78   C86   1.419094 A    
C91   H29   1.111378 S    
C95   H39   1.110980 S    
N12   O42   1.300789 A    
C103  C104  1.518794 S    
C47   C51   1.381612 A    
C116  H91   1.110639 S    
C106  H65   1.105680 S    
C17   C21   1.405549 A    
N10   O37   1.301090 A    
C25   H7    1.074485 S    
C33   C61   1.417524 A    
C74   C76   1.409210 A    
C99   H49   1.108002 S    
C106  H66   1.108633 S    
O3    C3    1.297968 A    
N6    O19   1.300347 A    
C70   H20   1.082629 S    
C19   C63   1.400553 A    
O31   C101  1.420895 S    
C52   H12   1.079050 S    
C18   C22   1.403560 A    
C24   C28   1.397824 A    
C28   C32   1.414350 A    
C24   O54   1.390143 S    
C9    C57   1.394355 A    
C105  H63   1.110122 S    
C4    C63   1.459867 S    
Zn4   O16   2.031932 S    
O14   C6    1.306453 A    
O26   C91   1.415012 S    
C102  H56   1.108751 S    
O29   C97   1.411820 S    
C9    N9    1.440729 S    
N13   O44   1.301934 A    
C109  H73   1.114105 S    
C15   C59   1.410082 A    
C57   N5    1.435248 S    
O32   C103  1.414847 S    
C45   O31   1.379475 S    
N2    C86   1.352722 A    
C67   N3    1.357559 A    
C23   C27   1.393680 A    
C90   H25   1.110999 S    
Zn4   N4    2.043699 S    
C107  C108  1.518798 S    
C35   C51   1.410915 A    
C20   H4    1.082187 S    
C32   C36   1.394116 A    
C113  H83   1.114065 S    
C77   C79   1.429667 A    
