data_mof_unit_50115.cif
_audit_creation_date              2013-03-05T15:43:11-0500
_audit_creation_method            fapswitch 2.2
_symmetry_space_group_name_H-M    P1
_symmetry_Int_Tables_number       1
_space_group_crystal_system       triclinic
_cell_length_a                    12.895158
_cell_length_b                    10.692367
_cell_length_c                    10.011564
_cell_angle_alpha                 90.504668
_cell_angle_beta                  97.68955
_cell_angle_gamma                 89.972694
_cell_volume                      1367.92564218

loop_
_atom_site_label
_atom_site_type_symbol
_atom_site_description
_atom_site_fract_x
_atom_site_fract_y
_atom_site_fract_z
_atom_type_partial_charge
O1    O     O_R   0.499980 0.319060 0.613040 -0.602692
O2    O     O_R   0.500020 0.319100 0.386900 -0.618393
C1    C     C_R   0.497831 0.262270 0.498785 0.943440
O3    O     O_R   0.346340 0.499960 0.594380 -0.613997
O4    O     O_R   0.346380 0.500000 0.368250 -0.612525
C2    C     C_R   0.298197 0.502205 0.472944 0.911434
Zn1   Zn    Zn3+2 0.499980 0.499970 0.650990 1.017653
Zn2   Zn    Zn3+2 0.500020 0.500030 0.349010 0.981731
O5    O     O_R   0.499980 0.680900 0.613100 -0.581955
O6    O     O_R   0.500020 0.680940 0.386960 -0.618247
O7    O     O_R   0.653620 0.500000 0.631750 -0.600985
O8    O     O_R   0.653660 0.500040 0.405620 -0.611171
C3    C     C_R   0.509014 0.737381 0.502110 0.866553
C4    C     C_R   0.702257 0.502332 0.527541 0.897690
C5    C     C_R   0.815330 0.512026 0.545964 -0.194072
C6    C     C_R   0.186088 0.508968 0.455340 -0.141466
C7    C     C_R   0.019063 0.478725 0.319555 0.320187
C8    C     C_R   0.127618 0.479133 0.331707 -0.221459
C9    C     C_R   0.137814 0.544769 0.565660 -0.179370
C10   C     C_R   0.030367 0.538896 0.559075 0.010145
C11   C     C_R   0.970503 0.502411 0.435884 0.009335
C12   C     C_R   0.864313 0.485179 0.433130 -0.179832
C13   C     C_R   0.873967 0.553891 0.667817 -0.149717
C14   C     C_R   0.982338 0.566062 0.674340 0.278590
H1    H     H_    0.818906 0.448059 0.342804 0.215688
H2    H     H_    0.166195 0.456570 0.244819 0.211545
H3    H     H_    0.185038 0.574021 0.658274 0.211189
C15   C     C_2   0.522744 0.932200 0.392875 -0.216815
C16   C     C_2   0.541912 0.866320 0.507285 -0.205014
H4    H     H_    0.490216 0.888764 0.297902 0.189138
C17   C     C_2   0.526345 0.066846 0.393429 -0.091166
C18   C     C_2   0.492588 0.129604 0.494966 -0.285254
H5    H     H_    0.551172 0.113660 0.307146 0.185356
H6    H     H_    0.462503 0.082880 0.577765 0.151264
C19   C     C_2   0.550974 0.581421 0.934437 -0.048011
N1    N     N_2   0.501130 0.501330 0.852280 -0.185568
H7    H     H_    0.592887 0.656275 0.892735 0.190704
H8    H     H_    0.466856 0.425848 0.891437 0.174697
C20   C     C_2   0.556942 0.575689 0.085426 -0.077766
N2    N     N_2   0.501160 0.501360 0.147950 -0.193391
H9    H     H_    0.609901 0.640012 0.144750 0.175382
H10   H     H_    0.446147 0.446088 0.092197 0.173554
C21   C     C_2   0.825189 0.583878 0.789704 1.042830
O9    O     O_2   0.798491 0.499377 0.859203 -0.539150
O10   O     O_R   0.812002 0.708738 0.826084 -0.746951
H11   H     H_    0.780393 0.717613 0.913084 0.355546
N3    N     N_R   0.959940 0.456453 0.189304 0.215104
O11   O     O_R   0.993242 0.376004 0.106523 -0.315779
O12   O     O_R   0.884369 0.531991 0.144268 -0.362011
N4    N     N_R   0.043620 0.601782 0.799268 0.197306
O13   O     O_R   0.041540 0.716511 0.843109 -0.323529
O14   O     O_R   0.098786 0.518514 0.871318 -0.348701
C22   C     C_2   0.606920 0.915326 0.631903 0.949307
O15   O     O_2   0.592282 0.878086 0.742996 -0.619670
O16   O     O_R   0.686331 0.002374 0.621332 -0.759275
H12   H     H_    0.724987 0.028066 0.712322 0.368567

loop_
_geom_bond_atom_site_label_1
_geom_bond_atom_site_label_2
_geom_bond_distance
_ccdc_geom_bond_type
O4    Zn2   2.016044 S    
C19   C20   1.505067 S    
C21   O9    1.222477 D    
C17   H5    1.086755 S    
C9    H3    1.082755 S    
Zn1   N1    2.013223 S    
N4    O13   1.300716 A    
N4    O14   1.300947 A    
C19   N1    1.292151 D    
C8    H2    1.083671 S    
Zn2   O8    1.986434 S    
C9    C10   1.379698 A    
N1    H8    1.025995 S    
O2    C1    1.282665 A    
C15   H4    1.086915 S    
N3    O12   1.301294 A    
O1    Zn1   1.968031 S    
C22   O15   1.222809 D    
Zn1   O7    2.016044 S    
C21   O10   1.397042 S    
C1    C18   1.420082 S    
C16   C22   1.497617 S    
C6    C9    1.389334 A    
C5    C13   1.415704 A    
C15   C16   1.344459 D    
C19   H7    1.083364 S    
O8    C4    1.295379 A    
C7    C8    1.388812 A    
C22   O16   1.399202 S    
C14   N4    1.435982 S    
O4    C2    1.288041 A    
Zn2   O6    1.968030 S    
O7    C4    1.287649 A    
O2    Zn2   1.974688 S    
O16   H12   1.013891 S    
O10   H11   1.013569 S    
O3    C2    1.289414 A    
C13   C14   1.396315 A    
C2    C6    1.434634 S    
N3    O11   1.301356 A    
C10   C14   1.408829 A    
C13   C21   1.478466 S    
C10   C11   1.416425 A    
C20   H9    1.084831 S    
C6    C8    1.394925 A    
C5    C12   1.393745 A    
C3    C16   1.441109 S    
C20   N2    1.292549 D    
Zn1   O5    1.974686 S    
O5    C3    1.288228 A    
C4    C5    1.448668 S    
Zn2   N2    2.015119 S    
O3    Zn1   1.986434 S    
C11   C12   1.378339 A    
O6    C3    1.287909 A    
C15   C17   1.440386 S    
C7    C11   1.415077 A    
C17   C18   1.333888 D    
C7    N3    1.437734 S    
N2    H10   1.026013 S    
O1    C1    1.287331 A    
C12   H1    1.081825 S    
C18   H6    1.086647 S    
