data_mof_unit_57479.cif
_audit_creation_date              2012-12-10T17:21:15-0500
_audit_creation_method            fapswitch 2.2
_symmetry_space_group_name_H-M    P1
_symmetry_Int_Tables_number       1
_space_group_crystal_system       triclinic
_cell_length_a                    9.620013
_cell_length_b                    10.906561
_cell_length_c                    13.860622
_cell_angle_alpha                 93.529702
_cell_angle_beta                  84.498236
_cell_angle_gamma                 88.031893
_cell_volume                      1443.64244586

loop_
_atom_site_label
_atom_site_type_symbol
_atom_type_description
_atom_site_fract_x
_atom_site_fract_y
_atom_site_fract_z
_atom_type_partial_charge
C1    C     C_R   0.497275 0.737942 0.496818 0.834711
C2    C     C_1   0.462834 0.503309 0.786035 -0.235087
C3    C     C_R   0.236570 0.901392 0.553949 -0.156130
C4    C     C_R   0.131455 0.969549 0.611824 -0.216595
C5    C     C_R   0.153039 0.088739 0.646964 0.524212
C6    C     C_R   0.281988 0.140270 0.619144 -0.213753
C7    C     C_R   0.386459 0.073330 0.556136 -0.031315
C8    C     C_R   0.371447 0.946958 0.534179 0.027013
C9    C     C_R   0.490679 0.873151 0.492352 -0.231950
C10   C     C_R   0.612551 0.931522 0.456573 0.163777
C11   C     C_R   0.621643 0.058062 0.472016 0.434799
C12   C     C_R   0.477006 0.500121 0.682754 0.812210
C13   C     C_R   0.505526 0.130126 0.515113 -0.240366
C14   C     C_R   0.879659 0.337741 0.368959 -0.031336
C15   C     C_R   0.963110 0.259346 0.303030 -0.166635
C16   C     C_R   0.106449 0.258300 0.303038 -0.216843
C17   C     C_R   0.167246 0.336513 0.368262 -0.066834
C18   C     C_R   0.086281 0.419384 0.435810 0.078237
C19   C     C_R   0.936986 0.418927 0.436520 0.055737
C20   C     C_R   0.914761 0.581637 0.558850 0.455780
C21   C     C_R   0.063345 0.576058 0.562906 0.462264
C22   C     C_R   0.501754 0.263298 0.505844 0.816235
C23   C     C_R   0.523120 0.498828 0.317159 0.780990
C24   C     C_1   0.537929 0.497248 0.213862 -0.186354
C25   C     C_2   0.561576 0.495052 0.022106 0.171483
C26   C     C_2   0.443379 0.513955 0.978480 0.453180
C27   C     C_1   0.452518 0.507661 0.873117 -0.134444
C28   C     C_1   0.549846 0.495972 0.126829 0.060496
Cu1   Cu    Cu3+1 0.359340 0.500010 0.500010 0.955272
Cu2   Cu    Cu3+1 0.640660 0.499990 0.499990 0.954325
H1    H     H_    0.770671 0.329857 0.364900 0.213132
H2    H     H_    0.915828 0.197936 0.252371 0.163401
H3    H     H_    0.171357 0.196299 0.252131 0.154728
H4    H     H_    0.278070 0.328025 0.362044 0.194304
H5    H     H_    0.205169 0.817631 0.519743 0.226256
H6    H     H_    0.031412 0.929268 0.628753 0.179354
H7    H     H_    0.302806 0.230977 0.648742 0.152134
N1    N     N_R   0.852210 0.498790 0.499090 -0.258780
N2    N     N_R   0.148080 0.498710 0.499060 -0.257759
O1    O     O_R   0.381190 0.680360 0.500010 -0.558417
O2    O     O_R   0.618760 0.680340 0.500000 -0.529540
O3    O     O_R   0.364420 0.499990 0.637850 -0.557121
O4    O     O_R   0.601990 0.499960 0.637840 -0.579504
O5    O     O_R   0.381240 0.319660 0.500000 -0.614036
O6    O     O_R   0.618810 0.319640 0.499990 -0.566856
O7    O     O_R   0.398010 0.500040 0.362160 -0.578523
O8    O     O_R   0.635580 0.500010 0.362150 -0.599132
O9    O     O_3   0.316710 0.535296 0.037059 -0.576267
C29   C     C_3   0.203702 0.565642 0.983944 -0.309652
H8    H     H_    0.180976 0.487222 0.933458 0.163325
H9    H     H_    0.223669 0.649782 0.944120 0.156786
H10   H     H_    0.109330 0.585656 0.035760 0.188442
O10   O     O_3   0.125114 0.660094 0.622559 -0.557691
C30   C     C_3   0.104939 0.631242 0.720952 -0.269183
H11   H     H_    0.206831 0.629302 0.751606 0.189592
H12   H     H_    0.043961 0.706873 0.764028 0.154847
H13   H     H_    0.055190 0.542194 0.733664 0.093604
N3    N     N_2   0.694975 0.471172 0.966664 -0.447922
H14   H     H_    0.710028 0.514245 0.902521 0.242269
C31   C     C_3   0.818623 0.463937 0.018300 -0.684154
H15   H     H_    0.911539 0.439891 0.965785 0.218678
H16   H     H_    0.809316 0.391087 0.070886 0.246226
H17   H     H_    0.834035 0.553971 0.057016 0.218056
N4    N     N_2   0.725934 0.866934 0.399004 -0.392070
H18   H     H_    0.788820 0.810176 0.434460 0.295810
C32   C     C_3   0.697780 0.822539 0.302635 -0.619335
H19   H     H_    0.795594 0.782367 0.262147 0.218733
H20   H     H_    0.658983 0.899716 0.262437 0.226657
H21   H     H_    0.618878 0.750802 0.306459 0.208259
O11   O     O_3   0.046904 0.148024 0.710054 -0.583124
C33   C     C_3   0.036638 0.275577 0.698652 -0.355324
H22   H     H_    0.046375 0.297055 0.620877 0.149982
H23   H     H_    0.115164 0.323894 0.738976 0.171782
H24   H     H_    0.931875 0.311206 0.730797 0.189819
O12   O     O_3   0.744646 0.111309 0.440372 -0.578372
C34   C     C_3   0.836253 0.103884 0.513796 -0.232891
H25   H     H_    0.856778 0.007246 0.531433 0.158760
H26   H     H_    0.794743 0.160329 0.580619 0.174729
H27   H     H_    0.938196 0.140425 0.487635 0.187901
O13   O     O_3   0.840424 0.688039 0.595777 -0.570284
C35   C     C_3   0.787585 0.680947 0.693722 -0.221146
H28   H     H_    0.829233 0.756443 0.738125 0.146914
H29   H     H_    0.809038 0.591251 0.725053 0.117864
H30   H     H_    0.673197 0.700742 0.700435 0.181661

loop_
_geom_bond_atom_site_label_1
_geom_bond_atom_site_label_2
_ccdc_geom_bond_type
C8    C9    A    
C32   H20   S    
C4    H6    S    
Cu1   O3    S    
Cu2   O6    S    
C34   H27   S    
C14   H1    S    
C18   N2    A    
C2    C12   S    
C35   H28   S    
C7    C8    A    
O10   C30   S    
C25   C28   S    
C26   C27   S    
Cu1   Cu2   S    
C31   H17   S    
C34   H26   S    
C12   O4    A    
C5    C6    A    
C32   H21   S    
N3    C31   S    
C15   C16   A    
Cu2   N1    S    
C31   H16   S    
C18   C19   A    
C12   O3    A    
C1    O1    A    
C22   O5    A    
C16   C17   A    
C29   H9    S    
C23   C24   S    
Cu2   O2    S    
C2    C27   T    
C9    C10   A    
C26   O9    S    
C32   H19   S    
C23   O7    A    
C35   H29   S    
C30   H12   S    
C23   O8    A    
C20   O13   S    
Cu2   O8    S    
C15   H2    S    
C1    C9    S    
C34   H25   S    
C3    C8    A    
C33   H23   S    
O13   C35   S    
C25   C26   D    
C31   H15   S    
N4    C32   S    
O12   C34   S    
C5    O11   S    
C19   N1    A    
C16   H3    S    
C20   N1    A    
C21   N2    A    
C3    H5    S    
C29   H10   S    
Cu1   N2    S    
C17   C18   A    
C6    H7    S    
O11   C33   S    
C1    O2    A    
O9    C29   S    
Cu1   O5    S    
Cu2   O4    S    
C25   N3    S    
C3    C4    A    
C35   H30   S    
C30   H11   S    
C14   C19   A    
C10   N4    S    
C24   C28   T    
C4    C5    A    
C33   H24   S    
C6    C7    A    
Cu1   O7    S    
N4    H18   S    
N3    H14   S    
C33   H22   S    
C11   O12   S    
C21   O10   S    
C11   C13   A    
Cu1   O1    S    
C13   C22   S    
C10   C11   A    
C7    C13   A    
C22   O6    A    
C20   C21   A    
C29   H8    S    
C17   H4    S    
C14   C15   A    
C30   H13   S    
