data_mof_unit_12414.cif
_audit_creation_date              2012-12-10T21:07:48-0500
_audit_creation_method            fapswitch 2.2
_symmetry_space_group_name_H-M    P1
_symmetry_Int_Tables_number       1
_space_group_crystal_system       triclinic
_cell_length_a                    8.737122
_cell_length_b                    17.530388
_cell_length_c                    16.85445
_cell_angle_alpha                 90.779047
_cell_angle_beta                  98.85322
_cell_angle_gamma                 94.180901
_cell_volume                      2543.16282809

loop_
_atom_site_label
_atom_site_type_symbol
_atom_type_description
_atom_site_fract_x
_atom_site_fract_y
_atom_site_fract_z
_atom_type_partial_charge
C1    C     C_R   0.517082 0.354049 0.500862 0.880585
C2    C     C_R   0.412162 0.444229 0.242597 0.294652
C3    C     C_R   0.571461 0.560422 0.840310 -0.086090
C4    C     C_R   0.427760 0.440045 0.159507 -0.085013
C5    C     C_R   0.492032 0.500540 0.875315 -0.019392
C6    C     C_R   0.506716 0.500165 0.124597 -0.019681
C7    C     C_1   0.496047 0.500095 0.963425 0.013581
C8    C     C_1   0.502571 0.500804 0.036480 0.013374
C9    C     C_R   0.201296 0.499412 0.479296 0.927325
C10   C     C_R   0.798652 0.500381 0.520714 0.919496
C11   C     C_2   0.036691 0.490519 0.468897 -0.044794
C12   C     C_R   0.491613 0.646997 0.499858 0.877891
C13   C     C_2   0.963204 0.508846 0.531239 -0.042303
C14   C     C_R   0.540922 0.852295 0.576190 -0.037958
C15   C     C_R   0.616742 0.157206 0.434761 -0.039081
C16   C     C_R   0.500627 0.773407 0.574179 -0.078692
C17   C     C_R   0.588435 0.234900 0.432262 -0.079925
C18   C     C_R   0.486371 0.731325 0.500576 -0.171281
C19   C     C_R   0.566869 0.274518 0.503663 -0.166540
C20   C     C_R   0.476010 0.771662 0.427809 -0.058778
C21   C     C_R   0.606248 0.238600 0.578648 -0.068178
C22   C     C_R   0.514901 0.850701 0.429956 -0.037153
C23   C     C_1   0.594565 0.970296 0.506528 -0.009576
C24   C     C_R   0.632833 0.160688 0.580234 -0.038969
C25   C     C_R   0.555257 0.889791 0.504365 0.019381
C26   C     C_R   0.628362 0.119699 0.507962 0.020876
C27   C     C_3   0.957273 0.494498 0.324229 -0.696311
C28   C     C_3   0.042645 0.503733 0.675763 -0.698181
C29   C     C_1   0.565670 0.894681 0.652293 0.187383
C30   C     C_1   0.634997 0.115947 0.361847 0.185892
C31   C     C_1   0.460703 0.738355 0.646548 0.242421
C32   C     C_1   0.592856 0.273132 0.356719 0.243722
C33   C     C_1   0.413934 0.734062 0.351072 0.230891
C34   C     C_1   0.617478 0.038145 0.507799 -0.007777
C35   C     C_1   0.631683 0.281219 0.654618 0.236560
C36   C     C_1   0.511286 0.891566 0.355412 0.192617
C37   C     C_1   0.665760 0.122876 0.656462 0.192316
C38   C     C_1   0.324773 0.379840 0.857874 0.196170
C39   C     C_1   0.673966 0.620863 0.142270 0.197072
C40   C     C_1   0.324956 0.384233 0.688806 0.264515
C41   C     C_1   0.677184 0.614940 0.311585 0.262335
C42   C     C_3   0.840513 0.634777 0.772481 -0.821410
C43   C     C_3   0.161050 0.363720 0.227808 -0.820187
C44   C     C_1   0.627503 0.628464 0.889017 0.225878
C45   C     C_R   0.412297 0.441464 0.824377 -0.124136
C46   C     C_1   0.372098 0.372084 0.110594 0.225901
C47   C     C_R   0.586774 0.559059 0.175677 -0.124702
C48   C     C_R   0.413936 0.443508 0.740141 0.037899
C49   C     C_R   0.585965 0.556578 0.259958 0.036448
C50   C     C_R   0.587626 0.555871 0.757329 0.295083
H1    H     H_    0.987158 0.396467 0.391249 0.213188
H2    H     H_    0.929885 0.644335 0.732717 0.235684
H3    H     H_    0.880019 0.591144 0.816767 0.245398
H4    H     H_    0.833795 0.690536 0.803083 0.276168
H5    H     H_    0.299738 0.397922 0.333390 0.285992
H6    H     H_    0.072057 0.353473 0.267704 0.235584
H7    H     H_    0.169283 0.308113 0.197240 0.276690
H8    H     H_    0.119983 0.407073 0.183529 0.244494
H9    H     H_    0.858236 0.471868 0.278779 0.234532
H10   H     H_    0.066018 0.489040 0.299311 0.247777
H11   H     H_    0.948005 0.556133 0.335900 0.243364
H12   H     H_    0.012403 0.602293 0.609658 0.214011
H13   H     H_    0.140882 0.526478 0.721613 0.233482
H14   H     H_    0.053345 0.442300 0.663614 0.242344
H15   H     H_    0.933403 0.508391 0.700474 0.249396
H16   H     H_    0.700812 0.602039 0.666589 0.284775
N1    N     N_R   0.500040 0.500030 0.707230 -0.149412
N2    N     N_1   0.654072 0.314622 0.715514 -0.193521
N3    N     N_1   0.507611 0.923454 0.295587 -0.155417
N4    N     N_1   0.692731 0.093464 0.717533 -0.154215
N5    N     N_1   0.254484 0.330555 0.884273 -0.161466
N6    N     N_1   0.743953 0.670293 0.115919 -0.161073
N7    N     N_1   0.252963 0.336259 0.648460 -0.218643
N8    N     N_1   0.751291 0.662082 0.352203 -0.220434
N9    N     N_2   0.690733 0.610661 0.725354 -0.298683
N10   N     N_2   0.310423 0.388864 0.274775 -0.296652
N11   N     N_1   0.671205 0.682814 0.928078 -0.168385
N12   N     N_R   0.499960 0.499970 0.292770 -0.149883
N13   N     N_1   0.328722 0.317803 0.071362 -0.168947
N14   N     N_2   0.957573 0.451886 0.397266 -0.290938
N15   N     N_2   0.042316 0.547000 0.603137 -0.289732
N16   N     N_1   0.584943 0.927764 0.713299 -0.156844
N17   N     N_1   0.650417 0.083781 0.303546 -0.158039
N18   N     N_1   0.426793 0.711344 0.704274 -0.183693
N19   N     N_1   0.598966 0.302707 0.296215 -0.185390
N20   N     N_1   0.363363 0.704542 0.289834 -0.190116
O1    O     O_R   0.500000 0.389130 0.566570 -0.609585
O2    O     O_R   0.500000 0.610870 0.433430 -0.607944
O3    O     O_R   0.499990 0.389100 0.433480 -0.637843
O4    O     O_R   0.500010 0.610900 0.566520 -0.636619
O5    O     O_R   0.271750 0.500010 0.550980 -0.585628
O6    O     O_R   0.728250 0.499990 0.449020 -0.587320
O7    O     O_R   0.271740 0.499980 0.417890 -0.649333
O8    O     O_R   0.728260 0.500020 0.582110 -0.651815
Zn1   Zn    Zn3+2 0.500010 0.500020 0.588860 0.955178
Zn2   Zn    Zn3+2 0.499990 0.499980 0.411140 0.955356

loop_
_geom_bond_atom_site_label_1
_geom_bond_atom_site_label_2
_ccdc_geom_bond_type
C1    O1    A    
O2    Zn2   S    
C9    O5    A    
C7    C8    T    
C47   C49   A    
C4    C46   S    
C40   N7    T    
C16   C31   S    
C42   N9    S    
C12   O4    A    
C44   N11   T    
C19   C21   A    
C24   C26   A    
C27   H10   S    
C42   H3    S    
C46   N13   T    
C10   O8    A    
C13   N15   S    
O6    Zn2   S    
C49   N12   A    
C40   C48   S    
C30   N17   T    
H1    N14   S    
C38   C45   S    
C27   H11   S    
C43   H8    S    
C41   N8    T    
C26   C34   S    
N12   Zn2   S    
C22   C25   A    
O1    Zn1   S    
H16   N9    S    
C39   N6    T    
C50   N1    A    
C10   O6    A    
C48   N1    A    
C37   N4    T    
N1    Zn1   S    
C41   C49   S    
C3    C50   A    
C3    C44   S    
C1    C19   S    
C6    C47   A    
C12   O2    A    
O4    Zn1   S    
C4    C6    A    
C27   N14   S    
C5    C7    S    
C15   C26   A    
C6    C8    S    
C5    C45   A    
C31   N18   T    
C2    C4    A    
C33   N20   T    
C2    N12   A    
C23   C34   T    
C24   C37   S    
C9    C11   S    
H5    N10   S    
C28   H14   S    
H12   N15   S    
C20   C22   A    
O7    Zn2   S    
C14   C16   A    
C20   C33   S    
C14   C29   S    
C9    O7    A    
C2    N10   S    
C36   N3    T    
C15   C30   S    
C39   C47   S    
C45   C48   A    
C43   N10   S    
C15   C17   A    
C38   N5    T    
C1    O3    A    
C28   N15   S    
C3    C5    A    
C10   C13   S    
C21   C35   S    
C22   C36   S    
O3    Zn2   S    
C28   H15   S    
C29   N16   T    
C27   H9    S    
C50   N9    S    
C42   H4    S    
C11   C13   D    
C35   N2    T    
C32   N19   T    
C17   C19   A    
C18   C20   A    
C23   C25   S    
C14   C25   A    
O8    Zn1   S    
C11   N14   S    
C43   H7    S    
O5    Zn1   S    
C28   H13   S    
C43   H6    S    
C16   C18   A    
C21   C24   A    
C12   C18   S    
C17   C32   S    
C42   H2    S    
