data_mof_unit_67528.cif
_audit_creation_date              2013-03-05T15:41:20-0500
_audit_creation_method            fapswitch 2.2
_symmetry_space_group_name_H-M    P1
_symmetry_Int_Tables_number       1
_space_group_crystal_system       triclinic
_cell_length_a                    10.707648
_cell_length_b                    8.896972
_cell_length_c                    7.536462
_cell_angle_alpha                 101.402338
_cell_angle_beta                  94.457043
_cell_angle_gamma                 95.087467
_cell_volume                      697.679808173

loop_
_atom_site_label
_atom_site_type_symbol
_atom_site_description
_atom_site_fract_x
_atom_site_fract_y
_atom_site_fract_z
_atom_type_partial_charge
O1    O     O_R   0.509190 0.286130 0.619780 -0.542747
O2    O     O_R   0.490810 0.713870 0.380220 -0.559136
O3    O     O_R   0.485310 0.256770 0.308360 -0.584452
O4    O     O_R   0.514690 0.743230 0.691640 -0.585362
C1    C     C_R   0.496699 0.201584 0.456041 0.802586
C2    C     C_R   0.504788 0.798519 0.544283 0.813090
O5    O     O_R   0.328790 0.514640 0.655680 -0.540946
O6    O     O_R   0.671210 0.485360 0.344320 -0.540923
O7    O     O_R   0.304910 0.485280 0.344260 -0.533871
O8    O     O_R   0.695090 0.514720 0.655740 -0.509493
C3    C     C_R   0.260300 0.503493 0.501580 0.870470
C4    C     C_R   0.739408 0.497375 0.498196 0.875831
Cu1   Cu    Cu3+1 0.514140 0.517380 0.684380 1.142473
Cu2   Cu    Cu3+1 0.485860 0.482620 0.315620 1.128774
N1    N     N_2   0.464560 0.456420 0.038510 0.123106
N2    N     N_2   0.535440 0.543580 0.961490 0.124004
C5    C     C_3   0.048896 0.505128 0.668079 0.392147
C6    C     C_3   0.949073 0.496784 0.327830 0.394737
C7    C     C_3   0.954408 0.376598 0.554319 0.061539
C8    C     C_3   0.044109 0.626515 0.443826 0.058367
C9    C     C_3   0.875165 0.496144 0.495565 -0.324828
C10   C     C_3   0.123836 0.505718 0.502453 -0.344911
C11   C     C_3   0.969452 0.625591 0.610252 0.298898
C12   C     C_3   0.028618 0.374264 0.387774 0.290052
C13   C     C_2   0.512854 0.039163 0.433935 -0.002695
C14   C     C_2   0.492288 0.961823 0.568656 0.023798
N3    N     N_2   0.903177 0.247584 0.625483 -0.369001
H1    H     H_    0.814629 0.199160 0.569179 0.236480
C15   C     C_3   0.989912 0.139354 0.660605 -0.402761
H2    H     H_    0.964586 0.095718 0.782235 0.290692
H3    H     H_    0.088487 0.194597 0.689288 0.251078
H4    H     H_    0.984002 0.042261 0.541469 0.229454
N4    N     N_2   0.089768 0.775484 0.410654 -0.426850
H5    H     H_    0.148244 0.839480 0.518270 0.241699
C16   C     C_3   0.135419 0.782065 0.237873 -0.435987
H6    H     H_    0.175478 0.901701 0.238776 0.218094
H7    H     H_    0.055640 0.751883 0.130304 0.324130
H8    H     H_    0.211235 0.705749 0.211998 0.249577
Cl1   Cl    Cl    0.115883 0.511341 0.890171 -0.492305
Cl2   Cl    Cl    0.880272 0.468621 0.100089 -0.411390
Cl3   Cl    Cl    0.926539 0.786446 0.765405 -0.582039
Cl4   Cl    Cl    0.067765 0.205817 0.240248 -0.555215
Cl5   Cl    Cl    0.346664 0.330073 0.911406 -0.424668
Cl6   Cl    Cl    0.654418 0.669505 0.088213 -0.394208
N5    N     N_2   0.556588 0.966971 0.267237 -0.403599
H9    H     H_    0.493716 0.965973 0.156126 0.269538
C17   C     C_3   0.683951 0.023857 0.241334 -0.495343
H10   H     H_    0.704788 0.978512 0.099884 0.271174
H11   H     H_    0.752415 0.984402 0.335910 0.243019
H12   H     H_    0.696847 0.151537 0.262640 0.198577
N6    N     N_2   0.458522 0.036513 0.741327 -0.387410
H13   H     H_    0.528320 0.039703 0.844778 0.278004
C18   C     C_3   0.335230 0.982190 0.786113 -0.545004
H14   H     H_    0.326758 0.023376 0.933239 0.255619
H15   H     H_    0.317822 0.854590 0.757892 0.203461
H16   H     H_    0.261943 0.029665 0.708119 0.234677

loop_
_geom_bond_atom_site_label_1
_geom_bond_atom_site_label_2
_geom_bond_distance
_ccdc_geom_bond_type
C7    C9    1.528121 S    
O7    Cu2   1.967830 S    
C18   H14   1.110328 S    
C15   H2    1.106894 S    
C6    C12   1.554776 S    
C13   N5    1.426847 S    
N3    C15   1.442567 S    
C6    C9    1.543331 S    
C12   Cl4   1.784066 S    
N2    Cl6   1.710268 S    
C3    C10   1.463597 S    
C5    C10   1.536080 S    
C5    C11   1.533282 S    
C8    C11   1.539813 S    
C17   H12   1.109900 S    
O6    C4    1.301944 A    
O3    C1    1.303948 A    
C18   H15   1.108884 S    
N4    H5    1.024348 S    
N1    Cl5   1.705714 S    
N6    H13   1.031585 S    
C15   H3    1.110363 S    
C2    C14   1.447555 S    
Cu1   Cu2   2.724656 S    
O5    C3    1.305997 A    
O7    C3    1.298440 A    
O2    C2    1.304404 A    
O3    Cu2   1.998755 S    
O8    C4    1.298795 A    
O1    C1    1.302298 A    
C8    N4    1.446800 S    
C10   C12   1.551201 S    
C17   H11   1.109969 S    
C16   H7    1.106643 S    
C8    C10   1.539773 S    
C7    C12   1.534566 S    
C15   H4    1.109587 S    
C6    C8    1.544812 S    
N5    C17   1.453327 S    
C9    C11   1.535346 S    
O2    Cu2   2.013314 S    
C1    C13   1.448958 S    
Cu1   N2    2.047424 S    
O1    Cu1   2.013312 S    
N1    N2    1.286994 D    
N5    H9    1.030961 S    
O5    Cu1   1.977088 S    
C16   H8    1.108200 S    
C7    N3    1.443451 S    
O4    C2    1.301333 A    
C5    Cl1   1.757524 S    
C18   H16   1.106792 S    
N3    H1    1.028282 S    
C6    Cl2   1.775415 S    
Cu2   N1    2.047424 S    
C5    C7    1.529278 S    
O6    Cu2   1.977090 S    
N4    C16   1.435961 S    
C13   C14   1.355337 D    
C14   N6    1.428138 S    
C4    C9    1.456288 S    
O8    Cu1   1.967830 S    
C17   H10   1.109886 S    
O4    Cu1   1.998756 S    
N6    C18   1.452913 S    
C16   H6    1.110261 S    
C11   Cl3   1.779041 S    
