data_mof_unit_45012.cif
_audit_creation_date              2012-12-10T18:42:28-0500
_audit_creation_method            fapswitch 2.2
_symmetry_space_group_name_H-M    P1
_symmetry_Int_Tables_number       1
_space_group_crystal_system       triclinic
_cell_length_a                    8.611255
_cell_length_b                    10.688483
_cell_length_c                    9.848046
_cell_angle_alpha                 89.934628
_cell_angle_beta                  97.524639
_cell_angle_gamma                 90.520219
_cell_volume                      898.583883772

loop_
_atom_site_label
_atom_site_type_symbol
_atom_type_description
_atom_site_fract_x
_atom_site_fract_y
_atom_site_fract_z
_atom_type_partial_charge
C1    C     C_R   0.500997 0.259965 0.500153 0.848327
C2    C     C_R   0.499007 0.740035 0.499847 0.848346
C3    C     C_R   0.201982 0.496968 0.465907 0.959316
C4    C     C_R   0.798018 0.503026 0.534093 0.959347
C5    C     C_2   0.040931 0.469151 0.456161 -0.078307
C6    C     C_2   0.959069 0.530842 0.543837 -0.078309
C7    C     C_R   0.553899 0.064525 0.391310 -0.199806
C8    C     C_R   0.446108 0.935475 0.608691 -0.199811
C9    C     C_R   0.553090 0.936310 0.391068 -0.192132
C10   C     C_R   0.446917 0.063690 0.608934 -0.192110
C11   C     C_R   0.499199 0.872459 0.499764 -0.003924
C12   C     C_R   0.500807 0.127541 0.500237 -0.003926
C13   C     C_R   0.601121 0.575317 0.083390 -0.078251
C14   C     C_R   0.398879 0.424682 0.916610 -0.078262
C15   C     C_R   0.601048 0.575316 0.939522 -0.072901
C16   C     C_R   0.398952 0.424684 0.060477 -0.072908
H1    H     H_    0.597180 0.114098 0.307622 0.153131
H2    H     H_    0.402827 0.885902 0.692380 0.153130
H3    H     H_    0.595934 0.887409 0.307262 0.149137
H4    H     H_    0.404072 0.112591 0.692740 0.149138
H5    H     H_    0.681971 0.635544 0.147042 0.125702
H6    H     H_    0.318029 0.364455 0.852957 0.125702
H7    H     H_    0.681841 0.635562 0.894195 0.127520
H8    H     H_    0.318159 0.364437 0.105806 0.127540
N1    N     N_R   0.499960 0.499970 0.857200 -0.079906
N2    N     N_R   0.500040 0.500030 0.142800 -0.079906
O1    O     O_R   0.499990 0.316750 0.614620 -0.621084
O2    O     O_R   0.500010 0.683250 0.385380 -0.621091
O3    O     O_R   0.499990 0.316780 0.385290 -0.638373
O4    O     O_R   0.500010 0.683220 0.614710 -0.638363
O5    O     O_R   0.271750 0.499990 0.587840 -0.637406
O6    O     O_R   0.728250 0.500010 0.412160 -0.637425
O7    O     O_R   0.271750 0.500010 0.358510 -0.616294
O8    O     O_R   0.728250 0.499990 0.641490 -0.616287
Zn1   Zn    Zn3+2 0.500000 0.499980 0.653120 0.930227
Zn2   Zn    Zn3+2 0.500000 0.500020 0.346880 0.930226
C17   C     C_3   0.981117 0.354974 0.368123 -0.413600
C18   C     C_3   0.091862 0.243207 0.386733 -0.885915
H9    H     H_    0.197518 0.261266 0.336254 0.272624
H10   H     H_    0.126586 0.223460 0.497283 0.255236
H11   H     H_    0.032181 0.158895 0.338065 0.248401
H12   H     H_    0.867805 0.317699 0.393176 0.226039
H13   H     H_    0.964646 0.382948 0.258517 0.222201
C19   C     C_3   0.018894 0.645023 0.631869 -0.413571
C20   C     C_3   0.908093 0.756759 0.613351 -0.885867
H14   H     H_    0.873236 0.776498 0.502817 0.255222
H15   H     H_    0.802519 0.738671 0.663934 0.272631
H16   H     H_    0.967791 0.841084 0.661972 0.248390
H17   H     H_    0.035474 0.617033 0.741469 0.222212
H18   H     H_    0.132158 0.682334 0.606738 0.225992

loop_
_geom_bond_atom_site_label_1
_geom_bond_atom_site_label_2
_ccdc_geom_bond_type
C19   H17   S    
C17   H13   S    
C18   H10   S    
C17   C18   S    
C5    C17   S    
C4    O8    A    
C13   C15   A    
C2    O4    A    
C14   H6    S    
C1    O3    A    
C13   H5    S    
C16   H8    S    
C6    C19   S    
C20   H14   S    
C3    O5    A    
C9    C11   A    
O3    Zn2   S    
C4    O6    A    
C1    C12   S    
C10   C12   A    
O4    Zn1   S    
N1    Zn1   S    
C8    C11   A    
C5    C6    D    
C2    C11   S    
O6    Zn2   S    
C15   H7    S    
C14   C16   A    
C20   H15   S    
C14   N1    A    
C16   N2    A    
C7    C12   A    
O5    Zn1   S    
C13   N2    A    
C15   N1    A    
C3    O7    A    
C19   H18   S    
C7    C9    A    
O7    Zn2   S    
C18   H9    S    
C19   C20   S    
O2    Zn2   S    
C18   H11   S    
C4    C6    S    
O8    Zn1   S    
C20   H16   S    
N2    Zn2   S    
C17   H12   S    
C1    O1    A    
C2    O2    A    
O1    Zn1   S    
C9    H3    S    
C8    C10   A    
C8    H2    S    
C10   H4    S    
C3    C5    S    
C7    H1    S    
