data_mof_unit_35051.cif
_audit_creation_date              2013-03-05T15:45:35-0500
_audit_creation_method            fapswitch 2.2
_symmetry_space_group_name_H-M    P1
_symmetry_Int_Tables_number       1
_space_group_crystal_system       triclinic
_cell_length_a                    27.638812
_cell_length_b                    10.67454
_cell_length_c                    10.025427
_cell_angle_alpha                 91.324189
_cell_angle_beta                  90.021692
_cell_angle_gamma                 89.684829
_cell_volume                      2956.98307154

loop_
_atom_site_label
_atom_site_type_symbol
_atom_site_description
_atom_site_fract_x
_atom_site_fract_y
_atom_site_fract_z
_atom_type_partial_charge
O1    O     O_R   0.499990 0.319060 0.613040 -0.645857
O2    O     O_R   0.500010 0.319100 0.386900 -0.590081
C1    C     C_R   0.496059 0.263066 0.498394 0.910173
O3    O     O_R   0.428750 0.500000 0.613050 -0.565362
O4    O     O_R   0.428760 0.500040 0.386920 -0.620030
C2    C     C_R   0.405942 0.500613 0.500099 0.872808
Zn1   Zn    Zn3+2 0.499990 0.499970 0.650990 0.994165
Zn2   Zn    Zn3+2 0.500010 0.500030 0.349010 0.976698
O5    O     O_R   0.499990 0.680900 0.613100 -0.594800
O6    O     O_R   0.500010 0.680940 0.386960 -0.633863
O7    O     O_R   0.571240 0.499960 0.613080 -0.608323
O8    O     O_R   0.571250 0.500000 0.386950 -0.596540
C3    C     C_R   0.501068 0.737804 0.500779 0.972923
C4    C     C_R   0.593853 0.498135 0.499771 1.036851
C5    C     C_R   0.176748 0.381401 0.534180 0.585505
O9    O     O_2   0.201347 0.305285 0.616152 -0.560313
N1    N     N_R   0.201122 0.464961 0.458230 -0.325461
C6    C     C_R   0.177770 0.541731 0.371497 0.546517
C7    C     C_R   0.282765 0.414629 0.375107 0.028937
C8    C     C_R   0.332560 0.425680 0.389259 -0.320527
C9    C     C_R   0.322885 0.548083 0.596271 -0.061007
C10   C     C_R   0.272297 0.539330 0.581938 -0.059996
C11   C     C_R   0.252491 0.473261 0.471220 0.269243
C12   C     C_R   0.101502 0.454229 0.439812 -0.053195
C13   C     C_R   0.126374 0.374686 0.526869 -0.029960
C14   C     C_R   0.100385 0.292190 0.605827 -0.127934
C15   C     C_R   0.127400 0.537473 0.360164 -0.009404
C16   C     C_R   0.353040 0.491570 0.497596 -0.070060
H1    H     H_    0.118529 0.232973 0.676738 0.189457
C17   C     C_R   0.646639 0.488813 0.497544 -0.111014
C18   C     C_R   0.974923 0.344995 0.479198 0.019234
C19   C     C_R   0.974496 0.551013 0.372336 -0.043170
C20   C     C_R   0.949248 0.448214 0.427655 0.057647
C21   C     C_R   0.949604 0.232905 0.506398 -0.058788
C22   C     C_R   0.898755 0.236880 0.521067 -0.047755
C23   C     C_R   0.873133 0.348482 0.490570 -0.097421
C24   C     C_R   0.898333 0.449815 0.434644 -0.050138
C25   C     C_R   0.872611 0.554564 0.388726 -0.057464
C26   C     C_R   0.822300 0.557460 0.399498 0.541643
N2    N     N_R   0.798899 0.465400 0.465364 -0.335792
C27   C     C_R   0.822894 0.363396 0.512725 0.489239
C28   C     C_R   0.719033 0.387779 0.411107 -0.213569
C29   C     C_R   0.669002 0.391059 0.421340 -0.064202
C30   C     C_R   0.675231 0.578279 0.568388 -0.094113
C31   C     C_R   0.726188 0.567552 0.563660 -0.021870
C32   C     C_R   0.747514 0.473633 0.481422 0.287744
O10   O     O_2   0.798087 0.279316 0.583790 -0.584727
C33   C     C_R   0.025175 0.357980 0.501275 0.082836
C34   C     C_R   0.050596 0.450755 0.432681 0.090035
C35   C     C_R   0.025427 0.540049 0.357026 0.029087
C36   C     C_R   0.050411 0.284357 0.593671 -0.148074
H2    H     H_    0.736563 0.315630 0.350073 0.140675
H3    H     H_    0.031615 0.221840 0.659116 0.145034
O11   O     O_2   0.203318 0.622040 0.297408 -0.585928
C37   C     C_R   0.102454 0.612711 0.270276 -0.134472
H4    H     H_    0.355847 0.380611 0.315214 0.165779
H5    H     H_    0.121660 0.672686 0.202787 0.180361
C38   C     C_R   0.947848 0.660620 0.338496 -0.046357
C39   C     C_R   0.897361 0.657647 0.340068 -0.120761
O12   O     O_2   0.796824 0.652316 0.346206 -0.574780
C40   C     C_R   0.052115 0.612642 0.267433 -0.231593
H6    H     H_    0.877249 0.740771 0.312991 0.218520
H7    H     H_    0.034474 0.668493 0.192971 0.162594
C41   C     C_2   0.495088 0.930905 0.387288 -0.125968
C42   C     C_2   0.504207 0.870623 0.499846 -0.197657
H8    H     H_    0.488593 0.882528 0.292454 0.162825
H9    H     H_    0.513575 0.920024 0.591620 0.169626
C43   C     C_2   0.497400 0.065103 0.388317 -0.138233
C44   C     C_2   0.481378 0.134976 0.492303 -0.176087
H10   H     H_    0.518293 0.105612 0.308326 0.184026
C45   C     C_2   0.495370 0.599443 0.930985 0.031511
N3    N     N_2   0.500520 0.501330 0.852150 -0.208039
H11   H     H_    0.493061 0.416232 0.893602 0.158946
C46   C     C_2   0.484680 0.591177 0.076985 -0.150737
N4    N     N_2   0.500540 0.501360 0.147810 -0.201100
H12   H     H_    0.467704 0.670741 0.127927 0.166532
H13   H     H_    0.520774 0.432810 0.099724 0.163496
C47   C     C_2   0.342796 0.623915 0.709058 0.408225
H14   H     H_    0.333433 0.722542 0.718926 0.081935
O13   O     O_2   0.366760 0.575116 0.796166 -0.556197
C48   C     C_2   0.264339 0.339753 0.259035 0.444283
H15   H     H_    0.289305 0.307919 0.181662 0.060477
O14   O     O_2   0.221870 0.310405 0.248633 -0.558576
C49   C     C_2   0.970706 0.785327 0.323654 0.379792
H16   H     H_    0.005343 0.805446 0.370067 0.106401
O15   O     O_2   0.950644 0.867980 0.261628 -0.545408
C50   C     C_2   0.652656 0.684237 0.645161 0.349496
H17   H     H_    0.668633 0.717081 0.738371 0.073594
O16   O     O_2   0.617420 0.739556 0.601937 -0.597557
C51   C     C_R   0.757651 0.655083 0.641189 0.086345
C52   C     C_R   0.757800 0.783653 0.613962 -0.116439
C53   C     C_R   0.787738 0.865283 0.686650 -0.117783
C54   C     C_R   0.818066 0.819141 0.785932 -0.056041
C55   C     C_R   0.818407 0.691271 0.812900 -0.140209
C56   C     C_R   0.788291 0.609402 0.740993 -0.165018
H18   H     H_    0.734837 0.820386 0.536346 0.165747
H19   H     H_    0.787398 0.964311 0.665943 0.178247
H20   H     H_    0.841281 0.882444 0.842009 0.179659
H21   H     H_    0.841926 0.655626 0.889764 0.157255
H22   H     H_    0.788731 0.510601 0.763214 0.169357
C57   C     C_R   0.239599 0.595025 0.685086 0.068926
C58   C     C_R   0.237157 0.542593 0.812152 -0.073755
C59   C     C_R   0.205520 0.592738 0.908476 -0.114538
C60   C     C_R   0.176223 0.695497 0.878643 -0.095667
C61   C     C_R   0.178625 0.748466 0.752576 -0.122158
C62   C     C_R   0.210253 0.698643 0.656022 -0.173369
H23   H     H_    0.259430 0.462347 0.835964 0.169426
H24   H     H_    0.203607 0.551706 0.006069 0.182543
H25   H     H_    0.151689 0.734104 0.953203 0.141596
H26   H     H_    0.155967 0.828144 0.729659 0.153208
H27   H     H_    0.211896 0.740675 0.558890 0.175646
C63   C     C_2   0.444483 0.094504 0.590894 0.376470
H28   H     H_    0.439598 0.147915 0.683345 0.071130
O17   O     O_2   0.417486 0.006584 0.567091 -0.555229
C64   C     C_R   0.503540 0.727392 0.885062 0.175219
C65   C     C_R   0.465742 0.815828 0.890649 -0.144455
C66   C     C_R   0.475411 0.942879 0.874044 -0.142180
C67   C     C_R   0.522774 0.982509 0.851589 -0.178866
C68   C     C_R   0.560500 0.894806 0.844673 -0.117035
C69   C     C_R   0.551005 0.767677 0.862337 -0.073533
H29   H     H_    0.429143 0.786824 0.912397 0.159245
H30   H     H_    0.446264 0.010784 0.880828 0.148178
H31   H     H_    0.530192 0.081000 0.839038 0.143438
H32   H     H_    0.597200 0.925555 0.827861 0.157660
H33   H     H_    0.580740 0.701235 0.863148 0.129460
C70   C     C_2   0.642256 0.287567 0.353226 0.403581
H34   H     H_    0.658625 0.237850 0.268839 0.063785
O18   O     O_2   0.603254 0.251927 0.394150 -0.591557
C71   C     C_2   0.872499 0.121094 0.555867 0.454722
H35   H     H_    0.842441 0.088832 0.494690 0.097499
O19   O     O_2   0.883399 0.063401 0.655318 -0.605497
C72   C     C_2   0.974684 0.108624 0.495116 0.413579
H36   H     H_    0.962497 0.029084 0.550840 0.113163
O20   O     O_2   0.008642 0.092777 0.418506 -0.536361

loop_
_geom_bond_atom_site_label_1
_geom_bond_atom_site_label_2
_geom_bond_distance
_ccdc_geom_bond_type
C50   H17   1.085083 S    
C54   C55   1.397564 A    
C7    C8    1.388896 A    
C12   C15   1.407046 A    
C19   C38   1.426590 A    
C61   H26   1.082319 S    
C63   O17   1.221367 D    
C48   H15   1.085814 S    
C51   C56   1.404800 A    
C3    C42   1.421160 S    
C31   C32   1.409940 A    
Zn1   O7    2.005746 S    
C57   C58   1.405000 A    
C10   C57   1.485242 S    
C46   H12   1.085388 S    
O4    C2    1.298239 A    
C41   C43   1.434074 S    
C23   C24   1.416384 A    
C1    C44   1.428319 S    
C49   O15   1.221590 D    
C60   H25   1.082347 S    
O7    C4    1.296459 A    
C15   C37   1.399786 A    
C5    C13   1.396328 A    
C64   C65   1.404438 A    
C57   C62   1.403941 A    
C65   C66   1.397453 A    
C5    N1    1.366605 A    
C21   C22   1.413424 A    
C28   C32   1.390736 A    
C40   H7    1.080526 S    
O5    C3    1.292177 A    
C67   C68   1.398153 A    
C60   C61   1.398212 A    
C52   H18   1.083075 S    
C33   C36   1.410436 A    
C2    C16   1.466022 S    
C22   C23   1.421822 A    
C43   C44   1.341643 D    
C42   H9    1.081918 S    
C9    C47   1.482832 S    
C18   C20   1.414922 A    
C59   H24   1.082599 S    
C30   C50   1.487745 S    
C22   C71   1.485237 S    
C52   C53   1.397537 A    
C8    H4    1.084983 S    
C21   C72   1.495425 S    
C9    C10   1.408878 A    
C17   C30   1.420401 A    
C23   C27   1.413824 A    
C55   C56   1.398096 A    
C4    C17   1.461927 S    
O3    Zn1   2.005250 S    
C29   C70   1.485567 S    
C63   H28   1.084979 S    
C48   O14   1.220342 D    
C53   H19   1.081962 S    
C62   H27   1.082631 S    
C46   N4    1.281455 D    
C12   C13   1.408063 A    
C56   H22   1.082956 S    
O3    C2    1.295946 A    
C65   H29   1.083217 S    
Zn1   N3    2.016480 S    
C47   H14   1.085051 S    
C72   H36   1.082430 S    
C8    C16   1.401214 A    
C38   C39   1.396036 A    
C68   H32   1.082302 S    
Zn2   N4    2.017554 S    
C20   C24   1.408981 A    
O1    C1    1.288023 A    
C41   H8    1.086747 S    
C7    C11   1.409725 A    
C66   H30   1.081826 S    
C24   C25   1.407974 A    
C38   C49   1.487215 S    
C45   C46   1.498032 S    
Zn2   O8    2.005252 S    
N1    C6    1.367804 A    
C27   O10   1.349038 S    
C18   C21   1.421313 A    
C45   C64   1.469994 S    
C58   H23   1.083165 S    
N1    C11   1.428721 S    
C49   H16   1.084645 S    
C31   C51   1.486012 S    
N4    H13   1.029567 S    
C19   C35   1.419974 A    
Zn2   O6    1.959608 S    
N2    C27   1.366227 A    
C9    C16   1.415873 A    
O8    C4    1.292427 A    
C34   C35   1.411898 A    
C18   C33   1.413406 A    
C37   H5    1.083271 S    
C17   C29   1.418081 A    
C28   C29   1.386835 A    
N2    C32   1.431382 S    
C26   N2    1.362841 A    
C30   C31   1.413123 A    
C71   H35   1.085324 S    
C12   C34   1.409432 A    
Zn1   O5    1.976941 S    
C33   C34   1.409546 A    
C39   H6    1.084242 S    
C70   O18   1.219499 D    
O1    Zn1   1.959609 S    
O2    Zn2   1.976942 S    
C6    C15   1.397657 A    
N3    H11   1.029535 S    
O6    C3    1.280441 A    
O4    Zn2   2.005743 S    
C68   C69   1.398879 A    
C61   C62   1.398480 A    
C41   C42   1.335113 D    
C50   O16   1.220692 D    
O2    C1    1.284841 A    
C13   C14   1.399158 A    
C45   N3    1.304600 D    
C7    C48   1.487742 S    
C14   C36   1.389343 A    
C19   C20   1.426717 A    
C51   C52   1.405511 A    
C25   C26   1.394871 A    
C55   H21   1.082393 S    
C70   H34   1.085802 S    
C26   O12   1.350334 S    
C37   C40   1.391609 A    
C53   C54   1.397644 A    
C44   C63   1.492919 S    
C47   O13   1.220452 D    
C67   H31   1.082454 S    
C69   H33   1.082745 S    
C58   C59   1.398302 A    
C6    O11   1.349701 S    
C25   C39   1.396437 A    
C35   C40   1.410778 A    
C14   H1    1.083273 S    
C72   O20   1.221560 D    
C64   C69   1.403133 A    
C59   C60   1.397690 A    
C43   H10   1.087500 S    
C10   C11   1.413065 A    
C36   H3    1.081674 S    
C66   C67   1.397851 A    
C54   H20   1.082271 S    
C5    O9    1.349856 S    
C28   H2    1.084728 S    
C71   O19   1.220750 D    
