data_mof_unit_18952.cif
_audit_creation_date              2013-03-05T15:48:38-0500
_audit_creation_method            fapswitch 2.2
_symmetry_space_group_name_H-M    P1
_symmetry_Int_Tables_number       1
_space_group_crystal_system       triclinic
_cell_length_a                    8.184287
_cell_length_b                    18.844065
_cell_length_c                    19.039827
_cell_angle_alpha                 98.611848
_cell_angle_beta                  94.461913
_cell_angle_gamma                 91.437527
_cell_volume                      2892.50497647

loop_
_atom_site_label
_atom_site_type_symbol
_atom_site_description
_atom_site_fract_x
_atom_site_fract_y
_atom_site_fract_z
_atom_type_partial_charge
P1    P     P_3+3 0.947550 0.663200 0.567530 0.510776
O1    O     O_2   0.118870 0.674530 0.547560 -0.312216
O2    O     O_3   0.870460 0.585330 0.542110 -0.417749
O3    O     O_3   0.354280 0.631750 0.418430 -0.346258
O4    O     O_2   0.238934 0.755628 0.472455 -0.374488
O5    O     O_3   0.968623 0.678293 0.660811 -0.546455
O6    O     O_3   0.298747 0.745436 0.340410 -0.537598
H1    H     H_    0.469245 0.686820 0.283591 0.067143
C1    C     C_3   0.369072 0.770041 0.227039 0.218934
H2    H     H_    0.291737 0.727703 0.191264 0.086257
H3    H     H_    0.288271 0.815790 0.240391 0.132322
P2    P     P_3+3 0.354660 0.445020 0.336980 0.467051
P3    P     P_3+3 0.912829 0.595996 0.288699 0.462886
O7    O     O_2   0.180880 0.466650 0.327890 -0.362721
O8    O     O_3   0.939000 0.596010 0.380670 -0.393628
O9    O     O_2   0.051922 0.552925 0.254109 -0.364196
O10   O     O_3   0.341880 0.351389 0.313349 -0.569620
O11   O     O_3   0.948164 0.683598 0.271804 -0.515641
C2    C     C_3   0.893266 0.731610 0.328089 0.513154
H4    H     H_    0.974141 0.731275 0.377656 0.149368
H5    H     H_    0.765560 0.717365 0.337948 -0.026391
C3    C     C_3   0.898773 0.807207 0.309230 -0.978859
H6    H     H_    0.026826 0.823996 0.302518 0.268798
H7    H     H_    0.822013 0.809067 0.258943 0.285306
C4    C     C_3   0.791320 0.379041 0.311049 0.445427
H8    H     H_    0.670864 0.393881 0.329810 0.088329
H9    H     H_    0.881128 0.424875 0.326495 0.127497
C5    C     C_3   0.774664 0.360556 0.230209 -1.001697
H10   H     H_    0.680209 0.316709 0.213274 0.267564
H11   H     H_    0.738008 0.407992 0.205751 0.228000
H12   H     H_    0.893881 0.342946 0.210825 0.269905
Ba1   Ba    Ba6+2 0.152460 0.535140 0.468980 1.563746
C6    C     C_3   0.014910 0.615882 0.687067 0.455568
H13   H     H_    0.130406 0.597674 0.665610 0.090437
H14   H     H_    0.918790 0.572667 0.672456 0.129790
C7    C     C_3   0.039303 0.633150 0.767941 -1.022203
H15   H     H_    0.143693 0.672539 0.783904 0.267082
H16   H     H_    0.065029 0.583990 0.791481 0.235995
H17   H     H_    0.926436 0.656200 0.789365 0.264421
C8    C     C_3   0.298181 0.319522 0.371357 0.449313
H18   H     H_    0.175262 0.336463 0.385177 0.089075
H19   H     H_    0.388023 0.334187 0.418328 0.137880
C9    C     C_3   0.294365 0.238272 0.350519 -0.994596
H20   H     H_    0.200023 0.221475 0.305543 0.267191
H21   H     H_    0.264580 0.211594 0.396267 0.217917
H22   H     H_    0.416205 0.220712 0.334224 0.265571
P4    P     P_3+3 0.862750 0.336790 0.432410 0.454773
O12   O     O_2   0.691430 0.325420 0.452420 -0.370320
O13   O     O_3   0.939830 0.414660 0.457830 -0.404846
O14   O     O_3   0.456020 0.368240 0.581510 -0.377886
O15   O     O_3   0.843952 0.318460 0.339220 -0.575187
P5    P     P_3+3 0.892713 0.401508 0.711299 0.443052
O16   O     O_3   0.374170 0.535780 0.585810 -0.394672
O17   O     O_3   0.871300 0.403980 0.619270 -0.389558
O18   O     O_2   0.759039 0.448024 0.746008 -0.384918
O19   O     O_3   0.844590 0.314984 0.728024 -0.522395
Ba2   Ba    Ba6+2 0.657710 0.464850 0.530960 1.540826
P6    P     P_3+3 0.370524 0.724977 0.423784 0.463220
C10   C     C_3   0.428251 0.742823 0.296047 0.153602
H23   H     H_    0.532560 0.778571 0.321429 0.089106
O20   O     O_3   0.436130 0.464210 0.414140 -0.409124
C11   C     C_3   0.520715 0.682987 0.649652 0.438930
H24   H     H_    0.630107 0.656209 0.628810 0.088294
H25   H     H_    0.424653 0.683356 0.605184 0.133968
C12   C     C_3   0.572395 0.759977 0.680927 -0.903086
H26   H     H_    0.672484 0.760438 0.723895 0.238404
H27   H     H_    0.617415 0.788597 0.638960 0.235845
H28   H     H_    0.466579 0.788374 0.703480 0.287751
P7    P     P_3+3 0.447729 0.556199 0.675456 0.432096
O21   O     O_2   0.629420 0.533310 0.672080 -0.364077
O22   O     O_3   0.458401 0.649089 0.703277 -0.575419
H29   H     H_    0.851586 0.845450 0.352327 0.224462
C13   C     C_3   0.899900 0.264794 0.673735 0.511968
H30   H     H_    0.827476 0.267064 0.622373 0.148712
H31   H     H_    0.031749 0.274576 0.667531 -0.003260
C14   C     C_3   0.877610 0.189861 0.693010 -0.963259
H32   H     H_    0.907758 0.148996 0.648235 0.232013
H33   H     H_    0.959685 0.184347 0.740997 0.246875
H34   H     H_    0.748636 0.179787 0.704120 0.289872
P8    P     P_3+3 0.435701 0.276098 0.580983 0.430153
C15   C     C_3   0.430032 0.307809 0.716528 0.494496
H35   H     H_    0.295631 0.309226 0.703851 0.002843
O23   O     O_2   0.561423 0.240915 0.531152 -0.385542
O24   O     O_3   0.502771 0.259035 0.666094 -0.535509
H36   H     H_    0.486238 0.362426 0.718885 0.145451
H37   H     H_    0.402052 0.323281 0.829821 0.222699
C16   C     C_3   0.458811 0.284923 0.789585 -0.977089
H38   H     H_    0.592278 0.284116 0.805027 0.294127
H39   H     H_    0.402798 0.230463 0.788689 0.247733
C17   C     C_R   0.999775 0.954200 0.536324 -0.091262
C18   C     C_R   0.099582 0.903159 0.565496 -0.269385
C19   C     C_R   0.173766 0.060079 0.594079 -0.256907
C20   C     C_R   0.047367 0.028592 0.543486 0.076861
C21   C     C_R   0.237163 0.128976 0.593308 -0.183994
C22   C     C_R   0.163366 0.173098 0.548230 -0.014116
C23   C     C_R   0.018513 0.147313 0.505405 -0.018864
C24   C     C_R   0.961680 0.074173 0.501847 0.048366
C25   C     C_R   0.224008 0.243821 0.547788 0.157826
C26   C     C_R   0.125414 0.291767 0.516257 -0.521036
C27   C     C_R   0.979745 0.268632 0.475326 0.249429
C28   C     C_R   0.931243 0.194524 0.465998 -0.018865
C29   C     C_R   0.845400 0.930034 0.500076 0.011033
C30   C     C_R   0.786951 0.857602 0.500637 -0.039247
C31   C     C_R   0.882189 0.809501 0.536886 -0.226574
C32   C     C_R   0.028312 0.837511 0.577010 0.676552
H40   H     H_    0.167401 0.347193 0.520047 0.181955
H41   H     H_    0.339464 0.148083 0.631061 0.183623
C33   C     C_R   0.801484 0.165592 0.417260 -0.117776
C34   C     C_R   0.751451 0.093548 0.411110 -0.163556
C35   C     C_R   0.819392 0.047648 0.457410 0.074199
C36   C     C_R   0.751976 0.977007 0.461195 -0.117845
C37   C     C_R   0.592345 0.951828 0.430310 0.599747
C38   C     C_R   0.631061 0.833803 0.466338 -0.020788
C39   C     C_R   0.534942 0.882373 0.434478 -0.344352
C40   C     C_R   0.576079 0.761499 0.463600 0.215664
C41   C     C_R   0.678392 0.713298 0.492594 -0.531828
C42   C     C_R   0.829136 0.735171 0.529755 0.277761
H42   H     H_    0.739624 0.197675 0.381598 0.166720
H43   H     H_    0.413397 0.866659 0.410017 0.188016
H44   H     H_    0.637077 0.657714 0.488319 0.175428
H45   H     H_    0.224978 0.032170 0.635737 0.135845
H46   H     H_    0.663391 0.075407 0.366974 0.201309
C43   C     C_R   0.609256 0.531261 0.300780 -0.493631
C44   C     C_R   0.463972 0.492388 0.275706 0.348134
C45   C     C_R   0.412667 0.483036 0.202809 -0.243008
C46   C     C_R   0.508862 0.511091 0.154256 0.021812
C47   C     C_R   0.659767 0.547259 0.180404 -0.314913
C48   C     C_R   0.710112 0.556460 0.253329 0.235507
C49   C     C_R   0.484646 0.556316 0.036320 -0.176909
C50   C     C_R   0.430774 0.548896 0.964107 -0.167059
C51   C     C_R   0.347227 0.485640 0.929287 0.173537
C52   C     C_R   0.316696 0.430448 0.969338 -0.174573
C53   C     C_R   0.369054 0.438347 0.042108 -0.165265
C54   C     C_R   0.453792 0.501562 0.076630 0.176818
C55   C     C_R   0.144927 0.441851 0.822975 -0.290181
C56   C     C_R   0.096497 0.436818 0.749920 0.257196
C57   C     C_R   0.342261 0.503650 0.732916 0.301717
C58   C     C_R   0.392846 0.508455 0.805283 -0.249218
C59   C     C_R   0.295261 0.477394 0.851457 0.014804
C60   C     C_R   0.198681 0.465195 0.705093 -0.518456
H47   H     H_    0.506887 0.537415 0.825300 0.149198
H48   H     H_    0.453442 0.593416 0.935823 0.119815
H49   H     H_    0.549153 0.605553 0.060711 0.103435
H50   H     H_    0.298457 0.453516 0.184272 0.145705
H51   H     H_    0.254913 0.380570 0.944205 0.121750
H52   H     H_    0.345879 0.394270 0.070918 0.121992
H53   H     H_    0.063217 0.420676 0.857483 0.152080
H54   H     H_    0.740354 0.566368 0.144240 0.150007
H55   H     H_    0.160100 0.462306 0.649034 0.168274
H56   H     H_    0.649397 0.537566 0.356936 0.168103
O25   O     O_3   0.502760 0.796582 0.194507 -0.597387
C61   C     C_3   0.563446 0.741486 0.146201 -0.226125
H57   H     H_    0.470683 0.723758 0.100676 0.140751
H58   H     H_    0.602180 0.695505 0.173140 0.131908
H59   H     H_    0.673172 0.762867 0.124390 0.179556
O26   O     O_3   0.106132 0.800355 0.626386 -0.549337
C62   C     C_3   0.076180 0.834049 0.695307 -0.111926
H60   H     H_    0.942396 0.834662 0.702352 0.106293
H61   H     H_    0.131280 0.889551 0.707131 0.109527
H62   H     H_    0.134455 0.802912 0.734893 0.171816
C63   C     C_2   0.282682 0.911769 0.573857 0.590221
H63   H     H_    0.344938 0.952335 0.550267 -0.016966
O27   O     O_2   0.367760 0.872304 0.605175 -0.573732
O28   O     O_3   0.492306 0.992100 0.391177 -0.634199
C64   C     C_3   0.375547 0.025506 0.434313 -0.232553
H64   H     H_    0.431869 0.051726 0.487307 0.150300
H65   H     H_    0.275792 0.986234 0.439846 0.145306
H66   H     H_    0.319171 0.068328 0.407475 0.182422

loop_
_geom_bond_atom_site_label_1
_geom_bond_atom_site_label_2
_geom_bond_distance
_ccdc_geom_bond_type
C16   H38   1.109987 S    
C64   H64   1.114265 S    
P2    O20   1.552429 S    
C20   C24   1.416242 A    
C13   H30   1.110451 S    
C18   C32   1.408389 A    
C22   C23   1.417201 A    
C14   H34   1.109813 S    
P8    O24   1.748482 S    
O16   P7    1.748033 S    
C37   C39   1.395009 A    
C63   H63   1.079155 S    
C17   C18   1.424662 A    
C22   C25   1.411844 A    
O12   Ba2   2.853010 S    
P4    O13   1.574420 S    
C33   C34   1.393372 A    
C4    C5    1.520979 S    
C55   C59   1.415121 A    
C62   H60   1.113555 S    
P3    O11   1.749777 S    
C52   H51   1.082546 S    
C19   C20   1.411775 A    
C5    H10   1.110693 S    
C30   C38   1.417511 A    
C14   H33   1.110504 S    
Ba1   O20   2.895112 S    
C38   C39   1.397389 A    
H1    C10   1.112523 S    
C34   H46   1.072294 S    
C45   H50   1.082363 S    
C40   C41   1.395466 A    
C6    C7    1.521725 S    
O13   Ba2   2.894807 S    
C41   C42   1.394251 A    
O1    Ba1   2.852501 S    
P1    O1    1.499457 D    
C3    H29   1.108145 S    
P7    O22   1.749197 S    
C35   C36   1.442116 A    
C17   C29   1.421738 A    
C11   H25   1.110614 S    
C36   C37   1.429539 A    
P3    C48   1.837132 S    
C8    C9    1.521969 S    
C1    O25   1.414822 S    
C2    H4    1.110677 S    
C52   C53   1.402887 A    
C12   H27   1.109046 S    
P2    O10   1.752743 S    
C7    H15   1.110619 S    
O25   C61   1.407667 S    
Ba2   O21   2.830371 S    
C55   C56   1.404867 A    
C1    H2    1.116203 S    
O6    P6    1.750196 S    
C39   H43   1.079799 S    
P5    O18   1.545665 D    
C56   C60   1.392529 A    
C47   H54   1.082485 S    
P8    C25   1.852778 S    
C28   C33   1.397251 A    
C8    H19   1.109197 S    
C45   C46   1.411608 A    
C43   H56   1.081943 S    
C10   H23   1.107068 S    
C62   H61   1.112623 S    
C23   C28   1.418794 A    
P2    Ba1   3.383628 S    
C13   H31   1.108479 S    
C29   C36   1.434687 A    
P7    O21   1.562089 D    
Ba1   Ba2   4.526076 S    
P8    O23   1.547963 D    
O6    C10   1.403111 S    
C31   C32   1.413446 A    
C63   O27   1.219687 D    
P5    O17   1.755052 S    
C15   H35   1.109510 S    
C7    H17   1.110877 S    
P7    C57   1.830565 S    
C37   O28   1.380950 S    
C57   C60   1.389990 A    
C21   H41   1.077526 S    
P1    O5    1.750322 S    
P4    O12   1.499840 D    
C33   H42   1.080590 S    
C43   C44   1.393406 A    
C2    C3    1.520793 S    
C14   H32   1.107391 S    
O7    Ba1   2.830224 S    
O16   Ba2   2.894283 S    
H37   C16   1.109748 S    
O11   C2    1.404935 S    
P4    O15   1.749994 S    
C4    H8    1.102905 S    
P1    Ba1   3.390172 S    
P4    C27   1.867727 S    
C41   H44   1.081896 S    
O14   P8    1.738572 S    
P1    O2    1.574448 S    
O10   C8    1.399168 S    
O26   C62   1.411933 S    
C9    H20   1.110563 S    
C4    O15   1.395920 S    
C11   H24   1.109778 S    
P4    Ba2   3.390765 S    
C1    H3    1.110980 S    
C26   C27   1.395117 A    
P2    C44   1.841847 S    
C61   H59   1.109609 S    
C12   H28   1.110419 S    
C23   C24   1.433699 A    
C19   C21   1.388558 A    
C6    H13   1.101136 S    
O2    Ba1   2.893977 S    
P1    C42   1.882952 S    
C9    H21   1.108545 S    
O3    Ba1   2.755025 S    
O4    P6    1.542216 D    
C8    H18   1.102414 S    
P2    O7    1.493601 D    
C12   H26   1.110692 S    
C62   H62   1.109220 S    
C55   H53   1.082412 S    
P3    O8    1.747497 S    
P6    C40   1.861667 S    
P5    C56   1.836315 S    
C13   C14   1.521364 S    
C3    H7    1.109147 S    
C4    H9    1.109569 S    
C51   C52   1.407047 A    
O2    Ba2   2.798406 S    
Ba1   O16   2.757461 S    
C15   O24   1.404756 S    
C17   C20   1.429181 A    
C49   C50   1.396198 A    
C26   H40   1.081538 S    
O28   C64   1.407628 S    
O19   C13   1.403349 S    
C11   C12   1.519756 S    
C2    H5    1.109610 S    
O14   Ba2   2.754375 S    
C5    H12   1.110828 S    
C61   H58   1.111712 S    
C58   H47   1.082140 S    
O8    Ba1   2.723233 S    
Ba2   O20   2.756687 S    
C49   H49   1.078649 S    
C64   H66   1.109336 S    
C57   C58   1.396459 A    
C31   C42   1.439527 A    
O5    C6    1.394817 S    
C5    H11   1.105572 S    
C50   C51   1.407069 A    
C19   H45   1.079641 S    
C24   C35   1.418669 A    
C15   C16   1.519894 S    
C43   C48   1.395669 A    
C53   C54   1.408963 A    
C46   C47   1.413584 A    
C7    H16   1.105812 S    
C27   C28   1.423459 A    
C6    H14   1.106958 S    
C11   O22   1.403779 S    
C29   C30   1.436771 A    
C50   H48   1.082261 S    
C9    H22   1.110881 S    
Ba1   O13   2.797822 S    
C51   C59   1.493521 S    
C58   C59   1.411832 A    
C49   C54   1.404130 A    
P5    O19   1.748640 S    
C32   O26   1.380594 S    
C61   H57   1.112422 S    
C46   C54   1.494198 S    
C64   H65   1.109835 S    
C25   C26   1.396967 A    
P3    O9    1.546396 D    
O3    P6    1.745526 S    
C30   C31   1.429881 A    
C16   H39   1.110665 S    
C3    H6    1.109542 S    
C18   C63   1.496749 S    
C53   H52   1.082356 S    
C1    C10   1.529464 S    
C34   C35   1.417978 A    
C60   H55   1.082207 S    
C21   C22   1.396779 A    
C15   H36   1.109983 S    
C47   C48   1.401078 A    
C44   C45   1.402182 A    
C38   C40   1.416292 A    
O17   Ba2   2.723872 S    
