data_mof_unit_6809.cif
_audit_creation_date              2012-10-26T17:11:27-0400
_audit_creation_method            fapswitch 2.2
_symmetry_space_group_name_H-M    P1
_symmetry_Int_Tables_number       1
_space_group_crystal_system       triclinic
_cell_length_a                    27.988207
_cell_length_b                    18.873286
_cell_length_c                    16.859204
_cell_angle_alpha                 89.999984
_cell_angle_beta                  62.675292
_cell_angle_gamma                 90.000044
_cell_volume                      7911.84335104

loop_
_atom_site_label
_atom_site_type_symbol
_atom_type_description
_atom_site_fract_x
_atom_site_fract_y
_atom_site_fract_z
_atom_type_partial_charge
C1    C     C_R   0.296312 0.731290 0.328809 0.841837
C2    C     C_R   0.703636 0.268503 0.671313 0.829282
C3    C     C_R   0.703688 0.731290 0.671191 0.841819
C4    C     C_R   0.296364 0.268504 0.328687 0.829265
C5    C     C_R   0.796313 0.231292 0.328809 0.841816
C6    C     C_R   0.203636 0.768504 0.671313 0.829277
C7    C     C_R   0.203688 0.231290 0.671190 0.841837
C8    C     C_R   0.796364 0.768503 0.328687 0.829281
C9    C     C_R   0.396506 0.000048 0.510347 -0.025142
C10   C     C_R   0.603495 0.000048 0.489650 -0.025141
C11   C     C_R   0.896504 0.500048 0.510350 -0.025140
C12   C     C_R   0.103494 0.500048 0.489654 -0.025141
C13   C     C_R   0.609302 0.873936 0.462631 0.131915
C14   C     C_R   0.390633 0.126153 0.537545 0.128792
C15   C     C_R   0.390700 0.873935 0.537364 0.131918
C16   C     C_R   0.609367 0.126154 0.462454 0.128786
C17   C     C_R   0.109300 0.373936 0.462636 0.131929
C18   C     C_R   0.890632 0.626154 0.537546 0.128785
C19   C     C_R   0.890698 0.373936 0.537369 0.131912
C20   C     C_R   0.109367 0.626154 0.462456 0.128782
C21   C     C_R   0.219834 0.762875 0.953862 -0.042323
C22   C     C_R   0.775869 0.230023 0.050370 -0.140948
C23   C     C_R   0.780171 0.762863 0.046134 -0.042316
C24   C     C_R   0.224111 0.230068 0.949647 -0.140964
C25   C     C_R   0.719826 0.262857 0.953869 -0.042314
C26   C     C_R   0.275881 0.730046 0.050358 -0.140944
C27   C     C_R   0.280154 0.262893 0.046150 -0.042321
C28   C     C_R   0.724126 0.730034 0.949635 -0.140945
C29   C     C_R   0.267248 0.799760 0.935593 0.336977
C30   C     C_R   0.728111 0.192261 0.067482 0.276282
C31   C     C_R   0.732754 0.799742 0.064408 0.336965
C32   C     C_R   0.271826 0.192235 0.932623 0.276338
C33   C     C_R   0.767250 0.299721 0.935581 0.336975
C34   C     C_R   0.228134 0.692266 0.067451 0.276263
C35   C     C_R   0.232776 0.299836 0.064343 0.336974
C36   C     C_R   0.771876 0.692259 0.932537 0.276261
C37   C     C_R   0.295486 0.784105 0.984339 0.287336
C38   C     C_R   0.699924 0.209747 0.019124 0.349396
C39   C     C_R   0.704517 0.784088 0.015661 0.287332
C40   C     C_R   0.300010 0.209708 0.980991 0.349365
C41   C     C_R   0.795487 0.284063 0.984329 0.287318
C42   C     C_R   0.199945 0.709749 0.019096 0.349398
C43   C     C_R   0.204537 0.284179 0.015599 0.287288
C44   C     C_R   0.800065 0.709743 0.980893 0.349401
C45   C     C_R   0.147427 0.830930 0.943028 0.041485
C46   C     C_R   0.848977 0.163222 0.060877 0.050552
C47   C     C_R   0.852578 0.830920 0.056967 0.041472
C48   C     C_R   0.150988 0.163285 0.939167 0.050638
C49   C     C_R   0.647421 0.330919 0.943033 0.041473
C50   C     C_R   0.348996 0.663257 0.060852 0.050531
C51   C     C_R   0.352562 0.330947 0.056983 0.041454
C52   C     C_R   0.651011 0.663245 0.939140 0.050551
C53   C     C_R   0.117599 0.849875 0.896829 -0.158799
C54   C     C_R   0.880963 0.147879 0.104490 -0.155181
C55   C     C_R   0.882403 0.849871 0.103169 -0.158798
C56   C     C_R   0.119022 0.147904 0.895527 -0.155213
C57   C     C_R   0.617596 0.349871 0.896831 -0.158801
C58   C     C_R   0.380971 0.647891 0.104481 -0.155186
C59   C     C_R   0.382396 0.349882 0.103175 -0.158788
C60   C     C_R   0.619031 0.647888 0.895517 -0.155185
C61   C     C_R   0.131283 0.818953 0.813055 0.318149
C62   C     C_R   0.868412 0.180662 0.186791 0.296973
C63   C     C_R   0.868718 0.818952 0.186945 0.318146
C64   C     C_R   0.131584 0.180666 0.813210 0.296956
C65   C     C_R   0.631282 0.318952 0.813054 0.318144
C66   C     C_R   0.368412 0.680660 0.186793 0.296947
C67   C     C_R   0.368716 0.318953 0.186945 0.318161
C68   C     C_R   0.631586 0.680664 0.813210 0.296967
C69   C     C_R   0.179227 0.779270 0.769309 -0.237250
C70   C     C_R   0.820132 0.219356 0.231296 -0.177501
C71   C     C_R   0.820775 0.779267 0.230691 -0.237254
C72   C     C_R   0.179865 0.219360 0.768706 -0.177482
C73   C     C_R   0.679225 0.279267 0.769309 -0.237255
C74   C     C_R   0.320133 0.719356 0.231295 -0.177501
C75   C     C_R   0.320771 0.279272 0.230692 -0.237254
C76   C     C_R   0.679868 0.719355 0.768705 -0.177507
C77   C     C_R   0.205752 0.756105 0.819158 0.082991
C78   C     C_R   0.791798 0.239811 0.183846 0.043765
C79   C     C_R   0.794252 0.756098 0.180840 0.082994
C80   C     C_R   0.208195 0.239824 0.816160 0.043663
C81   C     C_R   0.705747 0.256096 0.819161 0.082998
C82   C     C_R   0.291802 0.739819 0.183842 0.043792
C83   C     C_R   0.294243 0.256113 0.180846 0.082980
C84   C     C_R   0.708202 0.739812 0.816155 0.043777
C85   C     C_R   0.199457 0.631257 0.516690 0.830030
C86   C     C_R   0.800552 0.368754 0.483290 0.834844
C87   C     C_R   0.800543 0.631257 0.483311 0.830031
C88   C     C_R   0.199448 0.368754 0.516711 0.834837
C89   C     C_R   0.699457 0.131257 0.516689 0.830029
C90   C     C_R   0.300552 0.868754 0.483289 0.834841
C91   C     C_R   0.300543 0.131257 0.483310 0.830033
C92   C     C_R   0.699448 0.868754 0.516710 0.834843
C93   C     C_R   0.189411 0.782198 0.905119 0.266914
C94   C     C_R   0.806510 0.211320 0.099135 0.041237
C95   C     C_R   0.810594 0.782188 0.094877 0.266912
C96   C     C_R   0.193466 0.211365 0.900891 0.041243
C97   C     C_R   0.689404 0.282185 0.905125 0.266907
C98   C     C_R   0.306523 0.711346 0.099120 0.041225
C99   C     C_R   0.310579 0.282213 0.094890 0.266945
C100  C     C_R   0.693483 0.711334 0.900874 0.041230
C101  C     C_R   0.926381 0.902877 0.066398 0.846722
C102  C     C_R   0.074065 0.096458 0.933209 0.846260
C103  C     C_R   0.073620 0.902879 0.933601 0.846750
C104  C     C_R   0.925930 0.096449 0.066797 0.846250
C105  C     C_R   0.426378 0.402881 0.066400 0.846738
C106  C     C_R   0.574068 0.596452 0.933205 0.846259
C107  C     C_R   0.573619 0.402877 0.933601 0.846734
C108  C     C_R   0.425933 0.596453 0.066794 0.846252
C109  C     C_R   0.054626 0.628328 0.481927 0.043724
C110  C     C_R   0.945415 0.371785 0.517940 0.040761
C111  C     C_R   0.945373 0.628328 0.518075 0.043726
C112  C     C_R   0.054583 0.371785 0.482066 0.040770
C113  C     C_R   0.554626 0.128328 0.481926 0.043728
C114  C     C_R   0.445417 0.871785 0.517935 0.040761
C115  C     C_R   0.445374 0.128327 0.518074 0.043723
C116  C     C_R   0.554585 0.871785 0.482060 0.040762
C117  C     C_R   0.027360 0.692477 0.488870 -0.188292
C118  C     C_R   0.972658 0.307633 0.511050 -0.186616
C119  C     C_R   0.972639 0.692477 0.511131 -0.188294
C120  C     C_R   0.027339 0.307633 0.488957 -0.186614
C121  C     C_R   0.527361 0.192477 0.488869 -0.188293
C122  C     C_R   0.472661 0.807633 0.511043 -0.186616
C123  C     C_R   0.472639 0.192477 0.511131 -0.188299
C124  C     C_R   0.527341 0.807633 0.488950 -0.186615
C125  C     C_R   0.973381 0.564305 0.505830 0.028293
C126  C     C_R   0.026605 0.435816 0.494215 0.027829
C127  C     C_R   0.026618 0.564305 0.494174 0.028294
C128  C     C_R   0.973393 0.435815 0.505791 0.027830
C129  C     C_R   0.473382 0.064305 0.505827 0.028290
C130  C     C_R   0.526606 0.935816 0.494210 0.027830
C131  C     C_R   0.526619 0.064305 0.494171 0.028294
C132  C     C_R   0.473395 0.935815 0.505786 0.027830
C133  C     C_R   0.447245 0.000058 0.509473 -0.041000
C134  C     C_R   0.552756 0.000058 0.490524 -0.040997
C135  C     C_R   0.947244 0.500058 0.509477 -0.040997
C136  C     C_R   0.052755 0.500058 0.490528 -0.040997
C137  C     C_R   0.370596 0.935322 0.513068 0.026465
C138  C     C_R   0.629439 0.064755 0.486839 0.024094
C139  C     C_R   0.629405 0.935322 0.486929 0.026463
C140  C     C_R   0.370561 0.064754 0.513159 0.024092
C141  C     C_R   0.870594 0.435322 0.513071 0.026464
C142  C     C_R   0.129438 0.564755 0.486841 0.024097
C143  C     C_R   0.129404 0.435322 0.486932 0.026459
C144  C     C_R   0.870561 0.564755 0.513161 0.024095
C145  C     C_R   0.327735 0.935235 0.488436 -0.130658
C146  C     C_R   0.672283 0.064804 0.511516 -0.130057
C147  C     C_R   0.672265 0.935235 0.511563 -0.130660
C148  C     C_R   0.327717 0.064804 0.488483 -0.130054
C149  C     C_R   0.827735 0.435235 0.488437 -0.130660
C150  C     C_R   0.172283 0.564804 0.511517 -0.130054
C151  C     C_R   0.172265 0.435235 0.511565 -0.130661
C152  C     C_R   0.827716 0.564804 0.488484 -0.130056
C153  C     C_R   0.313023 0.000020 0.463328 0.072558
C154  C     C_R   0.686977 0.000020 0.536671 0.072557
C155  C     C_R   0.813023 0.500020 0.463329 0.072557
C156  C     C_R   0.186977 0.500020 0.536672 0.072558
Cu1   Cu    Cu3+1 0.209920 0.785290 0.495070 0.987580
Cu2   Cu    Cu3+1 0.790080 0.214710 0.504930 0.963914
Cu3   Cu    Cu3+1 0.790080 0.785290 0.504930 0.987578
Cu4   Cu    Cu3+1 0.209920 0.214710 0.495070 0.963916
Cu5   Cu    Cu3+1 0.709920 0.285290 0.495070 0.987576
Cu6   Cu    Cu3+1 0.290080 0.714710 0.504930 0.963920
Cu7   Cu    Cu3+1 0.290080 0.285290 0.504930 0.987580
Cu8   Cu    Cu3+1 0.709920 0.714710 0.495070 0.963913
Cu9   Cu    Cu3+1 0.495240 0.500000 0.924150 1.004998
Cu10  Cu    Cu3+1 0.504760 0.500000 0.075850 1.005000
Cu11  Cu    Cu3+1 0.995240 0.000000 0.924150 1.005006
Cu12  Cu    Cu3+1 0.004760 0.000000 0.075850 1.004996
H1    H     H_    0.547150 0.757130 0.481810 0.137384
H2    H     H_    0.452813 0.242976 0.518335 0.137294
H3    H     H_    0.452852 0.757130 0.518181 0.137384
H4    H     H_    0.547187 0.242976 0.481666 0.137294
H5    H     H_    0.047148 0.257130 0.481819 0.137384
H6    H     H_    0.952813 0.742976 0.518334 0.137295
H7    H     H_    0.952850 0.257130 0.518189 0.137384
H8    H     H_    0.047186 0.742976 0.481666 0.137294
O1    O     O_R   0.255040 0.869590 0.478480 -0.557860
O2    O     O_R   0.744960 0.130410 0.521520 -0.561365
O3    O     O_R   0.744960 0.869590 0.521520 -0.557859
O4    O     O_R   0.255040 0.130410 0.478480 -0.561362
O5    O     O_R   0.755040 0.369590 0.478480 -0.557859
O6    O     O_R   0.244960 0.630410 0.521520 -0.561363
O7    O     O_R   0.244960 0.369590 0.521520 -0.557860
O8    O     O_R   0.755040 0.630410 0.478480 -0.561365
O9    O     O_R   0.182050 0.796550 0.624440 -0.554909
O10   O     O_R   0.817950 0.203450 0.375560 -0.568300
O11   O     O_R   0.817950 0.796550 0.375560 -0.554909
O12   O     O_R   0.182050 0.203450 0.624440 -0.568300
O13   O     O_R   0.682050 0.296550 0.624440 -0.554908
O14   O     O_R   0.317950 0.703450 0.375560 -0.568288
O15   O     O_R   0.317950 0.296550 0.375560 -0.554909
O16   O     O_R   0.682050 0.703450 0.624440 -0.568303
O17   O     O_R   0.250530 0.763330 0.367210 -0.548153
O18   O     O_R   0.749470 0.236670 0.632790 -0.601480
O19   O     O_R   0.749470 0.763330 0.632790 -0.548146
O20   O     O_R   0.250530 0.236670 0.367210 -0.601482
O21   O     O_R   0.750530 0.263330 0.367210 -0.548150
O22   O     O_R   0.249470 0.736670 0.632790 -0.601481
O23   O     O_R   0.249470 0.263330 0.632790 -0.548142
O24   O     O_R   0.750530 0.736670 0.367210 -0.601481
O25   O     O_R   0.177260 0.690030 0.513710 -0.587948
O26   O     O_R   0.822740 0.309970 0.486290 -0.586752
O27   O     O_R   0.822740 0.690030 0.486290 -0.587948
O28   O     O_R   0.177260 0.309970 0.513710 -0.586751
O29   O     O_R   0.677260 0.190030 0.513710 -0.587948
O30   O     O_R   0.322740 0.809970 0.486290 -0.586751
O31   O     O_R   0.322740 0.190030 0.486290 -0.587946
O32   O     O_R   0.677260 0.809970 0.513710 -0.586752
O33   O     O_R   0.051640 0.926880 0.885090 -0.513130
O34   O     O_R   0.948360 0.073120 0.114910 -0.511560
O35   O     O_R   0.948360 0.926880 0.114910 -0.513134
O36   O     O_R   0.051640 0.073120 0.885090 -0.511541
O37   O     O_R   0.551640 0.426880 0.885090 -0.513131
O38   O     O_R   0.448360 0.573120 0.114910 -0.511552
O39   O     O_R   0.448360 0.426880 0.114910 -0.513133
O40   O     O_R   0.551640 0.573120 0.885090 -0.511553
O41   O     O_R   0.940620 0.926560 0.986760 -0.626053
O42   O     O_R   0.059380 0.073440 0.013240 -0.625682
O43   O     O_R   0.059380 0.926560 0.013240 -0.626044
O44   O     O_R   0.940620 0.073440 0.986760 -0.625672
O45   O     O_R   0.440620 0.426560 0.986760 -0.626046
O46   O     O_R   0.559380 0.573440 0.013240 -0.625675
O47   O     O_R   0.559380 0.426560 0.013240 -0.626048
O48   O     O_R   0.440620 0.573440 0.986760 -0.625674
N1    N     N_3   0.286027 0.000027 0.407891 -0.510976
H9    H     H_    0.300442 0.042532 0.363317 0.202759
H10   H     H_    0.300411 0.957498 0.363351 0.207772
N2    N     N_3   0.713972 0.000027 0.592109 -0.510979
H11   H     H_    0.699558 0.042532 0.636683 0.202754
H12   H     H_    0.699589 0.957498 0.636649 0.207770
N3    N     N_3   0.786027 0.500027 0.407891 -0.510978
H13   H     H_    0.800411 0.457498 0.363351 0.207772
H14   H     H_    0.800442 0.542532 0.363317 0.202754
N4    N     N_3   0.213973 0.500027 0.592109 -0.510978
H15   H     H_    0.199589 0.457498 0.636648 0.207771
H16   H     H_    0.199558 0.542532 0.636683 0.202755
N5    N     N_3   0.646213 0.825481 0.397515 -0.543255
H17   H     H_    0.642940 0.831378 0.338520 0.231189
H18   H     H_    0.635522 0.773415 0.419499 0.222011
N6    N     N_3   0.353680 0.174593 0.602692 -0.543673
H19   H     H_    0.364360 0.226683 0.580813 0.230187
H20   H     H_    0.356899 0.168639 0.661726 0.227292
N7    N     N_3   0.353789 0.825480 0.602481 -0.543258
H21   H     H_    0.357063 0.831379 0.661477 0.231187
H22   H     H_    0.364480 0.773414 0.580497 0.222009
N8    N     N_3   0.646319 0.174594 0.397308 -0.543673
H23   H     H_    0.635640 0.226684 0.419188 0.230177
H24   H     H_    0.643100 0.168642 0.338275 0.227381
N9    N     N_3   0.146211 0.325482 0.397518 -0.543279
H25   H     H_    0.142938 0.331381 0.338523 0.231178
H26   H     H_    0.135520 0.273415 0.419500 0.222007
N10   N     N_3   0.853680 0.674594 0.602692 -0.543666
H27   H     H_    0.864359 0.726684 0.580812 0.230178
H28   H     H_    0.856900 0.668641 0.661726 0.227377
N11   N     N_3   0.853787 0.325480 0.602484 -0.543251
H29   H     H_    0.857060 0.331378 0.661480 0.231195
H30   H     H_    0.864478 0.273414 0.580500 0.222011
N12   N     N_3   0.146319 0.674593 0.397309 -0.543660
H31   H     H_    0.135640 0.726683 0.419189 0.230177
H32   H     H_    0.143100 0.668641 0.338275 0.227384
O49   O     O_3   0.152819 0.675861 0.033195 -0.711074
H33   H     H_    0.142561 0.640463 0.081552 0.380407
O50   O     O_3   0.841709 0.322451 0.965360 -0.730535
H34   H     H_    0.855537 0.311476 0.008345 0.339910
O51   O     O_3   0.847194 0.675862 0.966786 -0.711076
H35   H     H_    0.857461 0.640482 0.918409 0.380403
O52   O     O_3   0.158356 0.322634 0.034484 -0.730527
H36   H     H_    0.144519 0.311629 0.991519 0.339911
O53   O     O_3   0.652788 0.175877 0.033241 -0.711077
H37   H     H_    0.642517 0.140502 0.081625 0.380404
O54   O     O_3   0.341696 0.822512 0.965392 -0.730528
H38   H     H_    0.355526 0.811531 0.008373 0.339909
O55   O     O_3   0.347101 0.175762 0.966967 -0.711076
H39   H     H_    0.357333 0.140317 0.918667 0.380420
O56   O     O_3   0.658305 0.822491 0.034612 -0.730528
H40   H     H_    0.644480 0.811520 0.991621 0.339908
O57   O     O_3   0.284210 0.851613 0.870180 -0.719248
H41   H     H_    0.318369 0.872864 0.862541 0.380516
O58   O     O_3   0.707816 0.138332 0.130065 -0.736551
H42   H     H_    0.731376 0.129285 0.158155 0.344836
O59   O     O_3   0.715788 0.851590 0.129828 -0.719270
H43   H     H_    0.681627 0.872835 0.137473 0.380512
O60   O     O_3   0.292083 0.138247 0.870119 -0.736465
H44   H     H_    0.268568 0.129283 0.841920 0.344796
O61   O     O_3   0.784224 0.351560 0.870149 -0.719278
H45   H     H_    0.818390 0.372797 0.862497 0.380507
O62   O     O_3   0.207850 0.638323 0.130015 -0.736558
H46   H     H_    0.231423 0.629258 0.158076 0.344846
O63   O     O_3   0.215846 0.351743 0.129688 -0.719233
H47   H     H_    0.181725 0.373061 0.137246 0.380551
O64   O     O_3   0.792162 0.638319 0.869969 -0.736552
H48   H     H_    0.768595 0.629264 0.841894 0.344838
N13   N     N_3   0.136631 0.859839 0.028506 -0.577837
H49   H     H_    0.097975 0.845438 0.076192 0.261627
H50   H     H_    0.141667 0.914817 0.023648 0.245232
N14   N     N_3   0.858094 0.131291 0.977720 -0.555484
H51   H     H_    0.854973 0.076210 0.984723 0.241704
H52   H     H_    0.895607 0.146816 0.927256 0.258315
N15   N     N_3   0.863377 0.859824 0.971486 -0.577843
H53   H     H_    0.902035 0.845425 0.923804 0.261636
H54   H     H_    0.858339 0.914802 0.976340 0.245208
N16   N     N_3   0.141836 0.131414 0.022374 -0.555470
H55   H     H_    0.144974 0.076331 0.015424 0.241773
H56   H     H_    0.104307 0.146943 0.072790 0.258271
N17   N     N_3   0.636623 0.359824 0.028513 -0.577840
H57   H     H_    0.597966 0.345426 0.076195 0.261645
H58   H     H_    0.641662 0.414802 0.023658 0.245204
N18   N     N_3   0.358133 0.631359 0.977665 -0.555498
H59   H     H_    0.355003 0.576277 0.984638 0.241728
H60   H     H_    0.395655 0.646888 0.927228 0.258310
N19   N     N_3   0.363350 0.359869 0.971515 -0.577867
H61   H     H_    0.402002 0.345466 0.923817 0.261584
H62   H     H_    0.358319 0.414848 0.976384 0.245247
N20   N     N_3   0.641878 0.631338 0.022319 -0.555493
H63   H     H_    0.645004 0.576256 0.015340 0.241720
H64   H     H_    0.604359 0.646867 0.072765 0.258310
O65   O     O_3   0.097165 0.827876 0.775275 -0.680141
H65   H     H_    0.095232 0.782044 0.748109 0.326545
O66   O     O_3   0.903847 0.174353 0.222431 -0.682433
H66   H     H_    0.904365 0.220194 0.250770 0.325324
O67   O     O_3   0.902834 0.827879 0.224729 -0.680138
H67   H     H_    0.904769 0.782047 0.251893 0.326546
O68   O     O_3   0.096159 0.174336 0.777553 -0.682413
H68   H     H_    0.095633 0.220176 0.749218 0.325329
O69   O     O_3   0.597166 0.327880 0.775270 -0.680139
H69   H     H_    0.595231 0.282048 0.748107 0.326544
O70   O     O_3   0.403838 0.674334 0.222448 -0.682410
H70   H     H_    0.404369 0.720179 0.250770 0.325321
O71   O     O_3   0.402838 0.327868 0.224719 -0.680146
H71   H     H_    0.404766 0.282036 0.251887 0.326547
O72   O     O_3   0.596154 0.674351 0.777567 -0.682427
H72   H     H_    0.595636 0.720191 0.749225 0.325327
N21   N     N_3   0.248812 0.705306 0.785648 -0.570207
H73   H     H_    0.237652 0.661182 0.760463 0.238811
H74   H     H_    0.283782 0.728786 0.737001 0.260170
N22   N     N_3   0.748206 0.289689 0.221391 -0.545506
H75   H     H_    0.713162 0.265436 0.227243 0.234816
H76   H     H_    0.757117 0.332931 0.178130 0.227793
N23   N     N_3   0.751192 0.705298 0.214350 -0.570205
H77   H     H_    0.762353 0.661176 0.239539 0.238805
H78   H     H_    0.716222 0.728778 0.262994 0.260176
N24   N     N_3   0.251804 0.289677 0.778596 -0.545497
H79   H     H_    0.286836 0.265414 0.772780 0.234734
H80   H     H_    0.242898 0.332939 0.821825 0.227826
N25   N     N_3   0.748806 0.205296 0.785650 -0.570203
H81   H     H_    0.737645 0.161175 0.760461 0.238798
H82   H     H_    0.783777 0.228776 0.737007 0.260188
N26   N     N_3   0.248204 0.789687 0.221395 -0.545502
H83   H     H_    0.213164 0.765431 0.227232 0.234828
H84   H     H_    0.257113 0.832938 0.178147 0.227795
N27   N     N_3   0.251182 0.205315 0.214355 -0.570197
H85   H     H_    0.262342 0.161188 0.239536 0.238843
H86   H     H_    0.216213 0.228794 0.263005 0.260115
N28   N     N_3   0.751800 0.789680 0.778602 -0.545503
H87   H     H_    0.786841 0.765423 0.772759 0.234820
H88   H     H_    0.742892 0.832929 0.821853 0.227789

loop_
_geom_bond_atom_site_label_1
_geom_bond_atom_site_label_2
_ccdc_geom_bond_type
N11   H30   S    
C85   O6    A    
C105  O39   A    
O64   H48   S    
C34   C42   A    
C16   C113  A    
C110  C118  A    
Cu9   O45   S    
N21   H73   S    
C27   C99   S    
Cu1   O17   S    
C13   C139  A    
C153  N1    S    
C117  C119  A    
C108  O48   A    
C29   O57   S    
O54   H38   S    
C30   C38   A    
C109  C127  A    
C89   O29   A    
C111  C125  A    
C86   O26   A    
Cu4   O20   S    
C1    O14   A    
C125  C135  A    
C143  C151  A    
C90   O1    A    
C126  C136  A    
C19   C141  A    
C92   C147  S    
C82   C98   A    
C4    O15   A    
Cu5   O29   S    
C130  C134  A    
N4    H16   S    
C5    O10   A    
C73   C81   A    
N2    H11   S    
N16   H56   S    
C8    O11   A    
C76   C84   A    
C115  C123  A    
Cu7   O7    S    
O68   H68   S    
C84   C100  A    
Cu4   Cu7   S    
C127  C136  A    
Cu11  O33   S    
C128  C135  A    
Cu3   O3    S    
C112  C120  A    
N24   H79   S    
C13   N5    S    
C27   C35   A    
N20   H63   S    
C21   C29   A    
C3    O19   A    
C23   C31   A    
C1    O17   A    
C24   C32   A    
C5    C70   S    
Cu9   O40   S    
C146  C154  A    
Cu2   O18   S    
C129  C133  A    
C19   N11   S    
N14   H51   S    
C63   C71   A    
C36   C44   A    
C148  C153  A    
Cu6   O14   S    
C82   N26   S    
C54   C104  S    
C4    O20   A    
C8    C71   S    
C48   C96   A    
C16   C138  A    
N22   H75   S    
C44   O51   S    
C106  O40   A    
Cu6   O22   S    
C81   N25   S    
C24   C96   S    
Cu2   O2    S    
C21   C93   S    
C78   C94   A    
N26   H83   S    
C23   C95   S    
C149  C155  A    
C38   O53   S    
C118  C120  A    
C121  C123  A    
C49   C97   A    
C21   C42   A    
C116  C130  A    
O67   H67   S    
C125  C127  A    
C24   C43   A    
C10   C138  A    
N20   H64   S    
Cu1   Cu6   S    
N7    H21   S    
C110  C128  A    
N10   H27   S    
C15   C137  A    
C9    C133  A    
C6    C69   S    
C62   O66   S    
C69   C77   A    
C66   O70   S    
C104  O34   A    
C45   C93   A    
C71   C79   A    
Cu3   O19   S    
C62   C70   A    
N9    H25   S    
C92   O32   A    
C1    C74   S    
C31   O59   S    
Cu1   O9    S    
C119  H6    S    
O49   H33   S    
C9    C140  A    
C66   C74   A    
C49   C57   A    
C111  C119  A    
Cu3   O11   S    
Cu4   O4    S    
C52   C60   A    
C59   C67   A    
C53   C61   A    
C156  N4    S    
N17   H58   S    
C55   C63   A    
C86   O5    A    
C56   C64   A    
C77   N21   S    
C32   O60   S    
C35   C43   A    
Cu10  O39   S    
C84   N28   S    
C45   C53   A    
O57   H41   S    
C79   N23   S    
C22   C94   S    
Cu12  O35   S    
C46   N14   S    
C42   O49   S    
C65   O69   S    
N18   H60   S    
N1    H9    S    
C15   N7    S    
C50   C98   A    
Cu8   O32   S    
C7    C72   S    
C5    O21   A    
C52   C100  A    
C154  N2    S    
C43   O52   S    
N13   H49   S    
C25   C38   A    
C107  O37   A    
C27   C40   A    
C91   O4    A    
O63   H47   S    
C89   O2    A    
C88   O28   A    
C68   O72   S    
C11   C141  A    
C60   C68   A    
C2    C73   S    
Cu9   O37   S    
C14   C140  A    
C87   C152  S    
N19   H62   S    
C88   C151  S    
C103  O33   A    
C8    O24   A    
C67   C75   A    
C122  C124  A    
C60   C106  S    
C25   C97   S    
N8    H23   S    
C126  C128  A    
C22   C30   A    
C57   C107  S    
C91   O31   A    
O52   H36   S    
C68   C76   A    
C12   C143  A    
N12   H31   S    
C56   C102  S    
C144  C152  A    
C3    O16   A    
C14   N6    S    
C35   O63   S    
C40   O55   S    
C138  C146  A    
C105  O45   A    
C17   N9    S    
N6    H19   S    
N1    H10   S    
Cu5   O5    S    
C123  H2    S    
C102  O42   A    
C64   O68   S    
C121  H4    S    
Cu1   O25   S    
N28   H87   S    
C12   C136  A    
C20   N12   S    
O60   H44   S    
Cu3   Cu8   S    
Cu7   O15   S    
C37   O54   S    
Cu8   O16   S    
Cu11  O41   S    
C108  O38   A    
C25   C33   A    
C36   O64   S    
O56   H40   S    
C131  C134  A    
C83   N27   S    
Cu10  O46   S    
N2    H12   S    
C109  C117  A    
O50   H34   S    
C101  O35   A    
C59   C105  S    
C52   N20   S    
C137  C145  A    
Cu11  O36   S    
C90   C145  S    
C49   N17   S    
C115  C129  A    
N24   H80   S    
C22   C41   A    
C39   O56   S    
C14   C115  A    
C85   C150  S    
C4    C75   S    
Cu2   Cu5   S    
C90   O30   A    
C9    C137  A    
C124  H1    S    
N27   H85   S    
O58   H42   S    
N25   H82   S    
C112  C126  A    
C85   O25   A    
N14   H52   S    
C83   C99   A    
O53   H37   S    
Cu6   O30   S    
C114  C132  A    
C74   C82   A    
Cu2   O10   S    
C87   O27   A    
C51   N19   S    
N21   H74   S    
C50   C58   A    
Cu12  O34   S    
N22   H76   S    
Cu11  Cu12  S    
C54   C62   A    
C28   C39   A    
C23   C44   A    
C2    O18   A    
C130  C132  A    
O72   H72   S    
C63   O67   S    
C79   C95   A    
O61   H45   S    
C92   O3    A    
C11   C135  A    
C50   N18   S    
N23   H77   S    
C152  C155  A    
C46   C54   A    
N26   H84   S    
N3    H14   S    
C151  C156  A    
C18   C111  A    
C78   N22   S    
C10   C139  A    
N10   H28   S    
C46   C94   A    
C80   N24   S    
C116  C124  A    
C57   C65   A    
Cu4   O28   S    
N27   H86   S    
C26   C37   A    
Cu5   O21   S    
C17   C143  A    
C33   C41   A    
C142  C150  A    
C18   C144  A    
O70   H70   S    
C75   C83   A    
C53   C103  S    
Cu7   O31   S    
C12   C142  A    
C58   C108  S    
Cu12  O43   S    
O69   H69   S    
C13   C116  A    
O66   H66   S    
C28   C36   A    
C72   C80   A    
N17   H57   S    
C29   C37   A    
Cu8   O24   S    
Cu9   O48   S    
C103  O43   A    
N19   H61   S    
Cu9   Cu10  S    
C70   C78   A    
O71   H71   S    
C47   N15   S    
C2    O13   A    
N15   H53   S    
C140  C148  A    
C141  C149  A    
C6    O9    A    
C139  C147  A    
C30   O58   S    
Cu6   O6    S    
C48   N16   S    
C65   C73   A    
C147  C154  A    
C104  O44   A    
C26   C34   A    
O62   H46   S    
C18   N10   S    
C132  C133  A    
N7    H22   S    
C80   C96   A    
O51   H35   S    
C145  C153  A    
C28   C100  S    
C32   C40   A    
C150  C156  A    
C26   C98   S    
C91   C148  S    
C58   C66   A    
C107  O47   A    
C51   C99   A    
C89   C146  S    
N8    H24   S    
N9    H26   S    
C20   C142  A    
C7    O12   A    
C41   O50   S    
Cu5   O13   S    
C86   C149  S    
C87   O8    A    
C6    O22   A    
C88   O7    A    
O59   H43   S    
C102  O36   A    
N12   H32   S    
Cu8   O8    S    
Cu3   O27   S    
C34   O62   S    
N6    H20   S    
O55   H39   S    
C61   O65   S    
C15   C114  A    
C113  C121  A    
Cu1   O1    S    
C3    C76   S    
N15   H54   S    
Cu10  O38   S    
C117  H8    S    
N23   H78   S    
C118  H7    S    
C122  H3    S    
N28   H88   S    
N5    H18   S    
Cu2   O26   S    
C51   C59   A    
Cu4   O12   S    
N11   H29   S    
C17   C112  A    
Cu11  O44   S    
N18   H59   S    
C77   C93   A    
C47   C55   A    
C11   C144  A    
C19   C110  A    
C61   C69   A    
C48   C56   A    
N16   H55   S    
C113  C131  A    
C45   N13   S    
C10   C134  A    
C33   O61   S    
Cu10  O47   S    
C67   O71   S    
C16   N8    S    
C55   C101  S    
N13   H50   S    
C106  O46   A    
C81   C97   A    
C155  N3    S    
C31   C39   A    
C64   C72   A    
C7    O23   A    
O65   H65   S    
Cu7   O23   S    
C20   C109  A    
C114  C122  A    
C101  O41   A    
C120  H5    S    
N4    H15   S    
N3    H13   S    
C47   C95   A    
Cu12  O42   S    
N25   H81   S    
N5    H17   S    
C129  C131  A    
