data_mof_unit_6596.cif
_audit_creation_date              2012-12-11T18:37:45-0500
_audit_creation_method            fapswitch 2.2
_symmetry_space_group_name_H-M    P1
_symmetry_Int_Tables_number       1
_space_group_crystal_system       triclinic
_cell_length_a                    8.257988
_cell_length_b                    14.34008
_cell_length_c                    26.97924
_cell_angle_alpha                 93.773821
_cell_angle_beta                  92.907561
_cell_angle_gamma                 88.03874
_cell_volume                      3182.32619184

loop_
_atom_site_label
_atom_site_type_symbol
_atom_type_description
_atom_site_fract_x
_atom_site_fract_y
_atom_site_fract_z
_atom_type_partial_charge
Ba1   Ba    Ba6+2 0.849670 0.455410 0.524690 1.671031
Ba2   Ba    Ba6+2 0.340150 0.544510 0.475310 1.666408
C1    C     C_3   0.625066 0.125749 0.667414 -0.315989
C2    C     C_R   0.923569 0.590711 0.175899 0.572167
C3    C     C_2   0.764577 0.556865 0.269870 -0.075306
C4    C     C_3   0.152389 0.246051 0.665075 0.433493
C5    C     C_3   0.750955 0.590619 0.323601 -0.049020
C6    C     C_1   0.980813 0.484191 0.343137 0.030323
C7    C     C_2   0.020037 0.477550 0.295404 -0.118310
C8    C     C_2   0.904758 0.514146 0.255190 0.197643
C9    C     C_R   0.030796 0.508795 0.101736 -0.079691
C10   C     C_R   0.052384 0.427850 0.128554 -0.034209
C11   C     C_R   0.112457 0.345854 0.103829 -0.075998
C12   C     C_3   0.637627 0.219351 0.644734 0.388091
C13   C     C_R   0.965105 0.590395 0.125727 -0.022282
C14   C     C_2   0.854378 0.534633 0.359133 -0.240876
C15   C     C_2   0.348182 0.477906 0.642400 -0.364576
C16   C     C_3   0.138642 0.221322 0.718572 0.508523
C17   C     C_R   0.197519 0.428069 0.977347 -0.060270
C18   C     C_R   0.075618 0.586942 0.972206 0.046256
C19   C     C_R   0.155906 0.507243 0.949430 -0.006966
C20   C     C_R   0.294089 0.355190 0.954208 0.565132
C21   C     C_R   0.332249 0.356461 0.904422 -0.059464
C22   C     C_R   0.282562 0.431102 0.875683 -0.116178
C23   C     C_3   0.598208 0.700407 0.627540 0.362559
C24   C     C_R   0.196555 0.507384 0.898336 -0.086106
C25   C     C_R   0.152969 0.584422 0.870048 -0.033659
C26   C     C_R   0.194677 0.583919 0.819717 0.674707
C27   C     C_R   0.320579 0.431698 0.825005 0.627622
C28   C     C_3   0.167436 0.259200 0.423983 0.289896
C29   C     C_2   0.464295 0.489568 0.729590 -0.149299
C30   C     C_3   0.501460 0.490407 0.674965 -0.022182
C31   C     C_1   0.213400 0.520131 0.657079 0.023582
C32   C     C_2   0.178577 0.524018 0.704947 0.563508
C33   C     C_2   0.310417 0.506084 0.744425 0.130491
C34   C     C_3   0.697302 0.727039 0.675372 -0.265092
C35   C     C_R   0.144755 0.426219 0.027254 0.036630
C36   C     C_R   0.073451 0.508122 0.050772 0.047388
C37   C     C_R   0.042826 0.589273 0.023768 0.024059
C38   C     C_R   0.155299 0.344648 0.054328 -0.040115
C39   C     C_R   0.942573 0.671008 0.099221 -0.050540
C40   C     C_3   0.189341 0.154343 0.412156 -0.380699
C41   C     C_R   0.030198 0.661997 0.942310 -0.088350
C42   C     C_R   0.068486 0.660748 0.892614 -0.051344
C43   C     C_R   0.980417 0.670635 0.049578 -0.102445
C44   C     C_R   0.687762 0.064500 0.470880 -0.041274
C45   C     C_3   0.088282 0.746098 0.333124 0.312209
C46   C     C_R   0.513214 0.199240 0.502088 0.059938
C47   C     C_R   0.377082 0.230778 0.527757 -0.285706
C48   C     C_R   0.278149 0.167940 0.547985 0.022004
C49   C     C_R   0.323358 0.073501 0.547201 -0.139085
C50   C     C_R   0.461835 0.040110 0.522690 -0.009795
C51   C     C_R   0.555994 0.102092 0.498282 -0.027469
C52   C     C_3   0.032841 0.745966 0.578277 0.306363
C53   C     C_R   0.634473 0.907379 0.494372 0.038751
C54   C     C_R   0.729242 0.968372 0.469518 0.029350
C55   C     C_R   0.678121 0.810956 0.493209 0.120209
C56   C     C_3   0.101029 0.774601 0.279853 -0.078147
C57   C     C_R   0.813484 0.776961 0.468394 -0.200935
C58   C     C_R   0.913566 0.837497 0.447121 0.013579
C59   C     C_R   0.869931 0.932848 0.446226 -0.110646
C60   C     C_R   0.502750 0.944716 0.521080 -0.033443
C61   C     C_3   0.064610 0.849895 0.590556 -0.161668
C62   C     C_3   0.703986 0.308582 0.377237 0.387513
C63   C     C_3   0.773238 0.245820 0.335053 -0.293236
C64   C     C_3   0.555748 0.795423 0.348437 1.099569
C65   C     C_3   0.530926 0.884216 0.320729 -0.273804
C66   C     C_R   0.009559 0.429887 0.179079 0.607824
F1    F     F_    0.504009 0.813254 0.396053 -0.698846
F2    F     F_    0.365420 0.285253 0.979701 -0.714020
F3    F     F_    0.025911 0.548024 0.718624 -0.664681
F4    F     F_    0.979494 0.233044 0.732047 -0.670382
H1    H     H_    0.755437 0.219984 0.626771 0.101918
H2    H     H_    0.632357 0.068307 0.637822 0.053087
H3    H     H_    0.844501 0.186550 0.350492 0.096053
H4    H     H_    0.853272 0.286140 0.313079 0.111751
H5    H     H_    0.673722 0.217105 0.309921 0.115273
H6    H     H_    0.537102 0.226011 0.616347 -0.034918
H7    H     H_    0.507575 0.122635 0.685433 0.105037
H8    H     H_    0.649620 0.632907 0.612019 0.077809
H9    H     H_    0.646685 0.792422 0.693821 0.107021
H10   H     H_    0.695823 0.670057 0.701310 0.115106
H11   H     H_    0.824668 0.738645 0.667047 0.144120
H12   H     H_    0.284954 0.140411 0.384882 0.140201
H13   H     H_    0.726011 0.116031 0.695565 0.185637
H14   H     H_    0.215726 0.267732 0.743455 0.042196
H15   H     H_    0.160051 0.679843 0.337299 0.075272
H16   H     H_    0.959472 0.733658 0.339700 -0.047169
H17   H     H_    0.221372 0.803899 0.275082 0.133413
H18   H     H_    0.091487 0.711531 0.254045 0.116011
H19   H     H_    0.687942 0.777899 0.350123 -0.345087
H20   H     H_    0.609867 0.939443 0.338442 0.059406
H21   H     H_    0.402720 0.909818 0.321949 0.117447
H22   H     H_    0.107693 0.319526 0.662034 0.035426
H23   H     H_    0.224949 0.118455 0.446278 0.069530
H24   H     H_    0.562765 0.870450 0.281366 0.045916
H25   H     H_    0.137820 0.448279 0.285511 0.131241
H26   H     H_    0.124849 0.281273 0.122579 0.131726
H27   H     H_    0.563641 0.480403 0.756940 0.145884
H28   H     H_    0.404937 0.298663 0.888626 0.160890
H29   H     H_    0.189345 0.277096 0.037683 0.172772
H30   H     H_    0.673975 0.581322 0.242769 0.111639
H31   H     H_    0.894820 0.735544 0.116856 0.132347
H32   H     H_    0.961438 0.722670 0.955899 0.073657
H33   H     H_    0.282238 0.239899 0.656068 -0.239819
H34   H     H_    0.073947 0.124863 0.396412 0.106407
H35   H     H_    0.030784 0.720455 0.871751 0.126720
H36   H     H_    0.962209 0.736476 0.032778 0.077267
H37   H     H_    0.842904 0.552601 0.398533 0.073245
H38   H     H_    0.348886 0.435924 0.607389 0.083452
H39   H     H_    0.342052 0.304276 0.529265 0.064648
H40   H     H_    0.248210 0.025946 0.564463 0.065168
H41   H     H_    0.948655 0.979368 0.429403 0.055134
H42   H     H_    0.848883 0.703709 0.469466 0.024077
H43   H     H_    0.760909 0.108864 0.450878 0.092545
H44   H     H_    0.429578 0.900245 0.540904 0.092693
H45   H     H_    0.902664 0.735132 0.569981 -0.006239
H46   H     H_    0.180040 0.147636 0.722790 0.012039
H47   H     H_    0.285253 0.288077 0.437095 0.022912
H48   H     H_    0.078762 0.271259 0.453443 0.060906
H49   H     H_    0.836201 0.906381 0.582644 0.184279
H50   H     H_    0.981550 0.978217 0.570657 0.206338
H51   H     H_    0.506293 0.359741 0.337632 0.214121
H52   H     H_    0.575363 0.430701 0.385908 0.208584
H53   H     H_    0.380523 0.753606 0.651213 0.198674
H54   H     H_    0.371428 0.668301 0.605727 0.174563
H55   H     H_    0.980840 0.901157 0.292327 0.193415
H56   H     H_    0.101698 0.721036 0.545398 0.051768
H57   H     H_    0.861104 0.813994 0.269068 0.206082
H58   H     H_    0.060570 0.867208 0.631363 0.130230
H59   H     H_    0.188222 0.864671 0.579424 0.091384
H60   H     H_    0.806839 0.336585 0.400808 0.049234
N1    N     N_R   0.946608 0.511142 0.202676 -0.423957
N2    N     N_R   0.274375 0.507085 0.797131 -0.412926
N3    N     N_3   0.945482 0.909090 0.564899 -0.541088
N4    N     N_3   0.611255 0.385698 0.356221 -0.516629
N5    N     N_3   0.431197 0.688536 0.639375 -0.524755
N6    N     N_3   0.974284 0.843454 0.266563 -0.466703
O1    O     O_2   0.918080 0.549800 0.616640 -0.451764
O2    O     O_2   0.247786 0.835097 0.459791 -0.422783
O3    O     O_3   0.150806 0.816708 0.366471 -0.573322
O4    O     O_3   0.150070 0.549720 0.556460 -0.501261
O5    O     O_3   0.546340 0.387390 0.478340 -0.482459
O6    O     O_2   0.398940 0.728800 0.517420 -0.458229
O7    O     O_3   0.604100 0.772626 0.595012 -0.671848
O8    O     O_2   0.417549 0.543829 0.321232 -0.501625
O9    O     O_3   0.464389 0.723524 0.323848 -0.639214
O10   O     O_2   0.026213 0.358814 0.201658 -0.591660
O11   O     O_2   0.394335 0.364659 0.805713 -0.586397
O12   O     O_3   0.601317 0.255621 0.403375 -0.644132
O13   O     O_2   0.867219 0.662779 0.195763 -0.617342
O14   O     O_2   0.162189 0.652771 0.796275 -0.549751
O15   O     O_3   0.658250 0.379560 0.591530 -0.509463
O16   O     O_2   0.829998 0.423670 0.674421 -0.389659
O17   O     O_3   0.081004 0.698877 0.620505 -0.645040
O18   O     O_3   0.625465 0.292092 0.681983 -0.558178
O19   O     O_2   0.790750 0.271170 0.482550 -0.484670
O20   O     O_3   0.062300 0.331660 0.568480 -0.488609
O21   O     O_2   0.940004 0.165465 0.542174 -0.499613
O22   O     O_3   0.058959 0.184671 0.633614 -0.610470
O23   O     O_2   0.271610 0.450170 0.383330 -0.461151
O24   O     O_3   0.039630 0.450200 0.443530 -0.503149
O25   O     O_3   0.531440 0.620360 0.408460 -0.428962
O26   O     O_3   0.111713 0.300648 0.380650 -0.635235
O27   O     O_3   0.643350 0.612530 0.521650 -0.488851
O28   O     O_3   0.127390 0.668260 0.431510 -0.491810
P1    P     P_3+3 0.090020 0.577590 0.608380 1.031653
P2    P     P_3+3 0.614340 0.285150 0.467650 0.964658
P3    P     P_3+3 0.084343 0.210986 0.572222 0.936841
P4    P     P_3+3 0.099670 0.422330 0.391610 0.975111
P5    P     P_3+3 0.110081 0.789807 0.426705 1.023835
P6    P     P_3+3 0.655495 0.398849 0.656022 1.045503
P7    P     P_3+3 0.584780 0.730523 0.532314 0.935077
P8    P     P_3+3 0.540086 0.616127 0.343781 0.994881

loop_
_geom_bond_atom_site_label_1
_geom_bond_atom_site_label_2
_ccdc_geom_bond_type
C53   C54   A    
C62   N4    S    
H54   N5    S    
C49   H40   S    
C1    H13   S    
C23   H8    S    
Ba2   O6    S    
O26   P4    S    
C8    N1    S    
C28   O26   S    
C19   C24   A    
C1    H7    S    
C15   H38   S    
Ba2   O24   S    
O9    P8    S    
C10   C66   A    
C24   C25   A    
C16   H14   S    
C63   H4    S    
C44   H43   S    
C26   N2    Am   
C66   N1    Am   
C17   C19   A    
C22   C24   A    
C32   C33   S    
C35   C38   A    
C36   C37   A    
C55   C57   A    
C64   F1    S    
C52   C61   S    
Ba1   P1    S    
C34   H11   S    
O27   P7    S    
C5    P8    S    
O3    P5    S    
O19   P2    D    
Ba1   Ba2   S    
C61   H58   S    
C11   H26   S    
C1    H2    S    
C41   H32   S    
C11   C38   A    
Ba1   O4    S    
C17   C35   A    
C38   H29   S    
C22   C27   A    
C9    C13   A    
C25   C42   A    
H57   N6    S    
C62   H60   S    
O17   P1    S    
C6    C7    D    
C4    H22   S    
O24   P4    S    
O6    P7    D    
O22   P3    S    
Ba2   O23   S    
H55   N6    S    
C61   H59   S    
C7    C8    S    
Ba2   O28   S    
C66   O10   D    
C43   H36   S    
C37   C43   A    
C56   N6    S    
C27   N2    Am   
O4    P1    S    
O28   P5    S    
C6    C14   D    
Ba2   O5    S    
C31   P1    S    
C15   C31   D    
C33   N2    S    
C6    P4    S    
C14   H37   S    
C31   C32   D    
C16   F4    S    
C46   C51   A    
C4    C16   S    
C63   H5    S    
H52   N4    S    
C40   H23   S    
C12   H1    S    
C17   C20   A    
C40   H12   S    
C13   C39   A    
C34   H10   S    
C52   O17   S    
C3    C5    S    
C18   C37   A    
Ba1   P2    S    
H53   N5    S    
C52   H56   S    
O18   P6    S    
H49   N3    S    
C49   C50   A    
C62   O12   S    
C58   C59   A    
C45   H15   S    
C9    C36   A    
C23   N5    S    
C41   C42   A    
C60   H44   S    
C35   C36   A    
Ba1   O5    S    
C56   H18   S    
C29   C30   S    
C46   P2    S    
Ba1   O27   S    
C34   H9    S    
C21   C22   A    
O12   P2    S    
C48   C49   A    
O16   P6    D    
C18   C19   A    
Ba1   O15   S    
C40   H34   S    
Ba2   O27   S    
C64   O9    S    
C1    C12   S    
Ba2   P4    S    
C55   P7    S    
O23   P4    D    
O15   P6    S    
C53   C60   A    
C46   C47   A    
O7    P7    S    
Ba1   O24   S    
C26   O14   D    
O2    P5    D    
C29   H27   S    
C53   C55   A    
C59   H41   S    
C65   H24   S    
Ba2   O4    S    
C29   C33   D    
C18   C41   A    
C50   C51   A    
O1    P1    D    
C42   H35   S    
C2    O13   D    
C16   H46   S    
C3    H30   S    
C5    C14   S    
C7    H25   S    
O21   P3    D    
C12   O18   S    
C54   C59   A    
C58   P5    S    
Ba1   O1    S    
Ba2   O25   S    
C4    O22   S    
C9    C10   A    
O20   P3    S    
C64   H19   S    
C45   O3    S    
C63   H3    S    
C47   H39   S    
H51   N4    S    
C62   C63   S    
C2    C13   A    
Ba1   O19   S    
C3    C8    D    
C50   C60   A    
C64   C65   S    
C45   H16   S    
C45   C56   S    
Ba1   O20   S    
C28   H48   S    
C57   H42   S    
O8    P8    D    
C44   C51   A    
C65   H20   S    
C4    H33   S    
C21   H28   S    
C48   P3    S    
C12   H6    S    
C30   P6    S    
C56   H17   S    
H50   N3    S    
C23   C34   S    
C27   O11   D    
C39   H31   S    
C57   C58   A    
C10   C11   A    
C47   C48   A    
C28   H47   S    
C52   H45   S    
C44   C54   A    
C25   C26   A    
C65   H21   S    
C15   C30   S    
C39   C43   A    
C20   C21   A    
C28   C40   S    
C23   O7    S    
O5    P2    S    
O25   P8    S    
C32   F3    S    
C20   F2    S    
C61   N3    S    
C2    N1    Am   
