data_mof_unit_57943.cif
_audit_creation_date              2012-10-26T19:42:43-0400
_audit_creation_method            fapswitch 2.2
_symmetry_space_group_name_H-M    P1
_symmetry_Int_Tables_number       1
_space_group_crystal_system       triclinic
_cell_length_a                    19.305429
_cell_length_b                    10.931966
_cell_length_c                    9.650431
_cell_angle_alpha                 92.192789
_cell_angle_beta                  90.446151
_cell_angle_gamma                 95.269599
_cell_volume                      2026.46398931

loop_
_atom_site_label
_atom_site_type_symbol
_atom_type_description
_atom_site_fract_x
_atom_site_fract_y
_atom_site_fract_z
_atom_type_partial_charge
C1    C     C_R   0.501551 0.262072 0.497917 0.541262
C2    C     C_R   0.851210 0.446402 0.480563 -0.010383
C3    C     C_R   0.546220 0.127416 0.741337 -0.081963
C4    C     C_R   0.367992 0.500166 0.499532 0.521767
C5    C     C_R   0.539274 0.074508 0.871538 0.248661
C6    C     C_R   0.498978 0.962707 0.881732 -0.080122
C7    C     C_R   0.474008 0.897147 0.761952 -0.160866
C8    C     C_R   0.490700 0.942227 0.630415 0.006128
C9    C     C_R   0.513919 0.067222 0.621876 -0.016007
C10   C     C_R   0.502312 0.126549 0.495791 0.011205
C11   C     C_R   0.481467 0.052280 0.375467 -0.017108
C12   C     C_R   0.292316 0.499152 0.497729 -0.046527
C13   C     C_R   0.480182 0.925232 0.380657 -0.113956
C14   C     C_R   0.486016 0.868656 0.506766 -0.015411
C15   C     C_R   0.607877 0.633324 0.154090 -0.105112
C16   C     C_R   0.494366 0.736163 0.502524 0.519483
C17   C     C_R   0.673036 0.658098 0.094674 0.187666
C18   C     C_R   0.679099 0.637466 0.953412 -0.030078
C19   C     C_R   0.618280 0.622081 0.871822 0.048858
C20   C     C_R   0.556009 0.562045 0.930412 0.133006
C21   C     C_R   0.553831 0.564356 0.079430 0.095086
C22   C     C_R   0.447864 0.438620 0.067596 0.103635
C23   C     C_R   0.928165 0.449910 0.478441 0.335758
C24   C     C_R   0.447973 0.440822 0.920749 0.025732
C25   C     C_R   0.632188 0.493620 0.499924 0.550719
C26   C     C_R   0.253894 0.396264 0.547749 -0.106108
C27   C     C_R   0.181788 0.382251 0.536219 0.231029
C28   C     C_R   0.146193 0.477620 0.480761 -0.004010
C29   C     C_R   0.184840 0.584760 0.433159 0.013848
C30   C     C_R   0.258225 0.594817 0.440006 0.240712
C31   C     C_3   0.386393 0.368223 0.129754 -0.351488
C32   C     C_3   0.616360 0.729051 0.778576 -0.325862
C33   C     C_3   0.148081 0.690588 0.379867 -0.316986
C34   C     C_R   0.069352 0.467885 0.479778 0.316681
C35   C     C_3   0.454838 0.101692 0.243943 -0.348461
C36   C     C_R   0.817308 0.444141 0.608953 -0.142840
C37   C     C_R   0.745441 0.454993 0.618071 0.216095
C38   C     C_R   0.707411 0.475699 0.497125 -0.007277
C39   C     C_R   0.740676 0.470751 0.368343 -0.104774
C40   C     C_R   0.810881 0.452296 0.358141 0.248961
Cu1   Cu    Cu3+1 0.500000 0.499990 0.640660 0.941513
Cu2   Cu    Cu3+1 0.500000 0.500010 0.359340 0.914105
H1    H     H_    0.280527 0.322644 0.590053 0.149382
H2    H     H_    0.711540 0.476683 0.273057 0.185824
H3    H     H_    0.595557 0.209658 0.965432 0.333999
H4    H     H_    0.368051 0.286676 0.062515 0.087335
H5    H     H_    0.399814 0.333046 0.230017 0.185695
H6    H     H_    0.343204 0.428079 0.141681 0.153453
H7    H     H_    0.716731 0.721680 0.268032 0.319933
H8    H     H_    0.624221 0.706729 0.667889 0.170103
H9    H     H_    0.568401 0.770484 0.799537 0.152491
H10   H     H_    0.657212 0.805274 0.805008 0.105429
H11   H     H_    0.103738 0.256163 0.526951 0.346058
H12   H     H_    0.578169 0.213473 0.734258 0.158119
H13   H     H_    0.183696 0.774309 0.364385 0.196055
H14   H     H_    0.122671 0.663394 0.278427 0.163611
H15   H     H_    0.108458 0.716949 0.455449 0.143466
H16   H     H_    0.343627 0.704695 0.421633 0.335254
H17   H     H_    0.745604 0.425438 0.815908 0.331089
H18   H     H_    0.870918 0.375550 0.229477 0.343708
H19   H     H_    0.440929 0.028263 0.163507 0.125709
H20   H     H_    0.405959 0.142751 0.268197 0.120235
H21   H     H_    0.494135 0.168060 0.198341 0.218914
H22   H     H_    0.490658 0.922341 0.981516 0.126209
H23   H     H_    0.444571 0.809208 0.773593 0.154360
H24   H     H_    0.470972 0.869524 0.285793 0.146194
H25   H     H_    0.601403 0.667765 0.257818 0.173217
H26   H     H_    0.728252 0.668510 0.906730 0.173182
H27   H     H_    0.405591 0.392428 0.860942 0.129394
H28   H     H_    0.846823 0.435040 0.703305 0.150028
N1    N     N_R   0.033496 0.494627 0.365251 -0.228665
N2    N     N_R   0.964375 0.487006 0.365152 -0.182924
N3    N     N_R   0.964246 0.423445 0.593227 -0.220977
N4    N     N_R   0.033454 0.432361 0.593987 -0.186060
N5    N     N_R   0.500660 0.501210 0.147910 -0.226205
N6    N     N_R   0.500680 0.501290 0.852040 -0.249506
O1    O     O_R   0.499990 0.319640 0.618810 -0.507844
O2    O     O_3   0.729985 0.711046 0.169509 -0.663738
O3    O     O_3   0.148575 0.272602 0.577631 -0.668526
O4    O     O_3   0.294459 0.699289 0.390849 -0.705586
O5    O     O_3   0.711758 0.442798 0.743020 -0.693765
O6    O     O_3   0.837382 0.438791 0.226871 -0.648929
O7    O     O_R   0.500000 0.319660 0.381240 -0.511725
O8    O     O_R   0.400140 0.499970 0.618820 -0.504260
O9    O     O_R   0.400150 0.500000 0.381250 -0.504292
O10   O     O_R   0.500000 0.680340 0.618760 -0.527020
O11   O     O_R   0.500010 0.680360 0.381190 -0.523976
O12   O     O_R   0.599850 0.500000 0.618750 -0.438468
O13   O     O_R   0.599860 0.500030 0.381180 -0.539007
O14   O     O_3   0.570240 0.130413 0.989698 -0.713543

loop_
_geom_bond_atom_site_label_1
_geom_bond_atom_site_label_2
_ccdc_geom_bond_type
C33   H13   S    
C1    O1    A    
N3    N4    A    
C19   C20   A    
C7    C8    A    
Cu1   O10   S    
Cu2   N5    S    
C29   C30   A    
C36   C37   A    
H11   O3    S    
C27   O3    S    
Cu1   O1    S    
C38   C39   A    
C3    H12   S    
C18   H26   S    
C29   C33   S    
H7    O2    S    
C20   N6    A    
C18   C19   A    
Cu1   Cu2   S    
C6    H22   S    
C32   H10   S    
H18   O6    S    
C8    C9    A    
C31   H4    S    
C24   H27   S    
C16   O11   A    
C33   H15   S    
C4    C12   S    
C9    C10   A    
C5    O14   S    
H16   O4    S    
C30   O4    S    
C33   H14   S    
C28   C34   S    
C31   H5    S    
C13   C14   A    
C16   O10   A    
C37   O5    S    
C22   N5    A    
C23   N3    A    
C19   C32   S    
C36   H28   S    
C26   H1    S    
C13   H24   S    
C22   C31   S    
Cu2   O7    S    
C40   O6    S    
C39   C40   A    
C24   N6    A    
C4    O9    A    
Cu1   O8    S    
C25   O12   A    
C12   C26   A    
C32   H9    S    
C37   C38   A    
C3    C9    A    
C25   C38   S    
C7    H23   S    
C4    O8    A    
C15   H25   S    
C17   C18   A    
C26   C27   A    
C35   H19   S    
Cu2   O9    S    
H3    O14   S    
C32   H8    S    
C39   H2    S    
C34   N4    A    
C31   H6    S    
C22   C24   A    
C2    C23   S    
C2    C36   A    
C15   C17   A    
Cu1   O12   S    
C28   C29   A    
C8    C14   A    
C12   C30   A    
C23   N2    A    
C1    C10   S    
H17   O5    S    
C3    C5    A    
C6    C7    A    
C1    O7    A    
C21   N5    A    
C25   O13   A    
Cu2   O13   S    
C11   C35   S    
N1    N2    A    
Cu1   N6    S    
C11   C13   A    
C5    C6    A    
C17   O2    S    
C35   H20   S    
C14   C16   S    
C10   C11   A    
C2    C40   A    
C15   C21   A    
C20   C21   A    
C27   C28   A    
C35   H21   S    
Cu2   O11   S    
C34   N1    A    
