data_mof_unit_47868.cif
_audit_creation_date              2012-12-11T15:34:18-0500
_audit_creation_method            fapswitch 2.2
_symmetry_space_group_name_H-M    P1
_symmetry_Int_Tables_number       1
_space_group_crystal_system       triclinic
_cell_length_a                    15.108232
_cell_length_b                    15.104035
_cell_length_c                    34.787027
_cell_angle_alpha                 90.560638
_cell_angle_beta                  89.928312
_cell_angle_gamma                 60.174245
_cell_volume                      6886.25096967

loop_
_atom_site_label
_atom_site_type_symbol
_atom_type_description
_atom_site_fract_x
_atom_site_fract_y
_atom_site_fract_z
_atom_type_partial_charge
C1    C     C_R   0.303188 0.607842 0.555923 0.545524
C2    C     C_R   0.660850 0.650262 0.670876 0.030808
C3    C     C_R   0.251687 0.674350 0.266246 -0.103241
C4    C     C_R   0.183141 0.657631 0.287580 -0.024572
C5    C     C_R   0.118367 0.630099 0.269122 -0.122293
C6    C     C_R   0.119457 0.621851 0.229074 0.148219
C7    C     C_R   0.186020 0.642810 0.207226 0.093806
C8    C     C_R   0.258368 0.548632 0.343768 0.125897
C9    C     C_R   0.290196 0.536829 0.382008 0.075416
C10   C     C_R   0.184816 0.721001 0.392893 0.072315
C11   C     C_R   0.156880 0.733192 0.353878 0.153448
C12   C     C_R   0.196148 0.646898 0.329278 -0.014999
C13   C     C_R   0.560718 0.690761 0.657295 0.104835
C14   C     C_R   0.255551 0.623017 0.406829 -0.010944
C15   C     C_R   0.735439 0.026669 0.943668 0.542446
C16   C     C_R   0.744446 0.721669 0.945749 0.574186
C17   C     C_R   0.042669 0.731472 0.949433 0.559943
C18   C     C_R   0.722355 0.040967 0.052573 0.573925
C19   C     C_R   0.732772 0.732565 0.054414 0.570338
C20   C     C_R   0.032181 0.742338 0.056439 0.538454
C21   C     C_R   0.544166 0.682872 0.617980 0.105265
C22   C     C_R   0.677404 0.665262 0.789643 0.339948
C23   C     C_R   0.676115 0.656640 0.712068 0.393598
C24   C     C_R   0.753735 0.588766 0.852478 -0.143110
C25   C     C_R   0.768354 0.600528 0.891404 0.053947
C26   C     C_R   0.623277 0.774139 0.889994 0.102514
C27   C     C_R   0.611529 0.761116 0.850941 -0.127448
C28   C     C_R   0.679972 0.671005 0.831640 -0.011036
C29   C     C_R   0.610393 0.588816 0.555354 0.558648
C30   C     C_R   0.708617 0.696806 0.909720 0.077388
C31   C     C_R   0.718681 0.082397 0.907407 -0.005753
C32   C     C_R   0.627664 0.114539 0.887143 -0.134958
C33   C     C_R   0.619041 0.147646 0.849517 -0.128718
C34   C     C_R   0.700521 0.150423 0.831521 0.078673
C35   C     C_R   0.789565 0.126571 0.852637 0.115849
C36   C     C_R   0.797606 0.092600 0.890485 -0.091076
C37   C     C_R   0.666232 0.258092 0.772975 0.063431
C38   C     C_R   0.656365 0.268637 0.732873 0.108413
C39   C     C_R   0.678519 0.183396 0.709466 0.044935
C40   C     C_R   0.591021 0.298090 0.553023 0.533151
C41   C     C_R   0.709673 0.087804 0.725871 0.061197
C42   C     C_R   0.716301 0.077735 0.766096 0.082874
C43   C     C_R   0.695890 0.162522 0.789509 0.017730
C44   C     C_R   0.578477 0.199337 0.650339 0.132793
C45   C     C_R   0.566222 0.208258 0.609998 0.175290
C46   C     C_R   0.716850 0.227368 0.605721 -0.129398
C47   C     C_R   0.738610 0.201971 0.644433 0.150493
C48   C     C_R   0.665513 0.194719 0.667395 0.083215
C49   C     C_R   0.627439 0.238697 0.589028 -0.049193
C50   C     C_R   0.111605 0.685896 0.915218 -0.008911
C51   C     C_R   0.302230 0.609012 0.445401 0.559798
C52   C     C_R   0.156485 0.738883 0.897958 0.068594
C53   C     C_R   0.191989 0.716413 0.859655 0.123081
C54   C     C_R   0.175138 0.647168 0.838008 0.000279
C55   C     C_R   0.138523 0.588187 0.856022 0.124122
C56   C     C_R   0.120930 0.597689 0.896243 0.126995
C57   C     C_R   0.270918 0.567575 0.776445 0.113464
C58   C     C_R   0.276433 0.570528 0.736377 -0.097486
C59   C     C_R   0.194032 0.642517 0.714842 -0.011566
C60   C     C_R   0.105170 0.717774 0.733924 0.117013
C61   C     C_R   0.103261 0.722653 0.774332 0.164899
C62   C     C_R   0.606417 0.590584 0.444841 0.571194
C63   C     C_R   0.184269 0.645782 0.795650 0.048259
C64   C     C_R   0.194205 0.723184 0.652813 -0.166460
C65   C     C_R   0.216550 0.716716 0.613662 -0.156405
C66   C     C_R   0.258778 0.539639 0.612912 -0.111229
C67   C     C_R   0.234631 0.545806 0.652016 0.142657
C68   C     C_R   0.204913 0.637715 0.672490 0.044893
C69   C     C_R   0.253503 0.623601 0.593806 -0.005054
C70   C     C_R   0.689657 0.708500 0.089175 0.010502
C71   C     C_R   0.585819 0.768961 0.099787 0.069807
C72   C     C_R   0.551873 0.757695 0.136493 0.147988
C73   C     C_R   0.589339 0.300281 0.444159 0.553048
C74   C     C_R   0.621765 0.684341 0.162039 0.013544
C75   C     C_R   0.719974 0.611753 0.148657 0.106826
C76   C     C_R   0.752723 0.621894 0.111952 0.116058
C77   C     C_R   0.596108 0.606394 0.220942 -0.117917
C78   C     C_R   0.605253 0.593822 0.260865 0.150440
C79   C     C_R   0.613544 0.666667 0.283957 0.034782
C80   C     C_R   0.605361 0.754059 0.267109 -0.118687
C81   C     C_R   0.598135 0.765740 0.227165 0.144267
C82   C     C_R   0.598175 0.688905 0.203670 0.037475
C83   C     C_R   0.522954 0.708342 0.346119 0.099208
C84   C     C_R   0.628452 0.624050 0.593040 -0.003297
C85   C     C_R   0.521074 0.696058 0.386049 0.109388
C86   C     C_R   0.706963 0.589986 0.386139 0.089728
C87   C     C_R   0.707495 0.605458 0.346263 -0.160251
C88   C     C_R   0.615579 0.659861 0.326190 0.009003
C89   C     C_R   0.613120 0.628011 0.405813 0.041432
C90   C     C_R   0.699176 0.105950 0.088081 0.011965
C91   C     C_R   0.770337 0.132957 0.102439 0.102449
C92   C     C_R   0.766683 0.161867 0.141385 0.145976
C93   C     C_R   0.691188 0.163551 0.166058 0.036934
C94   C     C_R   0.611398 0.152420 0.150101 0.051370
C95   C     C_R   0.728840 0.589389 0.606585 0.056263
C96   C     C_R   0.612215 0.130402 0.110573 0.093860
C97   C     C_R   0.618859 0.249952 0.230005 0.150368
C98   C     C_R   0.613985 0.243936 0.269987 0.104968
C99   C     C_R   0.689060 0.158136 0.289807 -0.027006
C100  C     C_R   0.770447 0.077806 0.268912 0.074713
C101  C     C_R   0.776477 0.085366 0.228615 0.155983
C102  C     C_R   0.697400 0.168279 0.208796 0.059776
C103  C     C_R   0.748113 0.191447 0.353287 0.152310
C104  C     C_R   0.719143 0.228286 0.391282 -0.124134
C105  C     C_R   0.579067 0.192836 0.389330 0.082459
C106  C     C_R   0.744563 0.603471 0.645477 0.136204
C107  C     C_R   0.607374 0.156258 0.351464 -0.138091
C108  C     C_R   0.686268 0.162023 0.332526 0.004235
C109  C     C_R   0.630653 0.236861 0.408456 0.004401
C110  C     C_R   0.098176 0.702731 0.090458 0.000284
C111  C     C_R   0.141929 0.600337 0.102728 0.125134
C112  C     C_R   0.177339 0.576371 0.140774 0.206521
C113  C     C_R   0.175102 0.653183 0.165050 0.055656
C114  C     C_R   0.149102 0.748197 0.149896 -0.165924
C115  C     C_R   0.112315 0.772100 0.112957 -0.185759
C116  C     C_R   0.254108 0.666969 0.226164 0.075500
Cr1   Cr    Cr6+3 0.421670 0.426920 0.499620 1.038129
Cr2   Cr    Cr6+3 0.427030 0.651190 0.500980 1.017551
Cr3   Cr    Cr6+3 0.651280 0.421870 0.499380 1.001500
Cr4   Cr    Cr6+3 0.910810 0.908010 0.001130 1.013157
Cr5   Cr    Cr6+3 0.682800 0.909890 0.998370 1.035424
Cr6   Cr    Cr6+3 0.908370 0.682300 0.002180 1.020462
H1    H     H_    0.868078 0.069036 0.905851 0.137563
H2    H     H_    0.550972 0.164854 0.833523 0.101458
H3    H     H_    0.768815 0.240851 0.588657 0.141707
H4    H     H_    0.345542 0.515583 0.721584 0.141462
H5    H     H_    0.172469 0.793902 0.668174 0.136105
H6    H     H_    0.211336 0.782740 0.599570 0.132861
H7    H     H_    0.286697 0.467143 0.598019 0.142743
H8    H     H_    0.779414 0.574430 0.330883 0.108332
H9    H     H_    0.593599 0.548357 0.203185 0.125452
H10   H     H_    0.606026 0.812776 0.285073 0.111509
H11   H     H_    0.562846 0.130143 0.335561 0.105738
H12   H     H_    0.762447 0.255685 0.407057 0.130292
H13   H     H_    0.089735 0.847566 0.102944 0.130504
H14   H     H_    0.804161 0.516709 0.838236 0.129907
H15   H     H_    0.305933 0.689332 0.280983 0.122368
H16   H     H_    0.068782 0.612582 0.285995 0.107909
H17   H     H_    0.149132 0.807434 0.167723 0.148858
H18   H     H_    0.549879 0.822894 0.835473 0.128250
H19   H     H_    0.565208 0.108167 0.899453 0.134285
N1    N     N_R   0.729833 0.574454 0.770792 -0.246654
N2    N     N_R   0.728334 0.570207 0.732650 -0.250163
N3    N     N_R   0.624697 0.747543 0.730825 -0.205181
N4    N     N_R   0.625865 0.751795 0.768943 -0.246554
O1    O     O_R   0.502070 0.323090 0.541280 -0.510684
O2    O     O_R   0.520720 0.641670 0.461580 -0.475330
O3    O     O_R   0.674120 0.502090 0.457500 -0.501437
O4    O     O_R   0.640110 0.338380 0.459630 -0.520999
O5    O     O_3   0.499990 0.499990 0.499990 -0.245114
O6    O     O_R   0.017640 0.822070 0.960410 -0.474474
O7    O     O_R   0.822000 0.989470 0.960340 -0.505192
O8    O     O_R   0.666920 0.007430 0.955290 -0.506605
O9    O     O_R   0.694410 0.812480 0.959650 -0.471093
O10   O     O_R   0.831550 0.656950 0.958960 -0.469420
O11   O     O_R   0.998590 0.685540 0.963930 -0.502624
O12   O     O_R   0.338340 0.520690 0.539540 -0.504765
O13   O     O_R   0.008220 0.831200 0.045060 -0.533055
O14   O     O_R   0.813270 0.997930 0.038810 -0.480418
O15   O     O_R   0.657500 0.016560 0.039940 -0.489590
O16   O     O_R   0.685680 0.820940 0.038120 -0.479469
O17   O     O_R   0.822130 0.666070 0.043610 -0.490092
O18   O     O_R   0.989860 0.694000 0.042400 -0.517743
O19   O     O_3   0.833990 0.833400 0.000560 -0.256016
O20   O     O_R   0.324760 0.674070 0.543580 -0.505698
O21   O     O_R   0.522400 0.640310 0.540110 -0.465785
O22   O     O_R   0.675940 0.500630 0.542210 -0.527831
O23   O     O_R   0.641790 0.337020 0.538150 -0.503146
O24   O     O_R   0.500260 0.324550 0.456580 -0.459636
O25   O     O_R   0.336660 0.522040 0.461020 -0.461168
O26   O     O_R   0.322940 0.675540 0.458880 -0.518662
N5    N     N_3   0.815889 0.540912 0.581397 -0.639074
H20   H     H_    0.800409 0.583367 0.556253 0.236551
H21   H     H_    0.830525 0.467317 0.574617 0.252175
N6    N     N_2   0.833217 0.184848 0.660035 -0.507204
H22   H     H_    0.853145 0.149003 0.686230 0.259655
C117  C     C_3   0.853212 0.268760 0.657165 -0.309656
H23   H     H_    0.924102 0.250128 0.672978 0.127455
H24   H     H_    0.788823 0.339166 0.669791 0.164862
H25   H     H_    0.864668 0.282388 0.626765 0.144923
N7    N     N_3   0.621485 0.366367 0.715691 -0.632263
H26   H     H_    0.548833 0.416827 0.726674 0.243891
H27   H     H_    0.670348 0.393369 0.724016 0.261638
N8    N     N_3   0.644262 0.345426 0.796452 -0.626884
H28   H     H_    0.586999 0.357657 0.816200 0.238015
H29   H     H_    0.709843 0.329536 0.811799 0.231778
N9    N     N_3   0.733608 0.001840 0.701250 -0.643805
H30   H     H_    0.687341 0.971344 0.708802 0.233145
H31   H     H_    0.809744 0.946543 0.705474 0.249225
N10   N     N_3   0.740611 0.982653 0.783671 -0.620367
H32   H     H_    0.683406 0.965546 0.776799 0.237445
H33   H     H_    0.809524 0.924813 0.772361 0.249787
N11   N     N_3   0.499123 0.202227 0.673986 -0.646749
H34   H     H_    0.528459 0.134847 0.689600 0.238071
H35   H     H_    0.473689 0.263733 0.693270 0.226134
N12   N     N_2   0.493843 0.188377 0.590364 -0.481495
H36   H     H_    0.508039 0.174928 0.561310 0.259868
C118  C     C_3   0.469713 0.114253 0.606219 -0.288735
H37   H     H_    0.441144 0.083597 0.583162 0.105841
H38   H     H_    0.407391 0.151344 0.627808 0.186848
H39   H     H_    0.538459 0.048952 0.618884 0.160155
N13   N     N_3   0.875032 0.130168 0.836157 -0.670316
H40   H     H_    0.882063 0.187037 0.850856 0.217594
H41   H     H_    0.862988 0.151434 0.807363 0.229089
N14   N     N_2   0.442442 0.729367 0.603946 -0.470439
H42   H     H_    0.391278 0.723134 0.621626 0.253935
C119  C     C_3   0.404274 0.831591 0.589625 -0.283030
H43   H     H_    0.397742 0.884360 0.613334 0.113684
H44   H     H_    0.327724 0.859339 0.576885 0.137731
H45   H     H_    0.455927 0.832089 0.566966 0.150937
N15   N     N_3   0.166579 0.814704 0.919635 -0.605596
H46   H     H_    0.122659 0.885527 0.906656 0.228243
H47   H     H_    0.243150 0.796036 0.919238 0.226708
N16   N     N_2   0.111962 0.521322 0.917667 -0.477520
H48   H     H_    0.124491 0.523574 0.946668 0.253800
C120  C     C_3   0.166226 0.416198 0.904012 -0.286496
H49   H     H_    0.178510 0.363804 0.928202 0.109760
H50   H     H_    0.242170 0.396319 0.891948 0.147153
H51   H     H_    0.120008 0.402842 0.882463 0.182896
N17   N     N_2   0.246200 0.457610 0.671011 -0.530963
H52   H     H_    0.298956 0.389479 0.658279 0.266993
C121  C     C_3   0.151255 0.460311 0.679405 -0.313158
H53   H     H_    0.166999 0.391129 0.695662 0.135912
H54   H     H_    0.112121 0.461810 0.652180 0.142819
H55   H     H_    0.100420 0.528390 0.697253 0.166755
N18   N     N_2   0.353654 0.487824 0.797063 -0.522523
H56   H     H_    0.351016 0.495625 0.826546 0.248534
C122  C     C_3   0.385010 0.384448 0.784599 -0.303823
H57   H     H_    0.443440 0.329540 0.804455 0.129192
H58   H     H_    0.419563 0.368981 0.755449 0.157305
H59   H     H_    0.319041 0.371167 0.784731 0.137876
N19   N     N_2   0.235766 0.770172 0.841528 -0.522261
H60   H     H_    0.206596 0.845684 0.849265 0.242031
C123  C     C_3   0.345526 0.714407 0.836284 -0.288996
H61   H     H_    0.380925 0.750178 0.853890 0.124243
H62   H     H_    0.363935 0.716823 0.805553 0.166685
H63   H     H_    0.379645 0.633329 0.844883 0.156461
N20   N     N_3   0.014815 0.788333 0.713396 -0.626642
H64   H     H_    0.019175 0.768044 0.684442 0.230153
H65   H     H_    0.954295 0.780729 0.724151 0.232593
N21   N     N_2   0.017702 0.805149 0.793216 -0.517906
H66   H     H_    0.993877 0.789008 0.818652 0.251105
C124  C     C_3   0.016631 0.901660 0.793550 -0.248352
H67   H     H_    0.022510 0.923881 0.823561 0.162484
H68   H     H_    0.944128 0.961509 0.781153 0.178056
H69   H     H_    0.080686 0.898066 0.776465 0.159349
N22   N     N_3   0.846231 0.515263 0.911729 -0.596418
H70   H     H_    0.829905 0.455695 0.910129 0.219792
H71   H     H_    0.915942 0.491037 0.897707 0.236129
N23   N     N_2   0.111815 0.525448 0.833611 -0.525642
H72   H     H_    0.154442 0.493700 0.809039 0.252934
C125  C     C_3   0.003492 0.568894 0.827210 -0.305533
H73   H     H_    0.988817 0.510498 0.813768 0.139764
H74   H     H_    0.975533 0.634978 0.807638 0.150948
H75   H     H_    0.960530 0.594096 0.854807 0.182686
N24   N     N_3   0.513636 0.832521 0.071549 -0.618116
H76   H     H_    0.467481 0.904895 0.083347 0.228197
H77   H     H_    0.466439 0.802039 0.065286 0.239505
N25   N     N_2   0.842894 0.538311 0.095953 -0.473097
H78   H     H_    0.843206 0.469909 0.096980 0.256625
C126  C     C_3   0.938420 0.528608 0.108505 -0.259876
H79   H     H_    0.000745 0.470496 0.090205 0.132167
H80   H     H_    0.954936 0.501467 0.138429 0.153289
H81   H     H_    0.937216 0.602487 0.106108 0.169332
N26   N     N_2   0.611224 0.504965 0.277083 -0.486000
H82   H     H_    0.580548 0.515004 0.304335 0.258263
C127  C     C_3   0.711748 0.416241 0.273993 -0.306171
H83   H     H_    0.712063 0.349976 0.287310 0.164526
H84   H     H_    0.768614 0.430246 0.288979 0.118454
H85   H     H_    0.733802 0.397636 0.243380 0.145604
N27   N     N_2   0.446025 0.813480 0.146240 -0.510000
H86   H     H_    0.419994 0.774924 0.162888 0.266194
C128  C     C_3   0.404630 0.919441 0.157447 -0.298001
H87   H     H_    0.381048 0.930310 0.188185 0.146517
H88   H     H_    0.336643 0.967584 0.139735 0.133149
H89   H     H_    0.461118 0.945241 0.153532 0.159700
N28   N     N_2   0.844464 0.572863 0.659146 -0.495032
H90   H     H_    0.884042 0.597385 0.642247 0.270370
C129  C     C_3   0.904914 0.465792 0.668214 -0.296640
H91   H     H_    0.930105 0.418692 0.641471 0.145349
H92   H     H_    0.861107 0.441242 0.686418 0.168719
H93   H     H_    0.972854 0.452725 0.684717 0.131418
N29   N     N_2   0.591082 0.854902 0.210858 -0.521301
H94   H     H_    0.544942 0.920325 0.226583 0.241979
C130  C     C_3   0.687924 0.846937 0.201710 -0.331576
H95   H     H_    0.732369 0.835498 0.228419 0.127497
H96   H     H_    0.674578 0.918361 0.187992 0.140533
H97   H     H_    0.731777 0.783259 0.181109 0.151683
N30   N     N_3   0.430561 0.768869 0.325106 -0.647288
H98   H     H_    0.383460 0.737077 0.328292 0.215987
H99   H     H_    0.393347 0.843107 0.336385 0.225372
N31   N     N_2   0.426281 0.752035 0.406130 -0.470117
H100  H     H_    0.363247 0.758936 0.392081 0.245760
C131  C     C_3   0.409078 0.847163 0.423148 -0.284052
H101  H     H_    0.401221 0.901681 0.400412 0.112408
H102  H     H_    0.473255 0.833848 0.442300 0.150888
H103  H     H_    0.337861 0.881457 0.440607 0.129022
N32   N     N_2   0.783927 0.522750 0.170273 -0.524743
H104  H     H_    0.755016 0.474310 0.173230 0.235607
C132  C     C_3   0.831552 0.534314 0.204692 -0.316691
H105  H     H_    0.809395 0.505742 0.230036 0.131800
H106  H     H_    0.809226 0.615028 0.210503 0.153259
H107  H     H_    0.915602 0.487980 0.201714 0.139319
N33   N     N_2   0.799362 0.548739 0.407240 -0.502572
H108  H     H_    0.837605 0.588551 0.403017 0.245928
C133  C     C_3   0.866380 0.440188 0.402803 -0.301389
H109  H     H_    0.896356 0.421457 0.372888 0.112962
H110  H     H_    0.825463 0.398712 0.410286 0.173903
H111  H     H_    0.931898 0.415048 0.422625 0.139449
N34   N     N_2   0.841349 0.138127 0.076877 -0.495775
H112  H     H_    0.832513 0.210160 0.074768 0.254244
C134  C     C_3   0.946639 0.058761 0.080729 -0.256813
H113  H     H_    0.979110 0.027993 0.051824 0.170269
H114  H     H_    0.952376 0.995882 0.098656 0.153312
H115  H     H_    0.992100 0.090111 0.094167 0.111502
N35   N     N_2   0.521995 0.144010 0.092469 -0.496154
H116  H     H_    0.460152 0.216622 0.095257 0.237716
C135  C     C_3   0.496883 0.064280 0.097298 -0.273521
H117  H     H_    0.433993 0.088879 0.118605 0.095082
H118  H     H_    0.564121 0.991767 0.106665 0.167686
H119  H     H_    0.470117 0.050967 0.069318 0.167978
N36   N     N_3   0.531418 0.327862 0.290180 -0.599448
H120  H     H_    0.486319 0.301676 0.302969 0.237712
H121  H     H_    0.560521 0.354806 0.311687 0.235782
N37   N     N_3   0.543711 0.342059 0.211947 -0.594857
H122  H     H_    0.474056 0.343956 0.214581 0.247750
H123  H     H_    0.558538 0.343855 0.182750 0.213282
N38   N     N_2   0.476834 0.737162 0.683703 -0.502712
H124  H     H_    0.413637 0.802064 0.674062 0.251538
C136  C     C_3   0.451769 0.666688 0.702065 -0.296098
H125  H     H_    0.427066 0.629045 0.680392 0.139267
H126  H     H_    0.388647 0.708757 0.723064 0.145133
H127  H     H_    0.518619 0.607448 0.717807 0.177969
N39   N     N_2   0.845788 0.178743 0.155425 -0.504535
H128  H     H_    0.916394 0.115126 0.159176 0.266623
C137  C     C_3   0.820610 0.264925 0.180433 -0.316303
H129  H     H_    0.870054 0.297246 0.172902 0.147175
H130  H     H_    0.835934 0.239430 0.210717 0.139327
H131  H     H_    0.739494 0.325026 0.177194 0.146215
N40   N     N_3   0.848998 0.988786 0.287765 -0.648158
H132  H     H_    0.843577 0.925968 0.278041 0.222145
H133  H     H_    0.837971 0.992095 0.317461 0.254252
N41   N     N_2   0.867226 0.015193 0.208501 -0.515158
H134  H     H_    0.933362 0.989727 0.224107 0.271906
C138  C     C_3   0.863362 0.933854 0.188036 -0.322099
H135  H     H_    0.934551 0.890242 0.170986 0.136557
H136  H     H_    0.798700 0.963547 0.167765 0.150600
H137  H     H_    0.856031 0.883219 0.208889 0.134020
N42   N     N_2   0.837566 0.184516 0.335751 -0.510405
H138  H     H_    0.847031 0.170994 0.306608 0.264256
C139  C     C_3   0.874904 0.250484 0.349318 -0.344871
H139  H     H_    0.936321 0.243904 0.329860 0.125827
H140  H     H_    0.908349 0.227088 0.378353 0.151262
H141  H     H_    0.811892 0.330888 0.349523 0.141756
N43   N     N_3   0.533709 0.155967 0.174899 -0.651435
H142  H     H_    0.462572 0.208174 0.164038 0.224865
H143  H     H_    0.539402 0.084193 0.174543 0.232352
N44   N     N_3   0.495378 0.189565 0.407585 -0.610316
H144  H     H_    0.525465 0.137749 0.430124 0.229691
H145  H     H_    0.461755 0.160936 0.388633 0.207189
N45   N     N_2   0.159487 0.519453 0.076820 -0.543433
H146  H     H_    0.097622 0.528472 0.061500 0.266157
C140  C     C_3   0.249636 0.484274 0.053056 -0.309616
H147  H     H_    0.262502 0.416063 0.036170 0.134441
H148  H     H_    0.317745 0.462572 0.071195 0.157625
H149  H     H_    0.239802 0.544972 0.032817 0.142373
N46   N     N_2   0.087491 0.832379 0.339849 -0.468085
H150  H     H_    0.042239 0.833231 0.317528 0.261009
C141  C     C_3   0.131789 0.896446 0.332724 -0.283777
H151  H     H_    0.187609 0.864566 0.308625 0.125091
H152  H     H_    0.170540 0.903235 0.358753 0.159724
H153  H     H_    0.070533 0.974080 0.324873 0.165165
N47   N     N_3   0.326315 0.682415 0.204483 -0.657021
H154  H     H_    0.366894 0.704944 0.222611 0.236947
H155  H     H_    0.379500 0.612004 0.192431 0.234661
N48   N     N_2   0.208117 0.477647 0.155402 -0.483480
H156  H     H_    0.178804 0.437211 0.141595 0.266159
C142  C     C_3   0.315100 0.416723 0.163926 -0.316294
H157  H     H_    0.325292 0.356257 0.184205 0.139169
H158  H     H_    0.344401 0.463547 0.177671 0.155664
H159  H     H_    0.359157 0.381592 0.137105 0.128825
N49   N     N_2   0.055304 0.590045 0.211042 -0.498135
H160  H     H_    0.043282 0.539829 0.227077 0.235889
C143  C     C_3   0.961610 0.672181 0.196226 -0.334384
H161  H     H_    0.924440 0.641011 0.177582 0.140281
H162  H     H_    0.976637 0.722841 0.178026 0.153021
H163  H     H_    0.909863 0.715439 0.220469 0.119591
N50   N     N_2   0.296980 0.460678 0.319242 -0.522281
H164  H     H_    0.319462 0.467419 0.291950 0.281471
C144  C     C_3   0.243739 0.403243 0.320850 -0.324076
H165  H     H_    0.197388 0.416721 0.294528 0.134148
H166  H     H_    0.192475 0.424722 0.346396 0.143613
H167  H     H_    0.300516 0.320666 0.322384 0.141957
N51   N     N_3   0.364942 0.437224 0.394670 -0.548116
H168  H     H_    0.428970 0.409446 0.376667 0.246289
H169  H     H_    0.334400 0.388696 0.392550 0.258869
N52   N     N_3   0.138511 0.808806 0.417928 -0.599231
H170  H     H_    0.193638 0.827160 0.426564 0.239434
H171  H     H_    0.109316 0.791381 0.442157 0.230412
N53   N     N_2   0.551519 0.867110 0.908543 -0.485527
H172  H     H_    0.516609 0.928856 0.890496 0.239507
C145  C     C_3   0.478973 0.857980 0.932978 -0.286520
H173  H     H_    0.429910 0.931852 0.948013 0.134922
H174  H     H_    0.429813 0.837965 0.915440 0.118472
H175  H     H_    0.519055 0.798563 0.955032 0.160490

loop_
_geom_bond_atom_site_label_1
_geom_bond_atom_site_label_2
_ccdc_geom_bond_type
Cr3   O4    S    
N36   H121  S    
C80   H10   S    
Cr3   O22   S    
C120  H51   S    
C87   C88   A    
C105  N44   S    
C114  C115  A    
C39   C41   A    
N49   H160  S    
C38   N7    S    
C87   H8    S    
C67   N17   S    
N52   H171  S    
C5    C6    A    
C54   C63   S    
N23   C125  S    
N27   H86   S    
C128  H89   S    
C41   N9    S    
C34   C35   A    
C9    N51   S    
C61   C63   A    
C110  C111  A    
C18   O14   A    
C46   C47   A    
Cr1   O25   S    
N5    H21   S    
C119  H45   S    
C50   C52   A    
C4    C12   S    
N11   H34   S    
C141  H153  S    
C83   C88   A    
C59   C60   A    
C20   O13   A    
Cr4   O13   S    
C23   N2    A    
C17   O6    A    
C123  H62   S    
C122  H57   S    
N7    H27   S    
C61   N21   S    
N20   H65   S    
Cr5   O9    S    
N40   H132  S    
N6    C117  S    
N12   H36   S    
C144  H166  S    
Cr3   O3    S    
N7    H26   S    
C20   O18   A    
Cr1   O1    S    
C123  H63   S    
C29   O21   A    
C75   C76   A    
C37   C38   A    
C42   N10   S    
N6    H22   S    
Cr5   O16   S    
C16   O10   A    
N19   C123  S    
C133  H109  S    
C26   C27   A    
C13   C21   A    
C120  H49   S    
C138  H137  S    
C94   C96   A    
N13   H41   S    
N38   C136  S    
C86   N33   S    
N32   H104  S    
N5    H20   S    
C97   N37   S    
C132  H105  S    
C135  H119  S    
C78   C79   A    
C4    C5    A    
N25   C126  S    
C143  H162  S    
C8    N50   S    
C6    C7    A    
N3    N4    A    
C75   N32   S    
N31   C131  S    
C130  H96   S    
C64   C65   A    
Cr5   O19   S    
C77   C82   A    
C26   N53   S    
C33   C34   A    
C129  H92   S    
N51   H168  S    
C6    N49   S    
C98   C99   A    
C31   C36   A    
C118  H38   S    
C142  H157  S    
C122  H59   S    
C44   C48   A    
C125  H73   S    
C26   C30   A    
N42   H138  S    
Cr6   O10   S    
C139  H139  S    
C81   N29   S    
C97   C98   A    
C83   N30   S    
C139  H141  S    
C53   C54   A    
C99   C108  S    
C105  C107  A    
C104  H12   S    
C64   C68   A    
Cr2   O2    S    
C120  H50   S    
C3    C116  A    
C38   C39   A    
C127  H85   S    
N16   C120  S    
C92   N39   S    
C16   C30   S    
C40   C49   S    
Cr6   O19   S    
N8    H28   S    
N21   H66   S    
C77   H9    S    
N37   H123  S    
N19   H60   S    
C135  H118  S    
C99   C100  A    
C134  H114  S    
N50   H164  S    
C117  H24   S    
N24   H77   S    
C107  C108  A    
C95   N5    S    
C56   N16   S    
C132  H107  S    
C64   H5    S    
C45   N12   S    
N33   C133  S    
C66   C67   A    
C62   O3    A    
N28   H90   S    
C94   N43   S    
C137  H131  S    
N17   H52   S    
N48   C142  S    
C57   C63   A    
N14   C119  S    
C29   C84   S    
C10   C14   A    
C91   C92   A    
N39   H128  S    
C121  H55   S    
C2    C106  A    
C50   C56   A    
C84   C95   A    
C7    C116  A    
N44   H145  S    
C95   C106  A    
C33   H2    S    
C31   C32   A    
C8    C12   A    
C124  H69   S    
C22   N1    A    
N30   H98   S    
C103  N42   S    
C121  H54   S    
N26   C127  S    
C125  H75   S    
C20   C110  S    
N43   H143  S    
C58   H4    S    
N41   C138  S    
C16   O9    A    
C140  H149  S    
C3    C4    A    
C116  N47   S    
C145  H173  S    
C85   N31   S    
C105  C109  A    
C54   C55   A    
Cr4   O6    S    
Cr5   O15   S    
C111  N45   S    
C100  N40   S    
C34   C43   S    
C24   C28   A    
N38   H124  S    
C126  H81   S    
C127  H83   S    
C15   C31   S    
Cr2   O20   S    
Cr6   O17   S    
C134  H115  S    
C40   O1    A    
C71   C72   A    
N52   H170  S    
C57   C58   A    
C115  H13   S    
Cr3   O23   S    
N20   H64   S    
C100  C101  A    
C128  H88   S    
C15   O8    A    
C18   O15   A    
C10   C11   A    
Cr4   O19   S    
C53   N19   S    
Cr1   O24   S    
N18   H56   S    
C2    C23   S    
C119  H44   S    
C47   N6    S    
C141  H152  S    
C10   N52   S    
C55   C56   A    
C101  C102  A    
C41   C42   A    
C46   H3    S    
C35   C36   A    
C137  H129  S    
C122  H58   S    
C77   C78   A    
C52   C53   A    
N45   C140  S    
C46   C49   A    
C44   N11   S    
N10   H32   S    
C136  H126  S    
N40   H133  S    
N47   H155  S    
C131  H101  S    
C124  H67   S    
C62   C89   S    
N35   C135  S    
C19   O16   A    
Cr2   O5    S    
C15   O7    A    
C103  C108  A    
C111  C112  A    
C136  H127  S    
C72   N27   S    
C133  H110  S    
C140  H147  S    
C70   C71   A    
C3    H15   S    
C138  H136  S    
C96   N35   S    
C97   C102  A    
C66   H7    S    
Cr3   O5    S    
N36   H120  S    
C22   C28   S    
N32   C132  S    
C74   C82   S    
C79   C88   S    
C132  H106  S    
N34   C134  S    
N22   H71   S    
C76   N25   S    
C133  H111  S    
C119  H43   S    
C18   C90   S    
C78   N26   S    
C36   H1    S    
C131  H103  S    
C72   C74   A    
N13   H40   S    
C85   C89   A    
C86   C87   A    
N53   H172  S    
C58   C59   A    
C1    C69   S    
C67   C68   A    
C60   C61   A    
C37   C43   A    
C9    C14   A    
C65   H6    S    
C130  H95   S    
C14   C51   S    
C21   C84   A    
C45   C49   A    
N22   H70   S    
C55   N23   S    
N46   C141  S    
C106  N28   S    
C90   C96   A    
C32   H19   S    
N51   H169  S    
C137  H130  S    
C83   C85   A    
C23   N3    A    
C42   C43   A    
C142  H158  S    
C44   C45   A    
C125  H74   S    
C113  C114  A    
C91   N34   S    
C25   C30   A    
N34   H112  S    
N10   H33   S    
C73   O4    A    
Cr6   O11   S    
C51   O25   A    
C86   C89   A    
C93   C102  S    
C139  H140  S    
C35   N13   S    
C73   C109  S    
C144  H165  S    
C32   C33   A    
C29   O22   A    
C142  H159  S    
Cr5   O8    S    
C129  H91   S    
N9    H30   S    
C107  H11   S    
C136  H125  S    
C127  H84   S    
C90   C91   A    
C126  H79   S    
C65   C69   A    
C1    O12   A    
C92   C93   A    
N8    H29   S    
N37   H122  S    
N50   C144  S    
C117  H23   S    
C103  C104  A    
C112  N48   S    
N1    N2    A    
N35   H116  S    
C17   O11   A    
C110  C115  A    
C19   O17   A    
C39   C48   S    
N41   H134  S    
C93   C94   A    
N29   C130  S    
N46   H150  S    
C143  H161  S    
C144  H167  S    
N17   C121  S    
C81   C82   A    
C5    H16   S    
N14   H42   S    
C134  H113  S    
C101  N41   S    
N31   H100  S    
C130  H97   S    
C104  C109  A    
N9    H31   S    
N39   C137  S    
C66   C69   A    
C129  H93   S    
C21   N14   S    
C2    C13   A    
N43   H142  S    
C8    C9    A    
C124  H68   S    
Cr4   O14   S    
C118  H37   S    
C13   N38   S    
N26   H82   S    
N42   C139  S    
Cr2   O26   S    
C140  H148  S    
N44   H144  S    
C112  C113  A    
C145  H174  S    
Cr4   O7    S    
C40   O23   A    
C74   C75   A    
Cr1   O12   S    
C24   C25   A    
N53   C145  S    
C126  H80   S    
N16   H48   S    
N11   H35   S    
C37   N8    S    
Cr2   O21   S    
Cr6   O18   S    
N21   C124  S    
N15   H46   S    
C135  H117  S    
C59   C68   S    
C52   N15   S    
C145  H175  S    
C47   C48   A    
C22   N4    A    
C1    O20   A    
C117  H25   S    
N24   H76   S    
C118  H39   S    
C128  H87   S    
C114  H17   S    
Cr1   O5    S    
C57   N18   S    
C25   N22   S    
N33   H108  S    
N15   H47   S    
N18   C122  S    
C62   O2    A    
N28   C129  S    
C70   C76   A    
C60   N20   S    
N25   H78   S    
C143  H163  S    
N29   H94   S    
N48   H156  S    
C141  H151  S    
N27   C128  S    
N49   C143  S    
C80   C81   A    
C17   C50   S    
C11   C12   A    
N45   H146  S    
C27   H18   S    
C7    C113  S    
C51   O26   A    
N47   H154  S    
C131  H102  S    
C24   H14   S    
N30   H99   S    
C121  H53   S    
C71   N24   S    
N23   H72   S    
N12   C118  S    
C11   N46   S    
C79   C80   A    
C98   N36   S    
C123  H61   S    
C27   C28   A    
C19   C70   S    
C138  H135  S    
C73   O24   A    
