data_mof_unit_46696.cif
_audit_creation_date              2012-12-11T15:17:59-0500
_audit_creation_method            fapswitch 2.2
_symmetry_space_group_name_H-M    P1
_symmetry_Int_Tables_number       1
_space_group_crystal_system       triclinic
_cell_length_a                    15.658136
_cell_length_b                    15.651895
_cell_length_c                    34.391776
_cell_angle_alpha                 89.973492
_cell_angle_beta                  89.91226
_cell_angle_gamma                 119.546782
_cell_volume                      7332.57672978

loop_
_atom_site_label
_atom_site_type_symbol
_atom_type_description
_atom_site_fract_x
_atom_site_fract_y
_atom_site_fract_z
_atom_type_partial_charge
C1    C     C_R   0.576833 0.442674 0.554280 0.551279
C2    C     C_R   0.508125 0.992239 0.210538 0.376488
C3    C     C_3   0.644691 0.653252 0.586099 -0.240804
C4    C     C_3   0.601721 0.722727 0.589223 -0.309162
C5    C     C_3   0.661620 0.816288 0.565523 -0.441452
C6    C     C_3   0.346844 0.986959 0.573457 -0.228638
C7    C     C_3   0.247243 0.895780 0.582558 -0.312711
C8    C     C_3   0.171282 0.879656 0.551452 -0.446668
C9    C     C_3   0.353580 0.008115 0.086147 -0.240167
C10   C     C_3   0.395969 0.119987 0.088393 -0.308727
C11   C     C_3   0.334645 0.152665 0.064756 -0.445401
C12   C     C_3   0.649071 0.648460 0.090992 -0.241439
C13   C     C_R   0.468356 0.507866 0.215326 0.376477
C14   C     C_3   0.717369 0.605047 0.097148 -0.309284
C15   C     C_3   0.813307 0.662640 0.074605 -0.439923
C16   C     C_3   0.983324 0.349765 0.074621 -0.230568
C17   C     C_3   0.891113 0.251686 0.084522 -0.311167
C18   C     C_3   0.871092 0.174311 0.053503 -0.445800
C19   C     C_3   0.973895 0.661474 0.845269 -0.245863
C20   C     C_3   0.059733 0.763232 0.835044 -0.287794
C21   C     C_3   0.022895 0.831753 0.820946 -0.432505
C22   C     C_3   0.314277 0.329123 0.840159 -0.243869
C23   C     C_3   0.222769 0.336976 0.830241 -0.287397
C24   C     C_R   0.929482 0.483498 0.200401 0.361517
C25   C     C_3   0.142062 0.241370 0.812985 -0.434397
C26   C     C_3   0.623122 0.915116 0.827599 -0.243165
C27   C     C_3   0.644524 0.831587 0.818510 -0.287419
C28   C     C_3   0.746588 0.870636 0.800928 -0.431151
C29   C     C_3   0.681763 0.005355 0.340352 -0.251468
C30   C     C_3   0.639007 0.896343 0.330049 -0.278613
C31   C     C_3   0.717459 0.876764 0.312768 -0.432340
C32   C     C_3   0.310740 0.336447 0.347015 -0.248786
C33   C     C_3   0.247148 0.385005 0.341004 -0.284123
C34   C     C_3   0.143184 0.309937 0.328574 -0.431781
C35   C     C_R   0.022471 0.443730 0.850128 -0.133871
C36   C     C_3   0.808182 0.575620 0.322530 -0.247554
C37   C     C_3   0.896392 0.677607 0.330120 -0.289278
C38   C     C_3   0.878783 0.757978 0.313564 -0.438083
C39   C     C_R   0.557076 0.573081 0.850575 -0.140367
C40   C     C_R   0.345125 0.823066 0.834055 -0.124976
C41   C     C_R   0.446925 0.025808 0.349569 -0.129249
C42   C     C_R   0.566933 0.566132 0.353918 -0.146802
C43   C     C_R   0.846431 0.352725 0.335101 -0.127662
C44   C     C_R   0.059181 0.454668 0.887506 -0.140065
C45   C     C_R   0.557656 0.134902 0.554535 0.553975
C46   C     C_R   0.548324 0.597437 0.888621 -0.145819
C47   C     C_R   0.331048 0.809889 0.874046 -0.141076
C48   C     C_R   0.454754 0.056703 0.387777 -0.138012
C49   C     C_R   0.595398 0.552835 0.390581 -0.153424
C50   C     C_R   0.835499 0.339597 0.375221 -0.137648
C51   C     C_R   0.049460 0.603214 0.895316 -0.130906
C52   C     C_R   0.388622 0.452145 0.893344 -0.118852
C53   C     C_R   0.502344 0.858389 0.882075 -0.112823
C54   C     C_R   0.610252 0.060080 0.393529 -0.125507
C55   C     C_R   0.445021 0.397911 0.396632 -0.118634
C56   C     C_R   0.865380 0.422868 0.554479 0.562523
C57   C     C_R   0.813809 0.481890 0.380355 -0.121262
C58   C     C_R   0.009843 0.591921 0.857789 -0.001597
C59   C     C_R   0.396227 0.426091 0.855025 -0.000022
C60   C     C_R   0.518638 0.874479 0.841930 -0.003465
C61   C     C_R   0.602885 0.026965 0.355050 0.000806
C62   C     C_R   0.413974 0.410792 0.359823 0.003543
C63   C     C_R   0.823943 0.495710 0.339974 -0.000650
C64   C     C_R   0.002041 0.514129 0.833965 0.042857
C65   C     C_R   0.479405 0.491109 0.832419 0.043592
C66   C     C_R   0.438263 0.855816 0.817292 0.043696
C67   C     C_R   0.441992 0.577432 0.054810 0.548535
C68   C     C_R   0.522650 0.016018 0.331876 0.044117
C69   C     C_R   0.480224 0.492692 0.336722 0.044412
C70   C     C_R   0.843400 0.431793 0.317162 0.048539
C71   C     C_R   0.077677 0.536999 0.909655 0.009264
C72   C     C_R   0.461845 0.540016 0.909511 0.011778
C73   C     C_R   0.409588 0.828260 0.898409 0.010742
C74   C     C_R   0.538921 0.079376 0.409300 0.010217
C75   C     C_R   0.537605 0.465876 0.411130 0.011652
C76   C     C_R   0.821974 0.405794 0.398314 0.006573
C77   C     C_R   0.577837 0.442627 0.445621 0.537766
C78   C     C_R   0.135526 0.558083 0.054730 0.552764
C79   C     C_R   0.557969 0.135553 0.445499 0.540999
C80   C     C_R   0.809029 0.391734 0.440718 0.571055
C81   C     C_R   0.442294 0.577939 0.945489 0.540462
C82   C     C_R   0.135742 0.557905 0.945432 0.539995
C83   C     C_R   0.392774 0.810363 0.940497 0.567373
C84   C     C_R   0.921112 0.459595 0.591178 -0.036763
C85   C     C_R   0.538546 0.463610 0.590271 -0.036790
C86   C     C_R   0.531396 0.066241 0.587869 -0.039497
C87   C     C_R   0.461139 0.924765 0.090093 -0.036069
C88   C     C_R   0.459489 0.542426 0.092445 -0.037688
C89   C     C_R   0.423091 0.865973 0.054201 0.562481
C90   C     C_R   0.070176 0.534353 0.088970 -0.038844
C91   C     C_R   0.968883 0.413933 0.610081 -0.019239
C92   C     C_R   0.582310 0.557870 0.608034 -0.015569
C93   C     C_R   0.432326 0.001612 0.599237 -0.020427
C94   C     C_R   0.417436 0.975917 0.107864 -0.018978
C95   C     C_R   0.551598 0.588283 0.111839 -0.016140
C96   C     C_R   0.002582 0.436496 0.100598 -0.023028
C97   C     C_R   0.986100 0.428681 0.650253 -0.156670
C98   C     C_R   0.566719 0.563164 0.647981 -0.151688
C99   C     C_R   0.415157 0.952402 0.635150 -0.153767
C100  C     C_R   0.975139 0.501069 0.712917 0.377207
C101  C     C_R   0.434258 0.997990 0.147647 -0.154725
C102  C     C_R   0.552715 0.576809 0.152369 -0.151285
C103  C     C_R   0.954616 0.421913 0.136767 -0.152572
C104  C     C_R   0.967249 0.495400 0.670451 0.027471
C105  C     C_R   0.500124 0.479666 0.668751 0.027905
C106  C     C_R   0.492821 0.961780 0.658295 0.023844
C107  C     C_R   0.501259 0.980637 0.168284 0.028588
C108  C     C_R   0.466971 0.512893 0.172723 0.027106
C109  C     C_R   0.970090 0.501432 0.160434 0.021218
C110  C     C_R   0.935608 0.552005 0.650100 0.378245
C111  C     C_R   0.493821 0.484247 0.711024 0.379121
C112  C     C_R   0.444858 0.390548 0.649314 0.377319
C113  C     C_R   0.589434 0.017134 0.644690 0.377418
C114  C     C_R   0.555958 0.945364 0.148774 0.377083
C115  C     C_R   0.379793 0.456210 0.152207 0.377182
C116  C     C_R   0.029941 0.597469 0.146592 0.375811
C117  C     C_R   0.911967 0.533515 0.610987 -0.107566
C118  C     C_R   0.464864 0.382461 0.610588 -0.110565
C119  C     C_R   0.608266 0.069247 0.610000 -0.108835
C120  C     C_R   0.535243 0.916808 0.110199 -0.108668
C121  C     C_R   0.376109 0.471546 0.112634 -0.108218
C122  C     C_R   0.472652 0.923056 0.698259 0.370287
C123  C     C_R   0.079385 0.613239 0.111489 -0.105218
C124  C     C_R   0.984354 0.508877 0.791617 0.325770
C125  C     C_R   0.484411 0.483270 0.789703 0.327033
C126  C     C_R   0.448262 0.874603 0.774823 0.328424
C127  C     C_R   0.517568 0.002600 0.289183 0.322313
C128  C     C_R   0.469129 0.499516 0.294162 0.321213
C129  C     C_R   0.868750 0.449923 0.275602 0.317931
C130  C     C_3   0.002466 0.350125 0.589147 -0.240981
C131  C     C_3   0.113707 0.391095 0.593498 -0.308006
C132  C     C_3   0.148110 0.329982 0.570640 -0.443314
Cr1   Cr    Cr6+3 0.522350 0.263930 0.500020 0.998883
Cr2   Cr    Cr6+3 0.736070 0.258420 0.500020 1.001165
Cr3   Cr    Cr6+3 0.741580 0.477650 0.500020 1.003272
Cr4   Cr    Cr6+3 0.263930 0.522350 0.000020 0.998311
Cr5   Cr    Cr6+3 0.258420 0.736070 0.000020 1.002655
Cr6   Cr    Cr6+3 0.477650 0.741580 0.000020 1.004255
F1    F     F_    0.918197 0.618396 0.668724 -0.610283
F2    F     F_    0.378674 0.308789 0.668674 -0.610274
F3    F     F_    0.666411 0.027643 0.666369 -0.613256
F4    F     F_    0.622338 0.928996 0.167921 -0.613684
F5    F     F_    0.295713 0.392335 0.170880 -0.610780
F6    F     F_    0.043936 0.677004 0.167419 -0.610345
H1    H     H_    0.879405 0.572651 0.597039 0.157597
H2    H     H_    0.397700 0.069364 0.399506 0.132666
H3    H     H_    0.738818 0.023534 0.363006 0.120542
H4    H     H_    0.144939 0.275292 0.300621 0.185674
H5    H     H_    0.107381 0.252142 0.351164 0.142065
H6    H     H_    0.098993 0.347112 0.324578 0.157544
H7    H     H_    0.243315 0.419874 0.368625 0.161685
H8    H     H_    0.279679 0.443023 0.318365 0.195187
H9    H     H_    0.312449 0.297000 0.320560 0.184599
H10   H     H_    0.274317 0.278335 0.369515 0.124164
H11   H     H_    0.866792 0.748736 0.281660 0.186885
H12   H     H_    0.813569 0.755016 0.327656 0.137737
H13   H     H_    0.666097 0.607990 0.401611 0.125915
H14   H     H_    0.943637 0.831008 0.319302 0.150793
H15   H     H_    0.909293 0.689658 0.361922 0.153202
H16   H     H_    0.963407 0.683221 0.316546 0.206252
H17   H     H_    0.792858 0.564605 0.290898 0.176331
H18   H     H_    0.741542 0.571140 0.335776 0.141375
H19   H     H_    0.838708 0.278157 0.388182 0.127335
H20   H     H_    0.014251 0.387821 0.665976 0.143486
H21   H     H_    0.606569 0.632681 0.663068 0.145313
H22   H     H_    0.341297 0.907788 0.646038 0.140866
H23   H     H_    0.394723 0.028608 0.162744 0.144227
H24   H     H_    0.620943 0.617540 0.168185 0.145241
H25   H     H_    0.907102 0.348447 0.147407 0.149993
H26   H     H_    0.016047 0.382716 0.833039 0.134181
H27   H     H_    0.427125 0.310258 0.597431 0.157061
H28   H     H_    0.622608 0.622830 0.834554 0.131060
H29   H     H_    0.282477 0.807701 0.816072 0.133608
H30   H     H_    0.383640 0.015739 0.333163 0.143181
H31   H     H_    0.617422 0.631309 0.337913 0.123668
H32   H     H_    0.860457 0.302565 0.318160 0.133263
H33   H     H_    0.060078 0.664950 0.913030 0.114571
H34   H     H_    0.323000 0.405426 0.909999 0.121283
H35   H     H_    0.563307 0.871315 0.900714 0.128506
H36   H     H_    0.673869 0.074712 0.410800 0.111848
H37   H     H_    0.398151 0.332927 0.413567 0.115882
H38   H     H_    0.684071 0.116137 0.601425 0.156263
H39   H     H_    0.798388 0.530417 0.397761 0.133874
H40   H     H_    0.109698 0.252758 0.581100 0.167357
H41   H     H_    0.133395 0.331457 0.539130 0.147731
H42   H     H_    0.228332 0.360743 0.574751 0.155653
H43   H     H_    0.153637 0.468046 0.582656 0.166858
H44   H     H_    0.133231 0.390991 0.624521 0.178126
H45   H     H_    0.962110 0.274399 0.601195 0.162831
H46   H     H_    0.987782 0.346199 0.557578 0.178066
H47   H     H_    0.738654 0.856020 0.576030 0.168474
H48   H     H_    0.660941 0.798331 0.534241 0.145079
H49   H     H_    0.572844 0.881645 0.097020 0.156666
H50   H     H_    0.629328 0.865148 0.568734 0.156599
H51   H     H_    0.524887 0.684815 0.578354 0.164612
H52   H     H_    0.601049 0.744106 0.619961 0.183026
H53   H     H_    0.720424 0.689691 0.598078 0.167541
H54   H     H_    0.648858 0.640420 0.554712 0.173936
H55   H     H_    0.160757 0.944712 0.549464 0.156227
H56   H     H_    0.195222 0.866573 0.522714 0.150529
H57   H     H_    0.099956 0.814447 0.559136 0.157325
H58   H     H_    0.255847 0.829439 0.583958 0.166588
H59   H     H_    0.218925 0.905466 0.610904 0.183234
H60   H     H_    0.305296 0.432424 0.098476 0.158559
H61   H     H_    0.338116 0.053093 0.575603 0.179031
H62   H     H_    0.365758 0.979642 0.542907 0.158963
H63   H     H_    0.334354 0.134007 0.033579 0.150872
H64   H     H_    0.257977 0.116360 0.075807 0.165970
H65   H     H_    0.366468 0.233448 0.067333 0.152357
H66   H     H_    0.397633 0.143380 0.118992 0.176100
H67   H     H_    0.472376 0.157795 0.076936 0.167724
H68   H     H_    0.347944 0.989659 0.054895 0.179174
H69   H     H_    0.278429 0.970017 0.098807 0.163577
H70   H     H_    0.798554 0.659773 0.042913 0.145034
H71   H     H_    0.128513 0.688406 0.102662 0.159597
H72   H     H_    0.852558 0.740446 0.084266 0.169584
H73   H     H_    0.861190 0.630045 0.079966 0.160031
H74   H     H_    0.735502 0.606542 0.128434 0.179133
H75   H     H_    0.680005 0.527383 0.087190 0.165994
H76   H     H_    0.639313 0.650306 0.059220 0.173480
H77   H     H_    0.684854 0.725152 0.102002 0.167133
H78   H     H_    0.857395 0.198377 0.024922 0.150581
H79   H     H_    0.934606 0.161481 0.050887 0.156530
H80   H     H_    0.805120 0.104131 0.061735 0.158414
H81   H     H_    0.901451 0.223383 0.112742 0.184513
H82   H     H_    0.078967 0.401531 0.898053 0.127780
H83   H     H_    0.826183 0.262490 0.086574 0.168074
H84   H     H_    0.974798 0.368963 0.044269 0.157808
H85   H     H_    0.048148 0.338715 0.075795 0.179064
H86   H     H_    0.977840 0.801761 0.794289 0.185605
H87   H     H_    0.978009 0.840917 0.843875 0.140421
H88   H     H_    0.086463 0.904889 0.814022 0.156133
H89   H     H_    0.106681 0.796275 0.861049 0.147921
H90   H     H_    0.105518 0.756638 0.811842 0.197415
H91   H     H_    0.922335 0.631163 0.820430 0.180526
H92   H     H_    0.930637 0.668741 0.869448 0.131000
H93   H     H_    0.606840 0.664750 0.900760 0.124653
H94   H     H_    0.167834 0.224012 0.785551 0.190368
H95   H     H_    0.120390 0.179995 0.833932 0.144566
H96   H     H_    0.076739 0.249091 0.806488 0.153074
H97   H     H_    0.194062 0.353985 0.856980 0.147880
H98   H     H_    0.241734 0.397366 0.809058 0.202199
H99   H     H_    0.338319 0.302384 0.814844 0.183913
H100  H     H_    0.295026 0.272220 0.863050 0.129929
H101  H     H_    0.752236 0.908845 0.773016 0.196550
H102  H     H_    0.803521 0.922465 0.821325 0.143259
H103  H     H_    0.760189 0.808512 0.795230 0.155831
H104  H     H_    0.258314 0.784249 0.885954 0.120897
H105  H     H_    0.640117 0.791798 0.845847 0.148511
H106  H     H_    0.589162 0.778482 0.797937 0.203465
H107  H     H_    0.638613 0.964532 0.802289 0.189048
H108  H     H_    0.675169 0.962697 0.850415 0.128383
H109  H     H_    0.748179 0.920512 0.285793 0.193650
H110  H     H_    0.777587 0.896204 0.334033 0.135127
H111  H     H_    0.684371 0.797733 0.305366 0.163478
H112  H     H_    0.608622 0.851040 0.356729 0.158126
H113  H     H_    0.578527 0.872681 0.308668 0.201094
H114  H     H_    0.721508 0.053508 0.315389 0.181172
N1    N     N_R   0.951843 0.422262 0.772648 -0.228531
N2    N     N_R   0.425705 0.963462 0.231968 -0.216170
N3    N     N_R   0.526076 0.589428 0.236428 -0.223817
N4    N     N_R   0.868657 0.390707 0.213328 -0.241212
N5    N     N_R   0.007362 0.587741 0.731698 -0.137041
N6    N     N_R   0.405994 0.436537 0.729454 -0.148848
N7    N     N_R   0.530264 0.892443 0.715925 -0.145921
N8    N     N_R   0.595371 0.026443 0.228961 -0.134436
N9    N     N_R   0.410678 0.422329 0.234242 -0.135904
N10   N     N_R   0.959107 0.558841 0.225934 -0.115595
N11   N     N_R   0.012951 0.591636 0.770304 -0.239031
N12   N     N_R   0.572179 0.531640 0.771038 -0.229776
N13   N     N_R   0.401475 0.437287 0.768041 -0.241285
N14   N     N_R   0.517570 0.867795 0.753401 -0.241889
N15   N     N_R   0.599971 0.032530 0.267530 -0.233460
N16   N     N_R   0.411950 0.418206 0.272831 -0.237562
N17   N     N_R   0.929617 0.542398 0.262764 -0.236883
N18   N     N_R   0.388674 0.902116 0.756706 -0.220768
N19   N     N_R   0.430415 0.968685 0.270527 -0.226345
N20   N     N_R   0.526514 0.585231 0.275051 -0.245321
N21   N     N_R   0.838992 0.374165 0.250236 -0.215995
N22   N     N_R   0.947120 0.418353 0.734070 -0.221597
N23   N     N_R   0.576856 0.532001 0.732439 -0.210814
N24   N     N_R   0.400594 0.925832 0.719201 -0.220944
O1    O     O_R   0.498680 0.159540 0.541860 -0.522163
O2    O     O_R   0.358060 0.532760 0.040030 -0.503860
O3    O     O_R   0.174700 0.641940 0.040030 -0.503092
O4    O     O_R   0.467240 0.825300 0.040030 -0.499049
O5    O     O_R   0.498590 0.161190 0.456930 -0.524090
O6    O     O_R   0.838810 0.337400 0.456930 -0.521587
O7    O     O_R   0.662600 0.501410 0.456930 -0.542335
O8    O     O_R   0.161190 0.498590 0.956930 -0.525168
O9    O     O_R   0.337400 0.838810 0.956930 -0.515556
O10   O     O_R   0.501410 0.662600 0.956930 -0.534075
O11   O     O_R   0.532680 0.359580 0.461300 -0.504793
O12   O     O_R   0.840460 0.339140 0.541860 -0.516554
O13   O     O_R   0.640420 0.173100 0.461300 -0.524102
O14   O     O_R   0.826900 0.467320 0.461300 -0.501754
O15   O     O_R   0.359580 0.532680 0.961300 -0.507283
O16   O     O_R   0.173100 0.640420 0.961300 -0.524269
O17   O     O_R   0.467320 0.826900 0.961300 -0.505284
O18   O     O_3   0.666667 0.333333 0.499990 -0.254620
O19   O     O_3   0.333333 0.666667 0.999990 -0.253938
O20   O     O_R   0.660860 0.501320 0.541860 -0.518968
O21   O     O_R   0.159540 0.498680 0.041860 -0.521281
O22   O     O_R   0.339140 0.840460 0.041860 -0.517267
O23   O     O_R   0.501320 0.660860 0.041860 -0.518924
O24   O     O_R   0.532760 0.358060 0.540030 -0.503443
O25   O     O_R   0.641940 0.174700 0.540030 -0.502452
O26   O     O_R   0.825300 0.467240 0.540030 -0.498192

loop_
_geom_bond_atom_site_label_1
_geom_bond_atom_site_label_2
_ccdc_geom_bond_type
C101  C107  A    
C41   H30   S    
C45   O1    A    
C30   H113  S    
C19   C20   S    
N1    N22   A    
C125  N13   A    
C37   H16   S    
C126  N14   A    
C87   C94   A    
C100  C104  S    
C6    H61   S    
C7    H59   S    
C89   O22   A    
C79   O13   A    
C54   C74   A    
Cr6   O23   S    
C34   H4    S    
C80   O14   A    
C16   H84   S    
N3    N20   A    
C84   C117  A    
Cr2   O6    S    
C86   C119  A    
C84   C91   A    
C78   O3    A    
C46   C72   A    
C95   C102  A    
C71   C82   S    
C88   C95   A    
C79   O5    A    
C39   C65   A    
C51   C71   A    
C22   H99   S    
C34   H5    S    
C19   C58   S    
C16   C96   S    
C48   C74   A    
C83   O9    A    
Cr4   O19   S    
C67   O2    A    
C9    H69   S    
Cr1   O1    S    
C70   C129  S    
C3    C92   S    
C28   H103  S    
C37   C38   S    
C52   C72   A    
C50   C76   A    
C5    H48   S    
C97   H20   S    
C26   C27   S    
Cr2   O18   S    
C18   H79   S    
Cr3   O7    S    
C32   H10   S    
C105  C112  A    
N6    N13   A    
C74   C79   S    
C87   C89   S    
C36   H17   S    
C45   O25   A    
C57   C76   A    
C56   O12   A    
C4    H52   S    
C126  N18   A    
C110  F1    S    
C102  H24   S    
C31   H110  S    
C4    C5    S    
C82   O16   A    
C6    C7    S    
C54   C61   A    
Cr6   O19   S    
C130  C131  S    
C27   H105  S    
C32   C62   S    
C104  C110  A    
N2    N19   A    
N18   N24   A    
C118  H27   S    
N4    N21   A    
Cr4   O2    S    
C81   O10   A    
C20   C21   S    
C35   H26   S    
C22   C23   S    
C14   H74   S    
C73   C83   S    
C130  H46   S    
C5    H50   S    
C131  H43   S    
C55   C62   A    
C115  C121  A    
C116  C123  A    
C12   H76   S    
C90   C123  A    
C112  F2    S    
C19   H92   S    
Cr4   O21   S    
C7    C8    S    
C108  C115  A    
C36   C37   S    
N7    N14   A    
C21   H86   S    
N8    N15   A    
C2    N8    A    
C16   H85   S    
Cr5   O22   S    
C116  F6    S    
C17   H81   S    
C10   H66   S    
C69   C128  S    
C49   C75   A    
C12   C95   S    
C23   H97   S    
C9    C10   S    
C55   C75   A    
C49   H13   S    
C11   H63   S    
C38   H11   S    
C127  N15   A    
C13   C108  S    
C53   H35   S    
C128  N20   A    
C85   C92   A    
Cr3   O26   S    
C57   C63   A    
C58   C64   A    
C29   C61   S    
C80   O6    A    
C106  C113  A    
C5    H47   S    
C33   H7    S    
C21   H88   S    
C66   C126  S    
Cr2   O12   S    
C29   C30   S    
C86   C93   A    
C106  C122  S    
C17   C18   S    
C28   H102  S    
C75   C77   S    
C26   H108  S    
C30   H112  S    
C1    O20   A    
C8    H56   S    
C3    C4    S    
Cr3   O20   S    
Cr4   O15   S    
C67   O23   A    
C99   C106  A    
C76   C80   S    
C132  H41   S    
C43   C50   A    
C90   C96   A    
C120  H49   S    
C31   H111  S    
C125  N12   A    
C37   H15   S    
C45   C86   S    
Cr4   O8    S    
C59   C65   A    
C17   H83   S    
Cr1   O18   S    
C113  F3    S    
C111  N6    A    
C6    H62   S    
C10   C11   S    
C77   O11   A    
N5    N11   A    
C20   H89   S    
C103  H25   S    
C14   C15   S    
C51   H33   S    
C44   H82   S    
C9    C94   S    
C83   O17   A    
C123  H71   S    
C4    H51   S    
C22   H100  S    
C34   H6    S    
C78   C90   S    
C67   C88   S    
C8    H57   S    
C30   C31   S    
C9    H68   S    
C3    H54   S    
C117  H1    S    
C46   H93   S    
Cr6   O10   S    
C109  C116  A    
C113  C119  A    
C16   C17   S    
Cr5   O19   S    
C15   H73   S    
C18   H80   S    
C93   C99   A    
C47   C73   A    
C72   C81   S    
C105  C111  S    
C60   C66   A    
C89   O4    A    
C40   C66   A    
C24   N10   A    
C36   H18   S    
C111  N23   A    
C110  C117  A    
C47   H104  S    
C56   C84   S    
C41   C68   A    
C78   O21   A    
C31   H109  S    
C38   H14   S    
C22   C59   S    
C62   C69   A    
C107  C114  A    
C39   H28   S    
C43   H32   S    
C100  N5    A    
C6    C93   S    
C51   C58   A    
C127  N19   A    
C122  N24   A    
C68   C127  S    
C128  N16   A    
C14   H75   S    
C129  N17   A    
C131  C132  S    
C50   H19   S    
C24   C109  S    
C15   H72   S    
C19   H91   S    
C29   H3    S    
C29   H114  S    
C103  C109  A    
C32   C33   S    
C64   C124  S    
C132  H40   S    
C25   H94   S    
C85   C118  A    
C18   H78   S    
C52   H34   S    
C97   C104  A    
C32   H9    S    
C10   H67   S    
C96   C103  A    
C24   N4    A    
C25   H95   S    
Cr6   O17   S    
C119  H38   S    
C114  C120  A    
C40   C47   A    
C2    N2    A    
N9    N16   A    
C38   H12   S    
C92   C98   A    
C91   C130  S    
C98   C105  A    
C114  F4    S    
C27   H106  S    
C7    H58   S    
C42   H31   S    
C77   O7    A    
C40   H29   S    
C21   H87   S    
C2    C107  S    
C44   C71   A    
C101  H23   S    
Cr5   O9    S    
Cr2   O13   S    
C82   O8    A    
C94   C101  A    
Cr1   O5    S    
C48   H2    S    
C102  C108  A    
C35   C64   A    
Cr1   O11   S    
C36   C63   S    
C130  H45   S    
C99   H22   S    
C131  H44   S    
C100  N22   A    
Cr5   O16   S    
C15   H70   S    
C13   N9    A    
C1    C85   S    
Cr1   O24   S    
C115  F5    S    
C124  N11   A    
C124  N1    A    
C56   O26   A    
C132  H42   S    
C25   H96   S    
C42   C69   A    
C91   C97   A    
C65   C125  S    
Cr3   O14   S    
C52   C59   A    
C81   O15   A    
Cr2   O25   S    
C63   C70   A    
Cr5   O3    S    
C53   C60   A    
C33   C34   S    
C55   H37   S    
C23   H98   S    
C35   C44   A    
C39   C46   A    
C12   C14   S    
C43   C70   A    
C20   H90   S    
C11   H64   S    
C57   H39   S    
C53   C73   A    
C121  H60   S    
C33   H8    S    
C1    O24   A    
Cr6   O4    S    
C87   C120  A    
Cr3   O18   S    
C11   H65   S    
C112  C118  A    
C61   C68   A    
C26   C60   S    
N10   N17   A    
C3    H53   S    
C41   C48   A    
C54   H36   S    
C129  N21   A    
C28   H101  S    
C23   C25   S    
N12   N23   A    
C12   H77   S    
C98   H21   S    
C26   H107  S    
C42   C49   A    
C27   C28   S    
C8    H55   S    
C13   N3    A    
C88   C121  A    
C122  N7    A    
