data_mof_unit_62980.cif
_audit_creation_date              2012-12-10T17:48:01-0500
_audit_creation_method            fapswitch 2.2
_symmetry_space_group_name_H-M    P1
_symmetry_Int_Tables_number       1
_space_group_crystal_system       triclinic
_cell_length_a                    44.620346
_cell_length_b                    39.033009
_cell_length_c                    21.920695
_cell_angle_alpha                 90.116374
_cell_angle_beta                  60.799073
_cell_angle_gamma                 90.032376
_cell_volume                      33326.5139565

loop_
_atom_site_label
_atom_site_type_symbol
_atom_type_description
_atom_site_fract_x
_atom_site_fract_y
_atom_site_fract_z
_atom_type_partial_charge
C1    C     C_R   0.066106 0.499989 0.435330 0.943258
C2    C     C_R   0.622607 0.508942 0.825450 -0.227667
C3    C     C_R   0.000020 0.103908 0.000191 -0.052102
C4    C     C_R   0.471372 0.731836 0.051814 0.371306
C5    C     C_R   0.528797 0.731739 0.949395 0.412531
C6    C     C_R   0.971373 0.231837 0.051810 0.371306
C7    C     C_R   0.028794 0.231738 0.949377 0.412731
C8    C     C_R   0.971857 0.267671 0.051498 -0.244556
C9    C     C_R   0.028295 0.267564 0.949479 -0.224224
C10   C     C_R   0.471857 0.767670 0.051509 -0.244171
C11   C     C_R   0.528298 0.767565 0.949501 -0.223249
C12   C     C_R   0.000074 0.285785 0.000444 -0.043624
C13   C     C_R   0.877429 0.008302 0.175078 -0.226291
C14   C     C_R   0.500075 0.785785 0.000463 -0.043421
C15   C     C_R   0.500083 0.713589 0.000614 -0.204480
C16   C     C_R   0.000081 0.213589 0.000606 -0.204532
C17   C     C_R   0.030131 0.342077 0.984388 -0.147891
C18   C     C_R   0.969972 0.342020 0.016134 -0.152067
C19   C     C_R   0.530131 0.842078 0.984408 -0.147514
C20   C     C_R   0.469972 0.842019 0.016157 -0.149897
C21   C     C_2   0.000831 0.495107 0.815246 -0.254668
C22   C     C_2   0.999362 0.495267 0.184432 -0.343878
C23   C     C_2   0.500790 0.995328 0.815377 -0.279660
C24   C     C_R   0.122543 0.007633 0.824588 -0.227764
C25   C     C_2   0.499343 0.995277 0.184441 -0.342570
C26   C     C_R   0.030156 0.377825 0.983948 -0.178950
C27   C     C_R   0.969916 0.377767 0.016372 -0.178383
C28   C     C_R   0.530156 0.877826 0.983962 -0.178245
C29   C     C_R   0.469916 0.877767 0.016391 -0.175985
C30   C     C_R   0.000028 0.395992 0.000104 -0.023591
C31   C     C_R   0.500028 0.895992 0.000116 -0.023900
C32   C     C_R   0.000059 0.323771 0.000317 0.153389
C33   C     C_R   0.500059 0.823771 0.000339 0.152885
C34   C     C_R   0.499778 0.377588 0.944797 -0.174979
C35   C     C_R   0.395820 0.500717 0.103341 -0.056251
C36   C     C_R   0.500245 0.377660 0.054843 -0.174960
C37   C     C_R   0.999803 0.877589 0.944767 -0.174939
C38   C     C_R   0.000217 0.877658 0.054866 -0.174622
C39   C     C_R   0.499769 0.341837 0.944770 -0.157963
C40   C     C_R   0.500276 0.341915 0.054751 -0.158217
C41   C     C_R   0.999795 0.841838 0.944735 -0.157770
C42   C     C_R   0.000248 0.841913 0.054770 -0.157982
C43   C     C_R   0.500032 0.323656 0.999729 0.104798
C44   C     C_R   0.000032 0.823655 0.999718 0.104721
C45   C     C_R   0.500007 0.395861 0.999851 -0.038316
C46   C     C_R   0.604171 0.500626 0.896752 -0.055808
C47   C     C_R   0.000006 0.895861 0.999849 -0.038460
C48   C     C_R   0.520992 0.267573 0.019733 -0.168885
C49   C     C_R   0.479087 0.267497 0.979685 -0.168813
C50   C     C_R   0.020970 0.767571 0.019779 -0.168591
C51   C     C_R   0.979115 0.767495 0.979599 -0.168622
C52   C     C_R   0.020956 0.731827 0.019823 -0.147650
C53   C     C_R   0.979091 0.731750 0.979671 -0.147813
C54   C     C_R   0.520977 0.231829 0.019781 -0.147914
C55   C     C_R   0.479061 0.231752 0.979761 -0.148039
C56   C     C_R   0.000010 0.713574 0.999789 0.146447
C57   C     C_R   0.895820 0.000717 0.103349 -0.056235
C58   C     C_R   0.500005 0.213576 0.999813 0.146576
C59   C     C_2   0.979684 0.475769 0.736570 0.101223
C60   C     C_2   0.019345 0.474584 0.263623 0.174696
C61   C     C_2   0.479684 0.975543 0.737286 0.104829
C62   C     C_2   0.519270 0.974577 0.263702 0.172584
C63   C     C_R   0.500044 0.285754 0.999692 0.090191
C64   C     C_R   0.000046 0.785753 0.999675 0.090083
C65   C     C_R   0.000229 0.657470 0.944443 -0.197828
C66   C     C_R   0.999736 0.657635 0.055336 -0.198493
C67   C     C_R   0.500188 0.157475 0.944496 -0.197996
C68   C     C_R   0.104188 0.000799 0.896589 -0.056363
C69   C     C_R   0.499774 0.157634 0.055311 -0.198778
C70   C     C_R   0.000206 0.621637 0.943892 0.383883
C71   C     C_R   0.999748 0.621802 0.055978 0.383562
C72   C     C_R   0.500166 0.121641 0.943939 0.383948
C73   C     C_R   0.499788 0.121800 0.055945 0.383799
C74   C     C_R   0.999977 0.603597 0.999956 -0.289618
C75   C     C_R   0.499977 0.103598 0.999959 -0.289600
C76   C     C_R   0.999988 0.675668 0.999862 -0.062807
C77   C     C_R   0.499985 0.175670 0.999880 -0.062805
C78   C     C_2   0.994323 0.501092 0.689415 -0.292224
C79   C     C_R   0.267499 0.479233 0.261111 -0.162075
C80   C     C_2   0.005987 0.500578 0.310303 -0.384645
C81   C     C_2   0.494104 0.000894 0.689628 -0.347288
C82   C     C_2   0.505868 0.000559 0.310407 -0.377959
C83   C     C_R   0.377714 0.494152 0.067133 -0.168169
C84   C     C_R   0.622228 0.493230 0.932671 -0.168807
C85   C     C_R   0.877708 0.994113 0.067169 -0.168215
C86   C     C_R   0.122346 0.995013 0.932939 -0.168651
C87   C     C_R   0.341922 0.495100 0.101919 -0.228585
C88   C     C_R   0.658018 0.494112 0.898034 -0.228985
C89   C     C_R   0.841915 0.995059 0.101970 -0.228527
C90   C     C_R   0.732550 0.479705 0.737738 -0.162179
C91   C     C_R   0.158139 0.996031 0.898043 -0.228784
C92   C     C_R   0.323547 0.503145 0.173254 0.099470
C93   C     C_R   0.676445 0.502966 0.827183 0.099870
C94   C     C_R   0.823547 0.003140 0.173289 0.099469
C95   C     C_R   0.176457 0.003328 0.826426 0.099537
C96   C     C_R   0.767505 0.979245 0.261213 -0.162024
C97   C     C_R   0.933893 0.499998 0.564813 0.953824
C98   C     C_R   0.232514 0.978869 0.739670 -0.162355
C99   C     C_R   0.231735 0.479611 0.297796 -0.097461
C100  C     C_R   0.768315 0.480081 0.701193 -0.098679
C101  C     C_R   0.731741 0.979622 0.297911 -0.097333
C102  C     C_R   0.268276 0.979255 0.702878 -0.097501
C103  C     C_R   0.213535 0.504539 0.283281 0.117703
C104  C     C_R   0.786473 0.504271 0.717661 0.117997
C105  C     C_R   0.713534 0.004532 0.283368 0.117705
C106  C     C_R   0.286457 0.004815 0.716007 0.118672
C107  C     C_R   0.231423 0.528730 0.230661 -0.089578
C108  C     C_R   0.566105 0.999989 0.435333 0.950236
C109  C     C_R   0.768550 0.527724 0.772017 -0.089901
C110  C     C_R   0.731418 0.028704 0.230702 -0.089871
C111  C     C_R   0.268544 0.029639 0.767403 -0.091775
C112  C     C_R   0.267357 0.528751 0.193886 0.149473
C113  C     C_R   0.732613 0.527780 0.808628 0.149298
C114  C     C_R   0.767352 0.028724 0.193908 0.149529
C115  C     C_R   0.232612 0.029628 0.804308 0.149358
C116  C     C_R   0.285647 0.503745 0.209294 0.064464
C117  C     C_R   0.714354 0.503513 0.791303 0.064707
C118  C     C_R   0.785647 0.003738 0.209347 0.064475
C119  C     C_R   0.433897 0.000001 0.564551 0.949170
C120  C     C_R   0.214351 0.003983 0.790261 0.064741
C121  C     C_R   0.157224 0.498897 0.289210 -0.262693
C122  C     C_R   0.842816 0.497024 0.710929 -0.268775
C123  C     C_R   0.657232 0.998892 0.289262 -0.262209
C124  C     C_R   0.342753 0.000493 0.710522 -0.263725
C125  C     C_R   0.998192 0.500094 0.619318 0.937934
C126  C     C_R   0.001943 0.499960 0.380557 0.912633
C127  C     C_R   0.498071 0.000039 0.619433 0.913594
C128  C     C_R   0.501855 0.999956 0.380632 0.911711
C129  C     C_R   0.121467 0.497336 0.325624 0.099339
C130  C     C_R   0.341425 0.509629 0.210169 0.174600
C131  C     C_R   0.878581 0.495474 0.674252 0.103576
C132  C     C_R   0.621475 0.997335 0.325652 0.099111
C133  C     C_R   0.378505 0.998899 0.674290 0.101922
C134  C     C_R   0.103854 0.500188 0.398752 -0.166188
C135  C     C_R   0.896145 0.500195 0.601562 -0.170684
C136  C     C_R   0.603851 0.000183 0.398780 -0.169189
C137  C     C_R   0.396150 0.000243 0.600997 -0.169723
C138  C     C_R   0.122224 0.505113 0.435743 0.257895
C139  C     C_R   0.877723 0.506737 0.565274 0.256097
C140  C     C_R   0.622208 0.005092 0.435799 0.257512
C141  C     C_R   0.658607 0.510289 0.790551 0.174290
C142  C     C_R   0.377814 0.003824 0.563619 0.257020
C143  C     C_R   0.158230 0.511157 0.397381 0.350038
C144  C     C_R   0.841716 0.512645 0.604309 0.350838
C145  C     C_R   0.658217 0.011132 0.397463 0.349986
C146  C     C_R   0.341798 0.009971 0.601511 0.350232
C147  C     C_R   0.175723 0.505473 0.324204 -0.103073
C148  C     C_R   0.824276 0.505297 0.676809 -0.101808
C149  C     C_R   0.675721 0.005459 0.324280 -0.102908
C150  C     C_R   0.324275 0.005679 0.675045 -0.102690
C151  C     C_R   0.000008 0.433750 0.000024 0.746858
C152  C     C_R   0.841433 0.009666 0.210173 0.174563
C153  C     C_R   0.500008 0.933750 0.000027 0.747627
C154  C     C_R   0.000020 0.498546 0.882365 0.946377
C155  C     C_R   0.000022 0.498555 0.117546 0.915375
C156  C     C_R   0.500015 0.998682 0.882391 0.944581
C157  C     C_R   0.500020 0.998559 0.117545 0.914638
C158  C     C_R   0.999993 0.566049 0.999986 0.977850
C159  C     C_R   0.499993 0.066050 0.999984 0.977691
C160  C     C_R   0.500001 0.433673 0.999947 0.788141
C161  C     C_R   0.000001 0.933673 0.999947 0.788451
C162  C     C_R   0.433725 0.500089 0.066095 0.803231
C163  C     C_R   0.158535 0.009027 0.789374 0.173853
C164  C     C_R   0.566272 0.500067 0.933917 0.802467
C165  C     C_R   0.933725 0.000089 0.066096 0.803198
C166  C     C_R   0.066279 0.000107 0.933896 0.802860
C167  C     C_2   0.975974 0.479466 0.807458 0.105202
C168  C     C_2   0.023546 0.478507 0.193040 0.179504
C169  C     C_2   0.475830 0.979818 0.807817 0.170873
C170  C     C_2   0.523505 0.978507 0.193094 0.179179
C171  C     C_R   0.500004 0.566133 0.000054 0.806516
C172  C     C_R   0.000004 0.066132 0.000054 0.806494
C173  C     C_R   0.493288 0.622145 0.952948 -0.164546
C174  C     C_R   0.377422 0.508264 0.175086 -0.226317
C175  C     C_R   0.506779 0.622105 0.047570 -0.162925
C176  C     C_R   0.993279 0.122144 0.952956 -0.164451
C177  C     C_R   0.006784 0.122106 0.047559 -0.163132
C178  C     C_R   0.493128 0.657890 0.953391 -0.021933
C179  C     C_R   0.506968 0.657847 0.047420 -0.019201
C180  C     C_R   0.993119 0.157889 0.953397 -0.022111
C181  C     C_R   0.006973 0.157848 0.047408 -0.019196
C182  C     C_R   0.500039 0.675848 0.000503 0.197874
C183  C     C_R   0.000037 0.175849 0.000499 0.198098
C184  C     C_R   0.500021 0.603908 0.000191 -0.052228
Cu1   Cu    Cu3+1 0.000000 0.534200 0.500000 1.067978
Cu2   Cu    Cu3+1 0.500010 0.499920 0.938980 0.967179
Cu3   Cu    Cu3+1 0.999990 0.999920 0.061020 0.967239
Cu4   Cu    Cu3+1 0.000010 0.999920 0.938980 0.967109
Cu5   Cu    Cu3+1 0.500000 0.034200 0.500000 1.065871
Cu6   Cu    Cu3+1 0.000000 0.465790 0.500000 1.050457
Cu7   Cu    Cu3+1 0.500000 0.965790 0.500000 1.027888
Cu8   Cu    Cu3+1 0.965790 0.500000 0.034190 1.067390
Cu9   Cu    Cu3+1 0.034210 0.500000 0.965810 1.043833
Cu10  Cu    Cu3+1 0.465790 0.000000 0.034190 1.068166
Cu11  Cu    Cu3+1 0.534210 0.000000 0.965810 1.044645
Cu12  Cu    Cu3+1 0.499990 0.499920 0.061020 0.967243
H1    H     H_    0.218175 0.460606 0.337939 0.169562
H2    H     H_    0.829388 0.491890 0.766592 0.165998
H3    H     H_    0.388289 0.973124 0.742453 0.225549
H4    H     H_    0.063215 0.464932 0.602213 0.364868
H5    H     H_    0.935941 0.468508 0.395990 0.363033
H6    H     H_    0.563095 0.964968 0.602291 0.363762
H7    H     H_    0.437561 0.962052 0.399025 0.363145
H8    H     H_    0.208281 0.508923 0.488602 0.383415
H9    H     H_    0.791345 0.514175 0.513752 0.383282
H10   H     H_    0.708231 0.008883 0.488762 0.383439
H11   H     H_    0.291980 0.004526 0.510039 0.383141
H12   H     H_    0.406601 0.748608 0.196768 0.353866
H13   H     H_    0.670695 0.995125 0.233108 0.167851
H14   H     H_    0.617303 0.724668 0.806887 0.388508
H15   H     H_    0.906614 0.248614 0.196778 0.353642
H16   H     H_    0.117262 0.224681 0.806701 0.388310
H17   H     H_    0.000816 0.613962 0.776760 0.385106
H18   H     H_    0.999116 0.614604 0.223146 0.385601
H19   H     H_    0.500669 0.113980 0.776909 0.385027
H20   H     H_    0.499273 0.114594 0.222996 0.385001
H21   H     H_    0.939800 0.444779 0.754330 0.214265
H22   H     H_    0.977557 0.424360 0.728531 0.226401
H23   H     H_    0.010938 0.430059 0.317644 0.244862
H24   H     H_    0.329283 0.997834 0.766913 0.166732
H25   H     H_    0.049448 0.449242 0.294907 0.240552
H26   H     H_    0.486471 0.930677 0.684801 0.255462
H27   H     H_    0.448845 0.951356 0.706299 0.243306
H28   H     H_    0.510892 0.930050 0.317704 0.244135
H29   H     H_    0.549393 0.949261 0.294971 0.241027
H30   H     H_    0.331485 0.542076 0.289653 0.240256
H31   H     H_    0.329537 0.500084 0.309916 0.221762
H32   H     H_    0.668577 0.543798 0.712923 0.238513
H33   H     H_    0.670580 0.502108 0.690254 0.221840
H34   H     H_    0.831499 0.042166 0.289573 0.240173
H35   H     H_    0.487862 0.608816 0.916054 0.160065
H36   H     H_    0.829559 0.000190 0.309936 0.221833
H37   H     H_    0.168384 0.040468 0.708735 0.237846
H38   H     H_    0.170378 0.998226 0.690036 0.222155
H39   H     H_    0.512207 0.608745 0.084338 0.159437
H40   H     H_    0.987848 0.108814 0.916071 0.159980
H41   H     H_    0.012218 0.108747 0.084321 0.159306
H42   H     H_    0.487613 0.671604 0.917090 0.152782
H43   H     H_    0.512523 0.671528 0.083794 0.150555
H44   H     H_    0.987599 0.171602 0.917103 0.152484
H45   H     H_    0.781911 0.461664 0.659632 0.168976
H46   H     H_    0.012533 0.171530 0.083773 0.150447
H47   H     H_    0.024342 0.503220 0.769497 0.151814
H48   H     H_    0.976204 0.504359 0.229898 0.171088
H49   H     H_    0.524355 0.003250 0.769518 0.155430
H50   H     H_    0.476175 0.004368 0.229883 0.173900
H51   H     H_    0.950246 0.281600 0.091621 0.173568
H52   H     H_    0.049882 0.281380 0.909138 0.199896
H53   H     H_    0.450244 0.781597 0.091631 0.173618
H54   H     H_    0.549887 0.781382 0.909166 0.200100
H55   H     H_    0.053567 0.328775 0.973135 0.147805
H56   H     H_    0.718184 0.960629 0.338084 0.169644
H57   H     H_    0.946547 0.328670 0.027464 0.147783
H58   H     H_    0.553567 0.828777 0.973155 0.147842
H59   H     H_    0.446547 0.828669 0.027490 0.148470
H60   H     H_    0.053677 0.391230 0.971752 0.160153
H61   H     H_    0.946380 0.391125 0.028512 0.162004
H62   H     H_    0.553677 0.891231 0.971762 0.160186
H63   H     H_    0.446379 0.891124 0.028533 0.162539
H64   H     H_    0.499679 0.390882 0.901585 0.157710
H65   H     H_    0.500334 0.391007 0.098110 0.157774
H66   H     H_    0.999725 0.890885 0.901535 0.157742
H67   H     H_    0.281849 0.959752 0.663737 0.169676
H68   H     H_    0.000285 0.891003 0.098155 0.157911
H69   H     H_    0.500004 0.328396 0.901272 0.136573
H70   H     H_    0.500044 0.328539 0.098214 0.136517
H71   H     H_    0.000052 0.828399 0.901214 0.136676
H72   H     H_    0.999995 0.828536 0.098252 0.136682
H73   H     H_    0.537782 0.281005 0.034377 0.138921
H74   H     H_    0.462307 0.280872 0.965011 0.138877
H75   H     H_    0.037740 0.781003 0.034475 0.139107
H76   H     H_    0.962354 0.780871 0.964875 0.138983
H77   H     H_    0.037712 0.718443 0.034551 0.147968
H78   H     H_    0.217420 0.548147 0.219532 0.161033
H79   H     H_    0.962321 0.718307 0.964986 0.147842
H80   H     H_    0.537753 0.218445 0.034456 0.147823
H81   H     H_    0.462271 0.218309 0.965130 0.147711
H82   H     H_    0.000884 0.671343 0.901113 0.200838
H83   H     H_    0.999090 0.671636 0.098625 0.200804
H84   H     H_    0.500813 0.171349 0.901197 0.200784
H85   H     H_    0.499158 0.171633 0.098575 0.200692
H86   H     H_    0.001493 0.524930 0.704580 0.157497
H87   H     H_    0.999969 0.524772 0.294281 0.175796
H88   H     H_    0.501035 0.024869 0.704821 0.172339
H89   H     H_    0.782531 0.546589 0.784617 0.160410
H90   H     H_    0.499837 0.024749 0.294396 0.175170
H91   H     H_    0.391200 0.487985 0.011932 0.162177
H92   H     H_    0.608700 0.486436 0.987509 0.161687
H93   H     H_    0.891190 0.987916 0.011983 0.162164
H94   H     H_    0.108905 0.989429 0.988350 0.162457
H95   H     H_    0.328492 0.489332 0.073206 0.144960
H96   H     H_    0.671402 0.487654 0.926480 0.144433
H97   H     H_    0.828480 0.989259 0.073281 0.144983
H98   H     H_    0.171616 0.990905 0.926892 0.144994
H99   H     H_    0.390895 0.513550 0.203924 0.160568
H100  H     H_    0.717412 0.048106 0.219544 0.160900
H101  H     H_    0.609156 0.514880 0.796877 0.160012
H102  H     H_    0.890908 0.013621 0.203892 0.160559
H103  H     H_    0.109043 0.012309 0.795607 0.160454
H104  H     H_    0.281134 0.459887 0.273386 0.154537
H105  H     H_    0.718952 0.460923 0.723975 0.154681
H106  H     H_    0.781144 0.959914 0.273512 0.154604
H107  H     H_    0.218891 0.959035 0.728452 0.154585
H108  H     H_    0.924649 0.474610 0.868691 0.230394
H109  H     H_    0.947187 0.438176 0.858696 0.208025
H110  H     H_    0.068372 0.479976 0.101007 0.248647
H111  H     H_    0.282524 0.049534 0.777491 0.160303
H112  H     H_    0.043277 0.445018 0.111167 0.217540
H113  H     H_    0.424497 0.975112 0.868445 0.235997
H114  H     H_    0.446839 0.938688 0.859050 0.236374
H115  H     H_    0.568348 0.979978 0.101095 0.248557
H116  H     H_    0.543260 0.945019 0.111221 0.217626
H117  H     H_    0.298989 0.543817 0.094275 0.218548
H118  H     H_    0.301320 0.567915 0.156318 0.249965
H119  H     H_    0.700957 0.541552 0.909230 0.218019
H120  H     H_    0.698634 0.566870 0.848850 0.247882
H121  H     H_    0.798973 0.043745 0.094261 0.218514
H122  H     H_    0.170679 0.495126 0.233058 0.167960
H123  H     H_    0.801315 0.067885 0.156243 0.249839
H124  H     H_    0.200961 0.045852 0.903185 0.218640
H125  H     H_    0.198583 0.068814 0.840064 0.247709
H126  H     H_    0.109030 0.512339 0.252668 0.237554
H127  H     H_    0.111549 0.469468 0.259773 0.232133
H128  H     H_    0.891050 0.507481 0.748766 0.228416
H129  H     H_    0.888649 0.465029 0.736461 0.225899
H130  H     H_    0.609060 0.012347 0.252667 0.237430
H131  H     H_    0.611566 0.969475 0.259777 0.232287
H132  H     H_    0.390943 0.016194 0.745958 0.235926
N1    N     N_3   0.946862 0.464614 0.866598 -0.553820
N2    N     N_3   0.897187 0.488490 0.710777 -0.593549
N3    N     N_3   0.602941 0.992262 0.288290 -0.608071
N4    N     N_3   0.397009 0.995291 0.712044 -0.612241
N5    N     N_3   0.966206 0.445909 0.719997 -0.540778
N6    N     N_3   0.031676 0.443387 0.278375 -0.535365
N7    N     N_3   0.466208 0.944829 0.723464 -0.583171
N8    N     N_3   0.531621 0.943391 0.278445 -0.535418
N9    N     N_3   0.323047 0.518074 0.283018 -0.561229
N10   N     N_3   0.677025 0.519573 0.718213 -0.562615
N11   N     N_3   0.823061 0.018152 0.283003 -0.561255
N12   N     N_3   0.052239 0.461563 0.136307 -0.537427
N13   N     N_3   0.176865 0.016692 0.716224 -0.561972
N14   N     N_3   0.446587 0.965128 0.866927 -0.545798
N15   N     N_3   0.552209 0.961564 0.136384 -0.537276
N16   N     N_3   0.284575 0.555150 0.143361 -0.572923
N17   N     N_3   0.715370 0.553528 0.860937 -0.575631
N18   N     N_3   0.784565 0.055101 0.143326 -0.573202
N19   N     N_3   0.215356 0.056590 0.853590 -0.575420
N20   N     N_3   0.102923 0.492254 0.288287 -0.607907
O1    O     O_R   0.049910 0.528880 0.450120 -0.580805
O2    O     O_R   0.549900 0.500000 0.001650 -0.586866
O3    O     O_R   0.950100 0.000000 0.998350 -0.586842
O4    O     O_R   0.049900 1.000000 0.001650 -0.587161
O5    O     O_R   0.500000 0.549840 0.051640 -0.582545
O6    O     O_R   0.500000 0.549840 0.948360 -0.582771
O7    O     O_R   0.000000 0.049840 0.051640 -0.582722
O8    O     O_R   0.000000 0.049840 0.948360 -0.582653
O9    O     O_R   0.049900 0.471110 0.450110 -0.561913
O10   O     O_R   0.950100 0.471110 0.549890 -0.552848
O11   O     O_R   0.549900 0.971110 0.450110 -0.558552
O12   O     O_R   0.950090 0.528880 0.549880 -0.581456
O13   O     O_R   0.450100 0.971110 0.549890 -0.557966
O14   O     O_R   0.999990 0.528880 0.589040 -0.582786
O15   O     O_R   0.000010 0.528880 0.410960 -0.562616
O16   O     O_R   0.499990 0.028880 0.589040 -0.566120
O17   O     O_R   0.500010 0.028880 0.410960 -0.564909
O18   O     O_R   0.999990 0.471110 0.589030 -0.538494
O19   O     O_R   0.000010 0.471110 0.410970 -0.590308
O20   O     O_R   0.499990 0.971110 0.589030 -0.584760
O21   O     O_R   0.500010 0.971110 0.410970 -0.588203
O22   O     O_R   0.971110 0.450090 0.028870 -0.596871
O23   O     O_R   0.549910 0.028880 0.450120 -0.579565
O24   O     O_R   0.028890 0.450090 0.971130 -0.605820
O25   O     O_R   0.471110 0.950090 0.028870 -0.596725
O26   O     O_R   0.528890 0.950090 0.971130 -0.605498
O27   O     O_R   0.971120 0.500000 0.939830 -0.540290
O28   O     O_R   0.028880 0.500000 0.060170 -0.586581
O29   O     O_R   0.471120 0.000000 0.939830 -0.542941
O30   O     O_R   0.528880 0.000000 0.060170 -0.586757
O31   O     O_R   0.028890 0.500000 0.882090 -0.578318
O32   O     O_R   0.971110 0.500000 0.117910 -0.563181
O33   O     O_R   0.528890 1.000000 0.882090 -0.576025
O34   O     O_R   0.450090 0.028880 0.549880 -0.580382
O35   O     O_R   0.471110 0.000000 0.117910 -0.562375
O36   O     O_R   0.971120 0.549910 0.028870 -0.548389
O37   O     O_R   0.028880 0.549910 0.971130 -0.546222
O38   O     O_R   0.471120 0.049910 0.028870 -0.548257
O39   O     O_R   0.528880 0.049910 0.971130 -0.546402
O40   O     O_R   0.499990 0.450020 0.051430 -0.587592
O41   O     O_R   0.500010 0.450020 0.948570 -0.587384
O42   O     O_R   0.999990 0.950020 0.051430 -0.587322
O43   O     O_R   0.000010 0.950020 0.948570 -0.587454
O44   O     O_2   0.123904 0.493025 0.556806 -0.196498
O45   O     O_R   0.450090 0.499930 0.101420 -0.582725
O46   O     O_2   0.080755 0.533331 0.561043 -0.267071
O47   O     O_3   0.071899 0.468196 0.551524 -0.552829
O48   O     O_2   0.875851 0.497658 0.443536 -0.197545
O49   O     O_2   0.919143 0.536869 0.442286 -0.258518
O50   O     O_3   0.927876 0.471332 0.446574 -0.558721
O51   O     O_2   0.623854 0.992983 0.556894 -0.196386
O52   O     O_2   0.580726 0.033308 0.561098 -0.264492
O53   O     O_3   0.571853 0.968179 0.551563 -0.552875
O54   O     O_2   0.376282 0.989150 0.443192 -0.196140
O55   O     O_2   0.419231 0.030369 0.436854 -0.267058
O56   O     O_R   0.549910 0.499930 0.898580 -0.582717
O57   O     O_3   0.428356 0.965679 0.449813 -0.550692
O58   O     O_2   0.211174 0.549891 0.386173 -0.279404
O59   O     O_2   0.157962 0.552410 0.497096 -0.188605
O60   O     O_3   0.195419 0.497332 0.468275 -0.503592
O61   O     O_2   0.788760 0.552531 0.619411 -0.281438
O62   O     O_2   0.841854 0.556422 0.508516 -0.189936
O63   O     O_3   0.804287 0.501715 0.532811 -0.503295
O64   O     O_2   0.711154 0.049857 0.386317 -0.279520
O65   O     O_2   0.657925 0.052376 0.497211 -0.188984
O66   O     O_3   0.695374 0.997294 0.468418 -0.503581
O67   O     O_R   0.950090 0.999930 0.101420 -0.582721
O68   O     O_2   0.288802 0.047666 0.610120 -0.281023
O69   O     O_2   0.342087 0.048993 0.499245 -0.189483
O70   O     O_3   0.304793 0.993698 0.531217 -0.503976
O71   O     O_2   0.422663 0.684232 0.082690 -0.240952
O72   O     O_2   0.442826 0.692970 0.167076 -0.298195
O73   O     O_3   0.402101 0.738594 0.160453 -0.493830
O74   O     O_2   0.576924 0.683334 0.917701 -0.284695
O75   O     O_2   0.557312 0.694015 0.832703 -0.286862
O76   O     O_3   0.598081 0.738511 0.842410 -0.528107
O77   O     O_2   0.922659 0.184235 0.082712 -0.241303
O78   O     O_R   0.049910 0.999930 0.898580 -0.583022
O79   O     O_2   0.942837 0.192972 0.167075 -0.298315
O80   O     O_3   0.902107 0.238597 0.160475 -0.494551
O81   O     O_2   0.076921 0.183329 0.917657 -0.284633
O82   O     O_2   0.057295 0.194017 0.832682 -0.287309
O83   O     O_3   0.098075 0.238507 0.842372 -0.528496
O84   O     O_2   0.032129 0.578039 0.836959 -0.287511
O85   O     O_2   0.969206 0.577760 0.898795 -0.304980
O86   O     O_3   0.000591 0.628233 0.814402 -0.524206
O87   O     O_2   0.967832 0.578436 0.162972 -0.284471
O88   O     O_2   0.030752 0.578117 0.101161 -0.304712
O89   O     O_R   0.450100 0.500000 0.998350 -0.586840
O90   O     O_3   0.999348 0.628767 0.185470 -0.524365
O91   O     O_2   0.532040 0.078049 0.836983 -0.287291
O92   O     O_2   0.469115 0.077775 0.898940 -0.305505
O93   O     O_3   0.500472 0.128249 0.814528 -0.524495
O94   O     O_2   0.467921 0.078432 0.162949 -0.284659
O95   O     O_2   0.530841 0.078111 0.101009 -0.304777
O96   O     O_3   0.499472 0.128760 0.185354 -0.525166
S1    S     S_3+6 0.099963 0.500764 0.528676 0.047997
S2    S     S_3+6 0.565775 0.710489 0.884461 0.006131
S3    S     S_3+6 0.934338 0.210645 0.116552 0.023593
S4    S     S_3+6 0.065767 0.210487 0.884431 0.005765
S5    S     S_3+6 0.000544 0.600053 0.872401 -0.000385
S6    S     S_3+6 0.999409 0.600421 0.127510 0.001814
S7    S     S_3+6 0.500458 0.100064 0.872487 -0.000593
S8    S     S_3+6 0.499496 0.100416 0.127428 0.001296
S9    S     S_3+6 0.899878 0.504077 0.472070 0.050759
S10   S     S_3+6 0.599927 0.000737 0.528735 0.050085
S11   S     S_3+6 0.400155 0.998032 0.470950 0.049651
S12   S     S_3+6 0.181028 0.529198 0.437823 0.071678
S13   S     S_3+6 0.818826 0.532356 0.565801 0.070642
S14   S     S_3+6 0.680999 0.029165 0.437945 0.071383
S15   S     S_3+6 0.319035 0.026559 0.559842 0.070358
S16   S     S_3+6 0.434334 0.710643 0.116543 0.024125

loop_
_geom_bond_atom_site_label_1
_geom_bond_atom_site_label_2
_ccdc_geom_bond_type
C99   C103  A    
C105  C110  A    
C124  H24   S    
C133  C137  A    
C86   H94   S    
H22   N5    S    
C107  C112  A    
C142  C146  A    
O55   S11   D    
C136  C140  A    
C14   C33   S    
H110  N12   S    
Cu1   Cu6   S    
C130  C174  A    
C135  C139  A    
C81   H88   S    
Cu12  O45   S    
C93   C117  S    
C124  C133  A    
C79   C99   A    
C138  C143  A    
Cu2   O41   S    
H28   N8    S    
C94   C152  A    
Cu7   O21   S    
Cu4   O3    S    
C100  C104  A    
H23   N6    S    
C90   C100  A    
O54   S11   D    
C168  N12   S    
C130  N9    S    
C173  H35   S    
C146  C150  A    
C40   C43   A    
H21   N5    S    
C70   C74   A    
O91   S7    D    
C121  C147  A    
C122  C148  A    
H132  N4    S    
C22   C155  S    
C22   C168  D    
C84   H92   S    
Cu8   O32   S    
C73   C75   A    
C45   C160  S    
C42   C44   A    
C133  N4    S    
C181  C183  A    
C27   H61   S    
O71   S16   D    
C174  H99   S    
C43   C63   S    
C144  S13   S    
C90   C117  A    
C48   C63   A    
C125  O14   A    
Cu10  O38   S    
C98   C102  A    
C44   C64   S    
Cu6   O19   S    
C92   C130  A    
O48   S9    D    
C95   C163  A    
C66   C76   A    
C59   N5    S    
C143  S12   S    
C92   C116  S    
C178  C182  A    
C114  N18   S    
C46   C84   A    
C126  O19   A    
C55   H81   S    
C175  H39   S    
C19   C33   A    
C145  S14   S    
C41   H71   S    
C101  H56   S    
C61   C169  S    
H20   O96   S    
C59   C167  S    
C20   H59   S    
C177  H41   S    
H18   O90   S    
O75   S2    D    
C88   H96   S    
O69   S15   D    
C51   C64   A    
C84   C88   A    
O47   S1    S    
Cu6   O18   S    
C140  C145  A    
C175  C179  A    
C39   H69   S    
C98   C120  A    
H33   N10   S    
O81   S4    D    
C97   O10   A    
H117  N16   S    
H38   N13   S    
C36   H65   S    
H14   O76   S    
H131  N3    S    
C90   H105  S    
C80   C126  S    
H123  N18   S    
C57   C85   A    
C157  O35   A    
H27   N7    S    
H30   N9    S    
Cu2   O56   S    
C5    C15   A    
C154  O31   A    
C6    C16   A    
C3    C176  A    
O53   S10   S    
O52   S10   D    
C80   H87   S    
C54   H80   S    
C65   H82   S    
C17   C32   A    
C103  C107  A    
O74   S2    D    
C78   C125  S    
H4    O47   S    
C171  O5    A    
C68   C166  S    
C137  C142  A    
C106  C150  S    
C1    O9    A    
C123  C132  A    
C69   C77   A    
C67   C77   A    
O64   S14   D    
C103  C147  S    
C127  O20   A    
H120  N17   S    
C111  H111  S    
C163  N13   S    
C115  N19   S    
C29   H63   S    
O85   S5    D    
Cu2   Cu12  S    
Cu9   O28   S    
C112  N16   S    
Cu11  O26   S    
C13   C57   A    
C65   C70   A    
C15   C182  S    
C89   C94   A    
O76   S2    S    
O60   S12   S    
C67   C72   A    
H31   N9    S    
Cu5   Cu7   S    
C9    H52   S    
C37   H66   S    
C13   H102  S    
C19   H58   S    
C58   C77   S    
C128  O17   A    
H26   N7    S    
C8    H51   S    
Cu6   O10   S    
C139  S9    S    
H113  N14   S    
Cu1   O12   S    
C37   C47   A    
C110  C114  A    
Cu2   O6    S    
C8    C12   A    
C21   H47   S    
C25   H50   S    
C155  O28   A    
Cu4   O43   S    
C96   H106  S    
O93   S7    S    
C72   C75   A    
C59   C78   D    
O61   S13   D    
C106  C111  A    
O80   S3    S    
H3    N4    S    
O86   S5    S    
C97   O12   A    
C34   C39   A    
C165  O3    A    
C10   C14   A    
C132  N3    S    
C49   C55   A    
C110  H100  S    
Cu11  O39   S    
C51   C53   A    
Cu9   O37   S    
Cu5   O34   S    
C158  O37   A    
C162  O45   A    
C50   C52   A    
C23   C169  D    
C132  C136  A    
C72   S7    S    
Cu1   O14   S    
C34   H64   S    
C66   H83   S    
C122  H2    S    
C19   C28   A    
C82   C128  S    
C113  C117  A    
C5    S2    S    
C26   C30   A    
C28   H62   S    
O66   S14   S    
C158  O36   A    
C4    S16   S    
Cu8   O22   S    
C97   C135  S    
C2    H101  S    
C122  C131  A    
C112  C116  A    
O62   S13   D    
O88   S6    D    
Cu7   O11   S    
C53   C56   A    
H125  N19   S    
C140  S10   S    
C60   C80   D    
Cu12  O2    S    
C108  O11   A    
C51   H76   S    
O92   S7    D    
C91   H98   S    
C108  C136  S    
C61   C81   D    
C49   H74   S    
C126  O15   A    
C94   C118  S    
C173  C178  A    
C177  C181  A    
H109  N1    S    
H29   N8    S    
C37   C41   A    
C9    C12   A    
Cu3   O4    S    
C91   C95   A    
C176  C180  A    
C50   H75   S    
O96   S8    S    
Cu7   O20   S    
C102  H67   S    
C175  C184  A    
O65   S14   D    
H124  N19   S    
C87   C92   A    
C42   H72   S    
C119  O13   A    
C40   H70   S    
C25   C170  D    
C83   C87   A    
C146  S15   S    
C104  C148  S    
C155  O32   A    
O68   S15   D    
C22   H48   S    
C83   H91   S    
C181  H46   S    
C65   C76   A    
C49   C63   A    
O94   S8    D    
C5    C11   A    
C86   C91   A    
C167  N1    S    
H121  N18   S    
C3    C172  S    
C57   C165  S    
C180  H44   S    
C164  O2    A    
C50   C64   A    
C166  O4    A    
H112  N12   S    
C179  H43   S    
C170  N15   S    
O72   S16   D    
C159  O38   A    
C87   H95   S    
C69   C73   A    
O90   S6    S    
O84   S5    D    
C161  O43   A    
C179  C182  A    
Cu5   O17   S    
C153  O26   A    
Cu11  O33   S    
Cu10  Cu11  S    
C62   C82   D    
C96   C101  A    
C81   C127  S    
C169  N14   S    
O49   S9    D    
C70   S5    S    
C62   C170  S    
H25   N6    S    
H108  N1    S    
C152  N11   S    
C11   H54   S    
C74   C158  S    
C119  O34   A    
C171  C184  S    
C160  O40   A    
C1    O1    A    
O83   S4    S    
H114  N14   S    
C24   H103  S    
C35   C83   A    
C6    C8    A    
C151  O24   A    
C17   H55   S    
Cu10  O25   S    
C23   H49   S    
C48   C54   A    
C172  O8    A    
C66   C71   A    
C165  O67   A    
H129  N2    S    
C98   H107  S    
C60   N6    S    
O57   S11   S    
C113  N17   S    
C7    C16   A    
O50   S9    S    
C24   C163  A    
C18   C32   A    
O77   S3    D    
C178  H42   S    
C93   C141  A    
C121  H122  S    
Cu5   O16   S    
C124  C150  A    
C156  O29   A    
C85   C89   A    
O59   S12   D    
C28   C31   A    
C13   C152  A    
C121  C129  A    
H116  N15   S    
H118  N16   S    
C71   C74   A    
H126  N20   S    
C38   C42   A    
C95   C120  S    
C85   H93   S    
C21   C167  D    
O44   S1    D    
Cu10  O29   S    
Cu3   Cu4   S    
H19   O93   S    
C26   H60   S    
C157  O30   A    
C89   H97   S    
Cu2   O89   S    
H127  N20   S    
C129  N20   S    
H115  N15   S    
C160  O41   A    
C82   H90   S    
C24   C68   A    
C129  C134  A    
C47   C161  S    
C142  S11   S    
C55   C58   A    
C71   S6    S    
H10   O66   S    
C145  C149  A    
C100  H45   S    
H17   O86   S    
C123  C149  A    
C56   C76   S    
O95   S8    D    
H16   O83   S    
C68   C86   A    
C144  C148  A    
C127  O16   A    
C16   C183  S    
C2    C46   A    
C151  O22   A    
C143  C147  A    
C128  O21   A    
C60   C168  S    
C17   C26   A    
C96   C118  A    
O73   S16   S    
C166  O78   A    
C131  C135  A    
H5    O50   S    
Cu9   O31   S    
C104  C109  A    
C11   C14   A    
C7    S4    S    
C138  S1    S    
H128  N2    S    
H119  N17   S    
C107  H78   S    
C78   H86   S    
Cu1   O15   S    
C69   H85   S    
C125  O18   A    
C21   C154  S    
Cu3   O7    S    
C180  C183  A    
C109  C113  A    
C109  H89   S    
Cu4   O78   S    
C46   C164  S    
C79   C116  A    
C12   C32   S    
C27   C30   A    
Cu8   O27   S    
C61   N7    S    
O58   S12   D    
C31   C153  S    
C20   C29   A    
C18   H57   S    
C101  C105  A    
C172  O7    A    
C35   C162  S    
H37   N13   S    
H11   O70   S    
C119  C137  S    
H12   O73   S    
C36   C40   A    
Cu10  O35   S    
C173  C184  A    
C73   S8    S    
C131  N2    S    
Cu12  O5    S    
C39   C43   A    
Cu8   O36   S    
Cu5   O23   S    
C38   H68   S    
Cu7   O13   S    
C139  C144  A    
Cu3   O42   S    
Cu6   O9    S    
C99   H1    S    
O79   S3    D    
C36   C45   A    
C34   C45   A    
Cu1   O1    S    
H9    O63   S    
C38   C47   A    
C114  C118  A    
H7    O57   S    
C108  O23   A    
C62   N8    S    
C48   H73   S    
C25   C157  S    
H34   N11   S    
O46   S1    D    
C20   C33   A    
C4    C10   A    
C1    C134  S    
C154  O27   A    
C54   C58   A    
C75   C159  S    
C7    C9    A    
O51   S10   D    
C88   C93   A    
C35   C174  A    
C141  N10   S    
C18   C27   A    
C23   C156  S    
C6    S3    S    
C134  C138  A    
C79   H104  S    
C111  C115  A    
C171  O6    A    
C52   H77   S    
C105  C149  S    
H6    O53   S    
O70   S15   S    
C10   H53   S    
Cu8   Cu9   S    
C4    C15   A    
C3    C177  A    
C29   C31   A    
H15   O80   S    
C30   C151  S    
C176  H40   S    
C123  H13   S    
H32   N10   S    
C41   C44   A    
C164  O56   A    
C102  C106  A    
Cu9   O24   S    
H8    O60   S    
Cu11  O30   S    
C53   H79   S    
C156  O33   A    
C162  O89   A    
C115  C120  A    
H130  N3    S    
Cu12  O40   S    
C2    C141  A    
C159  O39   A    
H36   N11   S    
C67   H84   S    
O63   S13   S    
Cu3   O67   S    
C161  O42   A    
C52   C56   A    
O82   S4    D    
Cu4   O8    S    
O87   S6    D    
C153  O25   A    
