data_mof_unit_11390.cif
_audit_creation_date              2012-12-10T18:59:53-0500
_audit_creation_method            fapswitch 2.2
_symmetry_space_group_name_H-M    P1
_symmetry_Int_Tables_number       1
_space_group_crystal_system       triclinic
_cell_length_a                    10.768038
_cell_length_b                    10.709854
_cell_length_c                    9.826074
_cell_angle_alpha                 89.913868
_cell_angle_beta                  90.530565
_cell_angle_gamma                 90.082127
_cell_volume                      1133.13227979

loop_
_atom_site_label
_atom_site_type_symbol
_atom_type_description
_atom_site_fract_x
_atom_site_fract_y
_atom_site_fract_z
_atom_type_partial_charge
C1    C     C_R   0.499567 0.259839 0.500002 0.861533
C2    C     C_R   0.499222 0.740150 0.499950 0.870601
C3    C     C_R   0.872533 0.499427 0.503657 -0.076761
C4    C     C_R   0.127443 0.504145 0.496867 -0.099537
C5    C     C_R   0.940613 0.461112 0.619828 0.042782
C6    C     C_R   0.059659 0.543561 0.381085 0.031308
C7    C     C_R   0.516181 0.064072 0.377477 -0.210158
C8    C     C_R   0.478868 0.935863 0.622067 -0.202647
C9    C     C_R   0.515470 0.936288 0.377296 -0.202503
C10   C     C_R   0.479173 0.063709 0.622154 -0.197874
C11   C     C_R   0.497648 0.872557 0.499737 -0.008657
C12   C     C_R   0.498332 0.127412 0.499937 -0.004519
C13   C     C_R   0.532933 0.604679 0.072081 -0.079973
C14   C     C_R   0.466953 0.395429 0.927961 -0.077728
C15   C     C_R   0.533198 0.604565 0.928197 -0.063286
C16   C     C_R   0.467388 0.395405 0.071764 -0.088462
C17   C     C_R   0.259931 0.502293 0.498936 0.868278
C18   C     C_R   0.740104 0.498594 0.501161 0.892775
C19   C     C_R   0.237623 0.743546 0.132130 -0.141991
C20   C     C_R   0.835975 0.250226 0.905595 -0.170932
C21   C     C_R   0.178366 0.703795 0.250431 -0.181271
C22   C     C_R   0.880301 0.290909 0.779857 -0.247979
C23   C     C_R   0.117984 0.587511 0.253692 0.027547
C24   C     C_R   0.885321 0.418953 0.749633 0.054725
C25   C     C_R   0.118286 0.510696 0.137193 0.506646
C26   C     C_R   0.847751 0.506694 0.847914 0.516891
C27   C     C_R   0.176996 0.552177 0.018787 -0.239250
C28   C     C_R   0.806071 0.464669 0.974913 -0.165908
C29   C     C_R   0.235932 0.668383 0.016160 -0.191006
C30   C     C_R   0.799794 0.337011 0.003374 -0.088697
C31   C     C_R   0.932190 0.539854 0.385782 -0.213867
C32   C     C_R   0.067878 0.462563 0.613828 -0.286721
H1    H     H_    0.560431 0.688059 0.874147 0.144017
H2    H     H_    0.441700 0.311707 0.125903 0.126556
H3    H     H_    0.879642 0.570637 0.297157 0.158687
H4    H     H_    0.120595 0.430055 0.701499 0.157778
H5    H     H_    0.531694 0.112796 0.282396 0.145124
H6    H     H_    0.463802 0.887065 0.717219 0.144046
H7    H     H_    0.530109 0.887909 0.282025 0.145601
H8    H     H_    0.464257 0.112169 0.717323 0.147549
H9    H     H_    0.559875 0.688261 0.126367 0.121375
H10   H     H_    0.440178 0.311768 0.873721 0.124246
N1    N     N_R   0.499970 0.499970 0.857200 -0.078368
N2    N     N_R   0.500030 0.500030 0.142800 -0.074176
O1    O     O_R   0.499990 0.316750 0.614620 -0.632682
O2    O     O_R   0.500010 0.683250 0.385380 -0.630954
O3    O     O_R   0.499990 0.316780 0.385290 -0.642880
O4    O     O_R   0.500010 0.683220 0.614710 -0.630278
O5    O     O_R   0.316760 0.500000 0.614660 -0.628691
O6    O     O_R   0.683240 0.500000 0.385340 -0.634323
O7    O     O_R   0.316760 0.500020 0.385330 -0.622291
O8    O     O_R   0.683240 0.499980 0.614670 -0.579804
Zn1   Zn    Zn3+2 0.500000 0.499980 0.653120 0.958444
Zn2   Zn    Zn3+2 0.500000 0.500020 0.346880 0.936200
H11   H     H_    0.280422 0.700154 0.924055 0.151018
H12   H     H_    0.766619 0.305429 0.101240 0.148991
H13   H     H_    0.285362 0.832395 0.130457 0.145345
H14   H     H_    0.831351 0.151357 0.928002 0.141930
H15   H     H_    0.180611 0.762731 0.339921 0.133298
H16   H     H_    0.910760 0.222792 0.705989 0.149325
O9    O     O_3   0.054515 0.398632 0.136099 -0.667747
C33   C     C_3   0.133820 0.300028 0.177263 0.088636
H17   H     H_    0.083178 0.243402 0.253710 0.165421
H18   H     H_    0.222113 0.330756 0.227354 0.145593
C34   C     C_3   0.163379 0.217437 0.054959 -0.345721
H19   H     H_    0.075616 0.188697 0.003853 0.244520
H20   H     H_    0.219591 0.271014 0.980828 0.204097
C35   C     C_3   0.234504 0.100603 0.098096 -1.015462
H21   H     H_    0.321521 0.125914 0.152731 0.262676
H22   H     H_    0.258718 0.045420 0.006545 0.268180
H23   H     H_    0.176356 0.042024 0.165835 0.270239
O10   O     O_3   0.835614 0.631222 0.813022 -0.656655
C36   C     C_3   0.938410 0.698267 0.864136 0.051053
H24   H     H_    0.025818 0.662047 0.819275 0.157073
H25   H     H_    0.943070 0.692021 0.977319 0.144996
C37   C     C_3   0.924478 0.835264 0.823366 -0.306325
H26   H     H_    0.918849 0.842509 0.710583 0.228102
H27   H     H_    0.837122 0.873081 0.866358 0.214771
C38   C     C_3   0.033825 0.913321 0.874616 -0.987083
H28   H     H_    0.038795 0.910473 0.987526 0.278363
H29   H     H_    0.021599 0.011716 0.841551 0.260580
H30   H     H_    0.122242 0.877748 0.832243 0.266502
H31   H     H_    0.175881 0.494782 0.928409 0.139196
H32   H     H_    0.777208 0.531128 0.050994 0.130552

loop_
_geom_bond_atom_site_label_1
_geom_bond_atom_site_label_2
_ccdc_geom_bond_type
C28   H32   S    
C26   O10   S    
C36   H24   S    
C37   C38   S    
C17   O7    A    
C13   H9    S    
C18   O8    A    
C20   C30   A    
C2    O2    A    
O6    Zn2   S    
C32   H4    S    
C22   C24   A    
C19   C21   A    
C37   H27   S    
C21   H15   S    
C8    C11   A    
C22   H16   S    
C27   C29   A    
C9    H7    S    
C3    C18   S    
C10   H8    S    
C33   H18   S    
C16   H2    S    
N1    Zn1   S    
C35   H21   S    
C34   H20   S    
C16   N2    A    
C14   H10   S    
C5    C32   A    
C6    C31   A    
O1    Zn1   S    
C36   H25   S    
C7    C12   A    
C1    C12   S    
C8    H6    S    
C2    C11   S    
O4    Zn1   S    
C37   H26   S    
C4    C6    A    
C17   O5    A    
C38   H29   S    
C1    O3    A    
C29   H11   S    
C2    O4    A    
C30   H12   S    
C19   H13   S    
C33   H17   S    
C13   C15   A    
C34   C35   S    
O2    Zn2   S    
C7    H5    S    
C25   O9    S    
C3    C31   A    
C9    C11   A    
C4    C32   A    
C10   C12   A    
O3    Zn2   S    
C4    C17   S    
C8    C10   A    
C20   C22   A    
C21   C23   A    
C36   C37   S    
C14   C16   A    
C20   H14   S    
C19   C29   A    
O8    Zn1   S    
C18   O6    A    
C7    C9    A    
C33   C34   S    
C24   C26   A    
O10   C36   S    
C3    C5    A    
C38   H30   S    
C25   C27   A    
C26   C28   A    
O7    Zn2   S    
C28   C30   A    
C15   N1    A    
C1    O1    A    
C5    C24   S    
C35   H23   S    
O5    Zn1   S    
C6    C23   S    
C27   H31   S    
C31   H3    S    
C23   C25   A    
O9    C33   S    
C38   H28   S    
N2    Zn2   S    
C35   H22   S    
C34   H19   S    
C15   H1    S    
C13   N2    A    
C14   N1    A    
