data_mof_unit_6775.cif
_audit_creation_date              2012-12-11T15:58:48-0500
_audit_creation_method            fapswitch 2.2
_symmetry_space_group_name_H-M    P1
_symmetry_Int_Tables_number       1
_space_group_crystal_system       triclinic
_cell_length_a                    8.244317
_cell_length_b                    18.832278
_cell_length_c                    19.102172
_cell_angle_alpha                 98.860078
_cell_angle_beta                  94.712398
_cell_angle_gamma                 91.18941
_cell_volume                      2918.81241712

loop_
_atom_site_label
_atom_site_type_symbol
_atom_type_description
_atom_site_fract_x
_atom_site_fract_y
_atom_site_fract_z
_atom_type_partial_charge
Ba1   Ba    Ba6+2 0.152460 0.535140 0.468980 1.762483
Ba2   Ba    Ba6+2 0.657710 0.464850 0.530960 1.698533
C1    C     C_3   0.312914 0.692168 0.208241 -0.253160
C2    C     C_R   0.103644 0.902636 0.561490 0.039316
C3    C     C_R   0.261026 0.925084 0.591551 -0.086617
C4    C     C_3   0.860433 0.735737 0.288869 0.428330
C5    C     C_R   0.320781 0.994748 0.589561 -0.099162
C6    C     C_R   0.223454 0.043795 0.558473 0.030387
C7    C     C_R   0.065907 0.021750 0.527420 0.019856
C8    C     C_R   0.280681 0.114664 0.559203 -0.113000
C9    C     C_R   0.181346 0.165346 0.530924 -0.036777
C10   C     C_R   0.024600 0.142697 0.497335 0.004445
C11   C     C_R   0.967895 0.070642 0.495709 -0.002932
C12   C     C_3   0.361951 0.680304 0.283973 0.433415
C13   C     C_R   0.231983 0.238443 0.536529 -0.008395
C14   C     C_R   0.126373 0.287186 0.510516 -0.273482
C15   C     C_R   0.978251 0.265139 0.471448 -0.025364
C16   C     C_3   0.775237 0.750854 0.218436 0.343596
C17   C     C_R   0.924247 0.191833 0.465541 -0.041911
C18   C     C_R   0.849551 0.928084 0.496897 0.016364
C19   C     C_R   0.791204 0.856496 0.496502 0.016142
C20   C     C_R   0.890655 0.807374 0.529202 -0.036402
C21   C     C_R   0.043196 0.832839 0.564008 -0.032726
C22   C     C_R   0.773177 0.166027 0.429647 -0.039616
C23   C     C_3   0.572063 0.672381 0.746702 0.265356
C24   C     C_R   0.715073 0.095525 0.429956 0.041685
C25   C     C_R   0.811864 0.047699 0.463515 0.016575
C26   C     C_R   0.752513 0.976671 0.464289 0.024133
C27   C     C_R   0.560074 0.072232 0.397664 -0.070423
C28   C     C_3   0.910012 0.303018 0.294510 0.719072
C29   C     C_R   0.500203 0.002725 0.399552 -0.034861
C30   C     C_R   0.595698 0.954446 0.432396 0.057097
C31   C     C_R   0.633897 0.834168 0.462864 -0.047539
C32   C     C_R   0.536814 0.884231 0.432910 -0.013582
C33   C     C_R   0.575578 0.763302 0.463436 -0.006889
C34   C     C_3   0.593868 0.662690 0.824539 -0.403957
C35   C     C_R   0.667865 0.719733 0.502983 -0.121328
C36   C     C_R   0.830172 0.735677 0.528525 0.034643
C37   C     C_R   0.607603 0.530403 0.299553 -0.205338
C38   C     C_R   0.463643 0.491258 0.274493 0.053979
C39   C     C_R   0.412167 0.482276 0.201322 -0.129085
C40   C     C_3   0.899626 0.220816 0.283789 -0.331873
C41   C     C_R   0.507381 0.510174 0.152471 0.002013
C42   C     C_R   0.657467 0.546026 0.179362 -0.064125
C43   C     C_R   0.705315 0.557588 0.252717 0.014132
C44   C     C_R   0.472791 0.550162 0.028819 0.153546
C45   C     C_3   0.903601 0.260561 0.667187 0.367760
C46   C     C_R   0.420512 0.535411 0.956561 -0.057000
C47   C     C_R   0.350900 0.468715 0.924962 0.026698
C48   C     C_R   0.330003 0.416097 0.968435 -0.066680
C49   C     C_R   0.381724 0.430136 0.041592 -0.074577
C50   C     C_R   0.454577 0.497341 0.073683 0.032640
C51   C     C_R   0.146906 0.426325 0.819208 -0.132936
C52   C     C_3   0.017688 0.614526 0.685441 0.296542
C53   C     C_R   0.094837 0.425925 0.747174 0.019205
C54   C     C_R   0.345235 0.487618 0.729626 0.020327
C55   C     C_R   0.400167 0.485949 0.800639 -0.138024
C56   C     C_3   0.882426 0.184252 0.682743 -0.357716
C57   C     C_R   0.300881 0.456965 0.846878 -0.004489
C58   C     C_R   0.195983 0.454867 0.702682 -0.274867
C59   C     C_3   0.055284 0.630479 0.765813 -0.385019
C60   C     C_3   0.328235 0.319118 0.374307 0.370603
C61   C     C_3   0.338317 0.238359 0.353382 -0.365529
C62   C     C_3   0.431554 0.299224 0.710762 0.361664
C63   C     C_3   0.453463 0.270664 0.781039 -0.349565
C64   C     C_R   0.006388 0.950720 0.528394 0.022208
H1    H     H_    0.288699 0.633229 0.293478 0.068566
H2    H     H_    0.213132 0.332684 0.397596 -0.110422
H3    H     H_    0.425855 0.337584 0.415951 0.100335
H4    H     H_    0.314145 0.640465 0.171561 0.069452
H5    H     H_    0.242083 0.217911 0.310732 0.117519
H6    H     H_    0.323788 0.211013 0.399920 0.054031
H7    H     H_    0.458257 0.225763 0.332954 0.127578
H8    H     H_    0.493401 0.668743 0.288761 -0.140447
H9    H     H_    0.398336 0.731009 0.191948 0.198009
H10   H     H_    0.681201 0.655778 0.719001 0.065555
H11   H     H_    0.564261 0.730959 0.745326 0.061742
H12   H     H_    0.770543 0.201054 0.275755 0.135470
H13   H     H_    0.655272 0.611854 0.829710 0.100109
H14   H     H_    0.673135 0.707147 0.855136 0.121489
H15   H     H_    0.474304 0.663390 0.847394 0.139384
H16   H     H_    0.189620 0.713984 0.203406 0.160511
H17   H     H_    0.842888 0.263391 0.613648 0.082938
H18   H     H_    0.035951 0.272568 0.667348 -0.075349
H19   H     H_    0.751139 0.168921 0.680345 0.149709
H20   H     H_    0.940711 0.146144 0.642956 0.066421
H21   H     H_    0.940551 0.180320 0.736490 0.118112
H22   H     H_    0.299646 0.306202 0.698311 -0.068009
H23   H     H_    0.963192 0.197725 0.236900 0.147865
H24   H     H_    0.497861 0.351975 0.716774 0.088296
H25   H     H_    0.404366 0.308956 0.823603 0.071473
H26   H     H_    0.584681 0.263794 0.795737 0.154404
H27   H     H_    0.387179 0.217977 0.776452 0.112704
H28   H     H_    0.338450 0.888572 0.616397 0.073005
H29   H     H_    0.442728 0.010549 0.613168 0.070789
H30   H     H_    0.164529 0.343346 0.517675 0.064936
H31   H     H_    0.402012 0.129936 0.583375 0.109232
H32   H     H_    0.117249 0.799114 0.593524 0.101879
H33   H     H_    0.697720 0.200588 0.401925 0.083551
H34   H     H_    0.961158 0.200892 0.330059 -0.010103
H35   H     H_    0.484438 0.107725 0.370996 0.070775
H36   H     H_    0.379523 0.986490 0.374629 0.106087
H37   H     H_    0.414751 0.869120 0.409388 0.128374
H38   H     H_    0.770106 0.721924 0.325308 -0.079775
H39   H     H_    0.517731 0.509864 0.820874 0.086992
H40   H     H_    0.431881 0.577599 0.924599 0.091538
H41   H     H_    0.299048 0.452614 0.182603 0.118125
H42   H     H_    0.276240 0.363828 0.945735 0.082850
H43   H     H_    0.366670 0.387592 0.072941 0.097970
H44   H     H_    0.065229 0.406363 0.853858 0.082579
H45   H     H_    0.125810 0.592369 0.660558 0.035163
H46   H     H_    0.740506 0.562492 0.143495 0.101185
H47   H     H_    0.153248 0.457216 0.648037 0.051805
H48   H     H_    0.865285 0.751011 0.178251 0.076669
H49   H     H_    0.648041 0.536671 0.355567 0.065459
H50   H     H_    0.686967 0.705733 0.200273 -0.030020
H51   H     H_    0.033921 0.323708 0.311663 -0.040091
H52   H     H_    0.480907 0.873403 0.153539 0.373694
H53   H     H_    0.636078 0.333643 0.143316 0.352249
H54   H     H_    0.916154 0.573945 0.673275 0.068458
H55   H     H_    0.158769 0.670144 0.779717 0.154606
H56   H     H_    0.087161 0.580609 0.787108 0.061986
H57   H     H_    0.947444 0.652923 0.791353 0.109524
I1    I     I_    0.001765 0.828038 0.342545 -0.291383
I2    I     I_    0.533257 0.671369 0.569029 -0.351223
I3    I     I_    0.566714 0.656490 0.058900 -0.488183
O1    O     O_2   0.118870 0.674530 0.547560 -0.439053
O2    O     O_2   0.760085 0.444476 0.745659 -0.498956
O3    O     O_3   0.832797 0.308350 0.719093 -0.591041
O4    O     O_3   0.870460 0.585330 0.542110 -0.472954
O5    O     O_3   0.436130 0.464210 0.414140 -0.494715
O6    O     O_2   0.629420 0.533310 0.672080 -0.467775
O7    O     O_3   0.424980 0.639652 0.712170 -0.623587
O8    O     O_2   0.567458 0.242479 0.527450 -0.499204
O9    O     O_3   0.495682 0.250484 0.657814 -0.599341
O10   O     O_3   0.354280 0.631750 0.418430 -0.476681
O11   O     O_2   0.233375 0.757686 0.459798 -0.456988
O12   O     O_3   0.340493 0.351423 0.313558 -0.597046
O13   O     O_3   0.975120 0.678439 0.660642 -0.635590
O14   O     O_3   0.331341 0.742009 0.331830 -0.544842
O15   O     O_2   0.180880 0.466650 0.327890 -0.430580
O16   O     O_3   0.939000 0.596010 0.380670 -0.462079
O17   O     O_2   0.036704 0.547515 0.255312 -0.437561
O18   O     O_2   0.559823 0.839771 0.282460 -0.322833
O19   O     O_2   0.782651 0.896993 0.231380 -0.242058
O20   O     O_3   0.550467 0.831176 0.145308 -0.478743
O21   O     O_2   0.873019 0.412440 0.220620 -0.310332
O22   O     O_2   0.973922 0.301076 0.157828 -0.298416
O23   O     O_3   0.972900 0.681542 0.272667 -0.640836
O24   O     O_3   0.666900 0.304620 0.181102 -0.509025
O25   O     O_2   0.691430 0.325420 0.452420 -0.464382
O26   O     O_3   0.939830 0.414660 0.457830 -0.467933
O27   O     O_3   0.456020 0.368240 0.581510 -0.489440
O28   O     O_3   0.798540 0.333188 0.341426 -0.610301
O29   O     O_3   0.374170 0.535780 0.585810 -0.424394
O30   O     O_3   0.871300 0.403980 0.619270 -0.488571
P1    P     P_3+3 0.947550 0.663200 0.567530 1.021164
P2    P     P_3+3 0.354660 0.445020 0.336980 1.061568
P3    P     P_3+3 0.907639 0.596913 0.289136 0.990661
P4    P     P_3+3 0.862750 0.336790 0.432410 0.978086
P5    P     P_3+3 0.888478 0.396217 0.709458 0.950731
P6    P     P_3+3 0.374719 0.724732 0.418888 1.022547
P7    P     P_3+3 0.443962 0.548124 0.677298 0.985775
P8    P     P_3+3 0.436403 0.274701 0.574933 0.926109
S1    S     S_3+6 0.666694 0.832960 0.222137 -0.061033
S2    S     S_3+6 0.859185 0.331932 0.210907 -0.054301

loop_
_geom_bond_atom_site_label_1
_geom_bond_atom_site_label_2
_ccdc_geom_bond_type
C51   H44   S    
C63   H26   S    
C55   H39   S    
O26   P4    S    
Ba2   O29   S    
C52   H54   S    
C8    H31   S    
C22   H33   S    
O22   S2    D    
O9    P8    S    
C43   P3    S    
C4    I1    S    
O16   P3    S    
C56   H21   S    
C16   H48   S    
C3    H28   S    
C51   C57   A    
C5    C6    A    
O10   P6    S    
C54   P7    S    
C24   C25   A    
C35   C36   A    
C45   O3    S    
O4    P1    S    
C23   H11   S    
C12   H8    S    
C18   C64   A    
Ba1   P2    S    
C33   C35   A    
C22   C24   A    
O11   P6    D    
C41   C50   S    
C55   C57   A    
C19   C31   A    
O14   P6    S    
C13   C14   A    
C20   C36   A    
O7    P7    S    
C54   C55   A    
Ba1   O26   S    
C59   H55   S    
Ba1   Ba2   S    
Ba1   O29   S    
C15   P4    S    
C7    C11   A    
C7    C64   A    
Ba1   O16   S    
C5    H29   S    
C15   C17   A    
C4    O23   S    
C9    C13   A    
C46   H40   S    
C29   C30   A    
C14   C15   A    
Ba2   O6    S    
C12   H1    S    
C4    H38   S    
Ba1   O10   S    
C23   O7    S    
O1    P1    D    
C37   C43   A    
H53   O24   S    
C63   H27   S    
C62   O9    S    
C49   H43   S    
C53   C58   A    
C48   H42   S    
C39   C41   A    
C58   H47   S    
C56   H20   S    
C16   S1    S    
C48   C49   A    
C35   I2    S    
C51   C53   A    
Ba2   O26   S    
C4    C16   S    
C44   C46   A    
C61   H6    S    
C14   H30   S    
C33   P6    S    
O27   P8    S    
C27   H35   S    
C49   C50   A    
C29   H36   S    
C13   P8    S    
C26   C30   A    
C1    H4    S    
C31   C32   A    
C53   P5    S    
Ba1   O4    S    
C34   H14   S    
C16   H50   S    
C37   C38   A    
C3    C5    A    
C2    C21   A    
C6    C7    A    
C62   H24   S    
O19   S1    D    
C18   C26   A    
O29   P7    S    
C54   C58   A    
C60   H3    S    
C59   H56   S    
C30   C32   A    
O5    P2    S    
C41   C42   A    
O28   P4    S    
C60   C61   S    
O21   S2    D    
C40   H34   S    
O12   P2    S    
C52   O13   S    
H52   O20   S    
C34   H15   S    
C18   C19   A    
C1    H16   S    
Ba2   O5    S    
O3    P5    S    
C45   H18   S    
C60   O12   S    
O23   P3    S    
C28   S2    S    
C1    C12   S    
C42   H46   S    
Ba2   P4    S    
C46   C47   A    
C52   C59   S    
O20   S1    S    
C61   H5    S    
O30   P5    S    
C40   H12   S    
Ba2   O27   S    
C37   H49   S    
C56   H19   S    
Ba2   O4    S    
C1    H9    S    
C42   C43   A    
C38   P2    S    
Ba2   O25   S    
C63   H25   S    
C38   C39   A    
Ba2   O30   S    
C39   H41   S    
C44   I3    S    
C28   C40   S    
Ba1   O1    S    
C36   P1    S    
C12   O14   S    
C2    C3    A    
Ba1   O5    S    
C34   H13   S    
C9    C10   A    
O17   P3    D    
C28   H51   S    
C61   H7    S    
C32   H37   S    
C47   C57   S    
C60   H2    S    
O18   S1    D    
C59   H57   S    
C40   H23   S    
C62   C63   S    
C23   H10   S    
Ba1   P1    S    
C17   C22   A    
O6    P7    D    
C27   C29   A    
O25   P4    D    
C44   C50   A    
C2    C64   A    
C10   C17   A    
O2    P5    D    
C31   C33   A    
O8    P8    D    
C52   H45   S    
Ba1   O15   S    
C8    C9    A    
C23   C34   S    
C45   H17   S    
O15   P2    D    
C28   O28   S    
C21   H32   S    
C10   C11   A    
O13   P1    S    
C24   C27   A    
C6    C8    A    
C47   C48   A    
C25   C26   A    
C20   C21   A    
C11   C25   A    
C19   C20   A    
C62   H22   S    
C45   C56   S    
O24   S2    S    
