data_mof_unit_15282.cif
_audit_creation_date              2012-12-11T14:51:50-0500
_audit_creation_method            fapswitch 2.2
_symmetry_space_group_name_H-M    P1
_symmetry_Int_Tables_number       1
_space_group_crystal_system       triclinic
_cell_length_a                    6.939937
_cell_length_b                    16.666084
_cell_length_c                    16.945443
_cell_angle_alpha                 101.458272
_cell_angle_beta                  89.990753
_cell_angle_gamma                 90.675954
_cell_volume                      1920.73591803

loop_
_atom_site_label
_atom_site_type_symbol
_atom_type_description
_atom_site_fract_x
_atom_site_fract_y
_atom_site_fract_z
_atom_type_partial_charge
O1    O     O_R   0.506340 0.439070 0.579550 -0.540579
O2    O     O_R   0.170010 0.404890 0.412100 -0.542805
O3    O     O_R   0.005010 0.560930 0.420450 -0.542399
C1    C     C_R   0.339218 0.381475 0.383219 0.704082
O4    O     O_R   0.176280 0.429360 0.578400 -0.545469
O5    O     O_R   0.011320 0.585570 0.587940 -0.540577
C2    C     C_R   0.343099 0.413550 0.605232 0.688413
O6    O     O_R   0.500030 0.414430 0.412060 -0.529474
O7    O     O_3   0.340950 0.551220 0.502940 -0.364962
V1    V     V_3+5 0.064020 0.490500 0.499460 1.411231
O8    O     O_R   0.681910 0.595110 0.587900 -0.545948
C3    C     C_R   0.851581 0.618416 0.616639 0.668074
O9    O     O_R   0.675640 0.570640 0.421600 -0.514295
C4    C     C_R   0.843222 0.584802 0.393776 0.754351
V2    V     V_3+5 0.564670 0.509500 0.500540 1.445125
O10   O     O_3   0.837610 0.448780 0.497060 -0.373732
C5    C     C_R   0.919259 0.856994 0.163328 -0.093818
C6    C     C_R   0.841777 0.632961 0.328713 -0.098384
C7    C     C_R   0.674362 0.671518 0.215266 -0.274382
C8    C     C_R   0.693190 0.619093 0.270430 0.361556
C9    C     C_R   0.973852 0.697301 0.328602 -0.310434
C10   C     C_R   0.954084 0.750040 0.273520 0.158425
C11   C     C_R   0.800890 0.738555 0.216776 0.044334
C12   C     C_R   0.782189 0.792494 0.161393 -0.055360
C13   C     C_R   0.069121 0.866563 0.220460 -0.212118
C14   C     C_R   0.085810 0.814362 0.274845 -0.170655
H1    H     H_    0.175508 0.915140 0.222976 0.121628
H2    H     H_    0.559745 0.658820 0.171220 0.108298
H3    H     H_    0.203752 0.824002 0.317739 0.116769
H4    H     H_    0.088057 0.708045 0.373264 0.135024
C15   C     C_3   0.810087 0.817940 0.731241 -0.151030
C16   C     C_3   0.979831 0.768448 0.687296 -0.141089
H5    H     H_    0.059220 0.783276 0.635039 0.100372
H6    H     H_    0.750197 0.874570 0.716255 0.099319
C17   C     C_3   0.865819 0.688672 0.687412 -0.005371
C18   C     C_3   0.695936 0.737334 0.730526 -0.126801
C19   C     C_3   0.786274 0.731417 0.812753 -0.119895
C20   C     C_3   0.956022 0.681936 0.768822 -0.142158
C21   C     C_3   0.070180 0.762543 0.769537 -0.115833
C22   C     C_3   0.900274 0.811206 0.812665 -0.009338
H7    H     H_    0.541723 0.726600 0.713946 0.108588
H8    H     H_    0.706616 0.716310 0.864784 0.155286
H9    H     H_    0.015894 0.625310 0.783824 0.106304
H10   H     H_    0.224383 0.773274 0.786139 0.111448
C23   C     C_3   0.478474 0.234651 0.313934 -0.139015
C24   C     C_3   0.315950 0.180194 0.267915 -0.138848
H11   H     H_    0.261450 0.121977 0.282535 0.094960
H12   H     H_    0.556416 0.222030 0.367281 0.100378
C25   C     C_3   0.409861 0.189165 0.187555 -0.008944
C26   C     C_3   0.572232 0.242843 0.232800 -0.121299
C27   C     C_3   0.450153 0.319974 0.231907 -0.129534
C28   C     C_3   0.287630 0.265519 0.185890 -0.137120
C29   C     C_3   0.193870 0.257328 0.267026 -0.118909
C30   C     C_3   0.356248 0.311011 0.312273 -0.014759
H13   H     H_    0.727595 0.236558 0.217885 0.104523
H14   H     H_    0.504734 0.378096 0.217152 0.135176
H15   H     H_    0.209699 0.278149 0.132545 0.105017
H16   H     H_    0.038507 0.263624 0.281939 0.104305
C31   C     C_R   0.428542 0.139774 0.833499 -0.067256
C32   C     C_R   0.338014 0.360356 0.666509 -0.066854
C33   C     C_R   0.147469 0.301554 0.763292 -0.202443
C34   C     C_R   0.167715 0.356595 0.711349 -0.164118
C35   C     C_R   0.490349 0.308313 0.676349 -0.245069
C36   C     C_R   0.469919 0.251953 0.728230 0.161258
C37   C     C_R   0.296693 0.248208 0.771809 0.160228
C38   C     C_R   0.276234 0.191832 0.823669 -0.244211
C39   C     C_R   0.598881 0.143559 0.788691 -0.166974
C40   C     C_R   0.619151 0.198612 0.736758 -0.204072
H17   H     H_    0.144922 0.190340 0.858038 0.121883
H18   H     H_    0.718981 0.104163 0.794436 0.124504
H19   H     H_    0.014012 0.300282 0.796263 0.122889
H20   H     H_    0.752620 0.199891 0.703798 0.120701
H21   H     H_    0.047608 0.395989 0.705610 0.126974
H22   H     H_    0.621641 0.309796 0.641965 0.120973
O11   O     O_R   0.266070 0.085680 0.087850 -0.541645
O12   O     O_R   0.590090 0.070660 0.921580 -0.546307
O13   O     O_R   0.754780 0.914400 0.912080 -0.526455
C41   C     C_R   0.423328 0.086529 0.894728 0.689085
O14   O     O_R   0.596110 0.095130 0.087880 -0.544237
O15   O     O_R   0.760850 0.939050 0.079570 -0.523461
C42   C     C_R   0.426889 0.118650 0.116664 0.667857
O16   O     O_R   0.260010 0.061030 0.920360 -0.541582
O17   O     O_3   0.425070 0.948840 0.997010 -0.351136
V3    V     V_3+5 0.702100 0.009490 0.000550 1.438686
O18   O     O_R   0.090200 0.929250 0.078500 -0.545126
C43   C     C_R   0.921646 0.912050 0.103813 0.753435
O19   O     O_R   0.084180 0.904770 0.912200 -0.544480
C44   C     C_R   0.914507 0.881483 0.883437 0.713821
V4    V     V_3+5 0.201420 0.990350 0.999580 1.428839
O20   O     O_3   0.928580 0.051150 0.002990 -0.377645
C45   C     C_2   0.624633 0.779433 0.100657 0.352363
H23   H     H_    0.477920 0.768966 0.118693 0.049894
O21   O     O_2   0.658401 0.777856 0.029672 -0.539757
O22   O     O_3   0.568047 0.553464 0.268196 -0.654228
H24   H     H_    0.472181 0.552322 0.224592 0.276016

loop_
_geom_bond_atom_site_label_1
_geom_bond_atom_site_label_2
_ccdc_geom_bond_type
O19   C44   A    
C6    C9    A    
C4    C6    S    
O2    C1    A    
C7    C8    A    
O15   V3    S    
O12   V3    S    
C23   C24   S    
C24   C25   S    
O16   V4    S    
C32   C35   A    
C36   C40   A    
C18   C19   S    
O12   C41   A    
C19   C22   S    
C31   C38   A    
O5    C3    A    
O14   V3    S    
C38   H17   S    
V2    O10   S    
C15   C22   S    
C32   C34   A    
C27   H14   S    
C16   C21   S    
C25   C42   S    
C19   H8    S    
O15   C43   A    
C31   C39   A    
O8    V2    S    
C15   C16   S    
O13   C44   A    
C11   C12   A    
C34   H21   S    
O1    V2    S    
O7    V1    S    
C1    O6    A    
C33   H19   S    
O9    C4    A    
C18   H7    S    
O22   H24   S    
V3    O20   S    
C31   C41   S    
C10   C11   A    
O17   V4    S    
C5    C12   A    
C39   C40   A    
C16   C17   S    
C17   C20   S    
C45   H23   S    
O4    C2    A    
O18   V4    S    
O11   C42   A    
O13   V3    S    
C13   C14   A    
O18   C43   A    
C5    C43   S    
C17   C18   S    
C7    C11   A    
C19   C20   S    
C45   O21   D    
C41   O16   A    
O17   V3    S    
C40   H20   S    
C25   C28   S    
C26   C27   S    
C15   H6    S    
C3    C17   S    
C7    H2    S    
O3    C4    A    
C23   C30   S    
C25   C26   S    
O6    V2    S    
O9    V2    S    
C20   H9    S    
O2    V1    S    
C12   C45   S    
C2    C32   S    
C21   C22   S    
C28   C29   S    
O14   C42   A    
C23   H12   S    
C8    O22   S    
C24   H11   S    
C1    C30   S    
O1    C2    A    
O5    V1    S    
C29   H16   S    
C29   C30   S    
C21   H10   S    
C35   H22   S    
C13   H1    S    
C9    H4    S    
C26   H13   S    
C27   C30   S    
C5    C13   A    
C16   H5    S    
C22   C44   S    
O19   V4    S    
O7    V2    S    
C27   C28   S    
O3    V1    S    
V1    O10   S    
C36   C37   A    
C20   C21   S    
C23   C26   S    
C24   C29   S    
C6    C8    A    
C33   C34   A    
C28   H15   S    
O11   V4    S    
C35   C36   A    
C33   C37   A    
O4    V1    S    
C14   H3    S    
C37   C38   A    
C10   C14   A    
C15   C18   S    
C39   H18   S    
V4    O20   S    
C9    C10   A    
O8    C3    A    
