data_mof_unit_9062.cif
_audit_creation_date              2012-12-10T17:36:23-0500
_audit_creation_method            fapswitch 2.2
_symmetry_space_group_name_H-M    P1
_symmetry_Int_Tables_number       1
_space_group_crystal_system       triclinic
_cell_length_a                    12.372623
_cell_length_b                    13.241238
_cell_length_c                    15.830499
_cell_angle_alpha                 77.783825
_cell_angle_beta                  99.94878
_cell_angle_gamma                 116.902225
_cell_volume                      2251.60921629

loop_
_atom_site_label
_atom_site_type_symbol
_atom_type_description
_atom_site_fract_x
_atom_site_fract_y
_atom_site_fract_z
_atom_type_partial_charge
C1    C     C_R   0.854909 0.286431 0.510560 0.756722
C2    C     C_3   0.062199 0.425102 0.069397 -0.357537
C3    C     C_3   0.001169 0.499242 0.083159 0.314404
C4    C     C_3   0.071023 0.623038 0.036759 -0.378197
C5    C     C_3   0.069147 0.623342 0.938610 -0.374630
C6    C     C_1   0.002612 0.499078 0.175645 -0.097292
C7    C     C_1   0.996664 0.500020 0.824396 -0.116292
C8    C     C_1   0.996810 0.500089 0.748710 -0.176588
C9    C     C_R   0.284121 0.996445 0.566093 -0.188360
C10   C     C_R   0.228163 0.832169 0.496578 -0.043171
C11   C     C_R   0.813188 0.104537 0.464155 -0.185067
C12   C     C_R   0.998833 0.499837 0.659266 0.807351
C13   C     C_R   0.731355 0.999248 0.439881 -0.151019
C14   C     C_R   0.608715 0.954331 0.453166 -0.178136
C15   C     C_R   0.566188 0.011491 0.495943 0.081088
C16   C     C_R   0.652829 0.113563 0.527551 0.091258
C17   C     C_R   0.441120 0.971400 0.508763 0.073635
C18   C     C_R   0.406876 0.031661 0.555278 0.163028
C19   C     C_R   0.495811 0.123078 0.594295 -0.221587
C20   C     C_R   0.617333 0.161554 0.582317 -0.201710
C21   C     C_R   0.348982 0.871865 0.479122 -0.237704
C22   C     C_R   0.194945 0.897109 0.536634 -0.196122
C23   C     C_R   0.145081 0.712887 0.489828 0.787388
C24   C     C_R   0.774190 0.164545 0.505308 -0.092436
C25   C     C_R   0.363643 0.367094 0.659532 -0.321673
C26   C     C_R   0.762888 0.646307 0.383516 0.085841
C27   C     C_R   0.674704 0.687561 0.364463 -0.270485
C28   C     C_R   0.574094 0.637606 0.412633 -0.134122
C29   C     C_R   0.558666 0.543259 0.478432 0.025453
C30   C     C_R   0.656751 0.512169 0.501093 0.289356
C31   C     C_R   0.453333 0.484114 0.526471 -0.063693
C32   C     C_R   0.460786 0.416981 0.607375 0.146300
C33   C     C_R   0.562545 0.395170 0.632861 -0.282486
C34   C     C_R   0.000988 0.499945 0.340743 0.838687
C35   C     C_R   0.653804 0.434935 0.577358 -0.175417
C36   C     C_R   0.338052 0.481272 0.494632 0.380074
C37   C     C_R   0.258561 0.382336 0.630406 0.036033
C38   C     C_3   0.060343 0.425389 0.971242 -0.386101
C39   C     C_3   0.866546 0.450199 0.942992 -0.377205
C40   C     C_3   0.868390 0.449890 0.041148 -0.378816
C41   C     C_1   0.002657 0.499280 0.251310 -0.132022
C42   C     C_3   0.998043 0.499749 0.916890 0.329311
Cu1   Cu    Cu3+1 0.098280 0.475420 0.519630 0.972056
Cu2   Cu    Cu3+1 0.901720 0.524580 0.480370 0.933097
H1    H     H_    0.013503 0.335543 0.102131 0.165321
H2    H     H_    0.155196 0.459349 0.953672 0.165929
H3    H     H_    0.157918 0.458972 0.098946 0.182454
H4    H     H_    0.028811 0.678135 0.045703 0.160924
H5    H     H_    0.101814 0.866594 0.551059 0.152980
H6    H     H_    0.471016 0.163143 0.635706 0.145972
H7    H     H_    0.257796 0.042997 0.600822 0.136817
H8    H     H_    0.368766 0.819663 0.446144 0.142038
H9    H     H_    0.905989 0.141595 0.447042 0.161450
H10   H     H_    0.550262 0.874642 0.429624 0.123946
H11   H     H_    0.762204 0.954218 0.407239 0.142130
H12   H     H_    0.010785 0.335946 0.956862 0.161067
H13   H     H_    0.684648 0.226910 0.618289 0.124459
H14   H     H_    0.185485 0.347331 0.672212 0.139732
H15   H     H_    0.568250 0.341135 0.693705 0.140731
H16   H     H_    0.369190 0.317229 0.722550 0.139882
H17   H     H_    0.841653 0.686037 0.346661 0.128723
H18   H     H_    0.510971 0.675886 0.399879 0.164922
H19   H     H_    0.685217 0.759225 0.313352 0.141443
H20   H     H_    0.721572 0.404796 0.596784 0.193584
H21   H     H_    0.819811 0.502321 0.904870 0.164705
H22   H     H_    0.813525 0.361222 0.928061 0.158780
H23   H     H_    0.816212 0.360753 0.073339 0.164118
H24   H     H_    0.822481 0.501840 0.050148 0.164964
H25   H     H_    0.164148 0.660890 0.920425 0.163997
H26   H     H_    0.026003 0.678548 0.900440 0.162787
H27   H     H_    0.166915 0.660400 0.065696 0.170221
N1    N     N_R   0.246300 0.438200 0.549400 -0.192080
N2    N     N_R   0.754300 0.561180 0.451130 -0.207539
O1    O     O_R   0.972520 0.318130 0.524690 -0.576114
O2    O     O_R   0.806530 0.359650 0.491530 -0.581252
O3    O     O_R   0.083030 0.479240 0.637150 -0.584490
O4    O     O_R   0.917040 0.520750 0.603990 -0.599808
O5    O     O_R   0.193470 0.640350 0.508470 -0.566642
O6    O     O_R   0.027480 0.681870 0.475310 -0.591928
O7    O     O_R   0.082960 0.479250 0.396010 -0.518056
O8    O     O_R   0.916970 0.520760 0.362850 -0.591128
Br1   Br    Br    0.300921 0.492571 0.370349 -0.548253

loop_
_geom_bond_atom_site_label_1
_geom_bond_atom_site_label_2
_ccdc_geom_bond_type
C5    C42   S    
Cu1   N1    S    
C19   C20   A    
C9    H7    S    
C3    C6    S    
C7    C8    T    
C10   C22   A    
Cu1   O5    S    
C26   C27   A    
C5    H26   S    
C30   C35   A    
C1    O1    A    
Cu2   O4    S    
C26   H17   S    
C38   C42   S    
C9    C22   A    
C15   C16   A    
C11   C24   A    
C26   N2    A    
C18   C19   A    
C7    C42   S    
C5    H25   S    
C25   C37   A    
C36   Br1   S    
C6    C41   T    
C35   H20   S    
C25   H16   S    
C37   H14   S    
C11   H9    S    
C8    C12   S    
C34   O7    A    
Cu1   O1    S    
C33   H15   S    
C13   C14   A    
C39   H21   S    
C34   C41   S    
C39   C42   S    
C10   C21   A    
C1    O2    A    
Cu2   O8    S    
C39   C40   S    
C30   N2    A    
Cu1   O7    S    
C40   H23   S    
C17   C21   A    
Cu2   O2    S    
Cu1   Cu2   S    
C29   C30   A    
C2    C38   S    
C31   C32   A    
C16   C20   A    
C12   O4    A    
C17   C18   A    
C27   H19   S    
C22   H5    S    
C34   O8    A    
C3    C40   S    
C12   O3    A    
C2    H3    S    
C39   H22   S    
C3    C4    S    
C4    H4    S    
Cu1   O3    S    
C15   C17   A    
C28   C29   A    
C14   H10   S    
C31   C36   A    
Cu2   O6    S    
C4    C5    S    
C10   C23   S    
C32   C33   A    
C2    C3    S    
C29   C31   A    
C11   C13   A    
C19   H6    S    
C25   C32   A    
C33   C35   A    
C4    H27   S    
C23   O5    A    
Cu2   N2    S    
C38   H2    S    
C2    H1    S    
C9    C18   A    
C38   H12   S    
C1    C24   S    
C16   C24   A    
C40   H24   S    
C37   N1    A    
C27   C28   A    
C14   C15   A    
C23   O6    A    
C20   H13   S    
C21   H8    S    
C36   N1    A    
C13   H11   S    
C28   H18   S    
