data_mof_unit_29134.cif
_audit_creation_date              2012-12-10T16:53:12-0500
_audit_creation_method            fapswitch 2.2
_symmetry_space_group_name_H-M    P1
_symmetry_Int_Tables_number       1
_space_group_crystal_system       triclinic
_cell_length_a                    10.821563
_cell_length_b                    10.924953
_cell_length_c                    9.758852
_cell_angle_alpha                 90.81462
_cell_angle_beta                  90.549787
_cell_angle_gamma                 88.589631
_cell_volume                      1153.22550314

loop_
_atom_site_label
_atom_site_type_symbol
_atom_type_description
_atom_site_fract_x
_atom_site_fract_y
_atom_site_fract_z
_atom_type_partial_charge
C1    C     C_R   0.496164 0.265816 0.499197 0.813652
C2    C     C_R   0.073476 0.387489 0.535781 0.012523
C3    C     C_R   0.129840 0.497021 0.498706 -0.182861
C4    C     C_R   0.059887 0.601151 0.462079 0.220840
C5    C     C_R   0.931291 0.597956 0.464241 0.211809
C6    C     C_R   0.872405 0.489767 0.501016 -0.199163
C7    C     C_2   0.489239 0.932504 0.392057 -0.078460
C8    C     C_2   0.467550 0.865752 0.503909 0.021683
C9    C     C_2   0.474703 0.066052 0.389538 -0.129333
C10   C     C_2   0.501439 0.133827 0.500257 -0.306026
C11   C     C_2   0.449794 0.417370 0.922779 0.046926
C12   C     C_R   0.263078 0.503258 0.499524 0.841240
C13   C     C_2   0.425538 0.435866 0.072921 0.248390
C14   C     C_R   0.493084 0.734398 0.500847 0.856862
C15   C     C_R   0.737578 0.494334 0.500449 0.934658
C16   C     C_R   0.146285 0.282763 0.569797 -0.211835
C17   C     C_R   0.092723 0.173941 0.604244 -0.091709
C18   C     C_R   0.965399 0.164711 0.603551 0.171504
C19   C     C_R   0.889538 0.267204 0.568293 0.107569
C20   C     C_R   0.942894 0.381644 0.536039 0.039493
Cu1   Cu    Cu3+1 0.500020 0.500020 0.638630 1.038908
Cu2   Cu    Cu3+1 0.499980 0.499980 0.361370 1.000453
H1    H     H_    0.535048 0.092550 0.594258 0.179142
H2    H     H_    0.416469 0.334493 0.874054 0.123646
H3    H     H_    0.583393 0.518132 0.112944 0.235651
H4    H     H_    0.245969 0.283007 0.569377 0.145681
H5    H     H_    0.151078 0.095403 0.629936 0.184727
H6    H     H_    0.521260 0.888291 0.298046 0.173017
H7    H     H_    0.450719 0.108896 0.292774 0.164203
N1    N     N_2   0.498640 0.498660 0.846910 -0.073978
N2    N     N_2   0.498610 0.498630 0.153040 -0.269145
O1    O     O_R   0.500020 0.321960 0.617040 -0.600227
O2    O     O_R   0.499980 0.321920 0.382900 -0.594689
O3    O     O_R   0.319670 0.500020 0.617100 -0.568480
O4    O     O_R   0.319630 0.499980 0.382950 -0.584448
O5    O     O_R   0.500020 0.678080 0.617100 -0.533521
O6    O     O_R   0.499980 0.678040 0.382960 -0.553665
O7    O     O_R   0.680370 0.500020 0.617050 -0.541280
O8    O     O_R   0.680330 0.499980 0.382900 -0.563760
Br1   Br    Br    0.141063 0.749838 0.413005 -0.454176
Br2   Br    Br    0.509312 0.662373 0.913875 -0.408976
N3    N     N_3   0.316941 0.380714 0.124158 -0.584153
H8    H     H_    0.340007 0.324774 0.206579 0.249944
H9    H     H_    0.254289 0.449960 0.154117 0.269167
N4    N     N_3   0.914503 0.049161 0.637400 -0.544819
H10   H     H_    0.856993 0.061510 0.722138 0.222729
H11   H     H_    0.861865 0.017725 0.554384 0.259488
N5    N     N_3   0.759501 0.252124 0.559630 -0.602252
H12   H     H_    0.728316 0.222945 0.654494 0.220834
H13   H     H_    0.742782 0.184794 0.485136 0.216494
Br3   Br    Br    0.835424 0.744430 0.420166 -0.468375
N6    N     N_3   0.408141 0.918869 0.622623 -0.579572
H14   H     H_    0.325865 0.873052 0.638199 0.262177
H15   H     H_    0.465556 0.903597 0.707764 0.251495

loop_
_geom_bond_atom_site_label_1
_geom_bond_atom_site_label_2
_ccdc_geom_bond_type
H3    N2    S    
N1    Br2   S    
Cu1   O3    S    
C10   H1    S    
C6    C20   A    
Cu1   N1    S    
C8    N6    S    
C19   C20   A    
C9    H7    S    
C7    H6    S    
N5    H13   S    
C17   C18   A    
C1    O2    A    
C7    C8    D    
C15   O7    A    
Cu1   O5    S    
N4    H10   S    
C12   O4    A    
C14   O5    A    
Cu2   O4    S    
C11   C13   S    
C15   O8    A    
C16   C17   A    
N3    H9    S    
Cu2   O8    S    
C9    C10   D    
N5    H12   S    
N6    H15   S    
C2    C3    A    
N4    H11   S    
C16   H4    S    
C5    C6    A    
Cu1   O1    S    
Cu2   N2    S    
Cu1   O7    S    
C12   O3    A    
C3    C4    A    
C17   H5    S    
C18   N4    S    
C11   H2    S    
C2    C16   A    
N6    H14   S    
C18   C19   A    
N3    H8    S    
C7    C9    S    
Cu2   O2    S    
C19   N5    S    
C13   N3    S    
C8    C14   S    
C3    C12   S    
C6    C15   S    
Cu1   Cu2   S    
Cu2   O6    S    
C2    C20   A    
C13   N2    D    
C1    O1    A    
C5    Br3   S    
C1    C10   S    
C4    Br1   S    
C11   N1    D    
C4    C5    A    
C14   O6    A    
