data_mof_unit_62857.cif
_audit_creation_date              2012-12-10T19:57:46-0500
_audit_creation_method            fapswitch 2.2
_symmetry_space_group_name_H-M    P1
_symmetry_Int_Tables_number       1
_space_group_crystal_system       triclinic
_cell_length_a                    39.254398
_cell_length_b                    32.364143
_cell_length_c                    22.08682
_cell_angle_alpha                 89.964425
_cell_angle_beta                  124.305905
_cell_angle_gamma                 90.049641
_cell_volume                      23178.5703739

loop_
_atom_site_label
_atom_site_type_symbol
_atom_type_description
_atom_site_fract_x
_atom_site_fract_y
_atom_site_fract_z
_atom_type_partial_charge
C1    C     C_R   0.420093 0.499993 0.397125 0.835689
C2    C     C_R   0.579909 0.500019 0.602317 0.839170
C3    C     C_R   0.920093 0.999993 0.397125 0.835689
C4    C     C_R   0.079909 0.000019 0.602317 0.839170
C5    C     C_R   0.272846 0.526523 0.292676 -0.005022
C6    C     C_R   0.727110 0.527230 0.706882 -0.004961
C7    C     C_R   0.772846 0.026523 0.292676 -0.005022
C8    C     C_R   0.227110 0.027230 0.706882 -0.004961
C9    C     C_R   0.292766 0.500073 0.271550 0.026363
C10   C     C_R   0.707245 0.500616 0.727972 0.026510
C11   C     C_R   0.792766 0.000073 0.271550 0.026363
C12   C     C_R   0.207245 0.000616 0.727972 0.026510
C13   C     C_R   0.269267 0.472722 0.212018 -0.076797
C14   C     C_R   0.730805 0.473416 0.787735 -0.076656
C15   C     C_R   0.769267 0.972722 0.212018 -0.076797
C16   C     C_R   0.230805 0.973416 0.787735 -0.076656
C17   C     C_1   0.161718 0.501028 0.155901 -0.019303
C18   C     C_1   0.838275 0.502328 0.844069 -0.018936
C19   C     C_1   0.661718 0.001028 0.155901 -0.019303
C20   C     C_1   0.338275 0.002328 0.844069 -0.018936
C21   C     C_1   0.338024 0.499952 0.313695 -0.002526
C22   C     C_1   0.661983 0.500264 0.685720 -0.002792
C23   C     C_1   0.838025 0.999952 0.313695 -0.002526
C24   C     C_1   0.161983 0.000264 0.685720 -0.002792
C25   C     C_1   0.375248 0.499954 0.349907 -0.161840
C26   C     C_1   0.624758 0.500092 0.649476 -0.161936
C27   C     C_1   0.875248 0.999954 0.349907 -0.161840
C28   C     C_1   0.124758 0.000092 0.649476 -0.161936
C29   C     C_1   0.124588 0.502053 0.123085 -0.207035
C30   C     C_1   0.875406 0.503482 0.876900 -0.209000
C31   C     C_1   0.624588 0.002053 0.123085 -0.207035
C32   C     C_1   0.375406 0.003482 0.876900 -0.209000
C33   C     C_R   0.499996 0.420229 0.998488 0.933361
C34   C     C_R   0.999996 0.920229 0.998488 0.933361
C35   C     C_R   0.499664 0.503542 0.881570 0.928262
C36   C     C_R   0.500336 0.500183 0.118430 0.933191
C37   C     C_R   0.999664 0.003542 0.881570 0.928262
C38   C     C_R   0.000336 0.000183 0.118430 0.933191
C39   C     C_R   0.500011 0.579816 0.001730 0.903286
C40   C     C_R   0.000011 0.079815 0.001730 0.903286
C41   C     C_R   0.483466 0.499987 0.601521 0.818921
C42   C     C_R   0.516534 0.500004 0.398479 0.817077
C43   C     C_R   0.983466 0.999987 0.601521 0.818921
C44   C     C_R   0.016534 0.000004 0.398479 0.817077
C45   C     C_R   0.000527 0.420377 0.000552 0.916070
C46   C     C_R   0.500527 0.920377 0.000552 0.916070
C47   C     C_R   0.079733 0.502218 0.079564 0.901050
C48   C     C_R   0.920266 0.503564 0.920436 0.905196
C49   C     C_R   0.579733 0.002218 0.079564 0.901050
C50   C     C_R   0.420266 0.003564 0.920436 0.905196
C51   C     C_R   0.001074 0.579682 0.001049 0.892652
C52   C     C_R   0.501074 0.079682 0.001049 0.892652
C53   C     C_R   0.974210 0.727890 0.011886 -0.258871
C54   C     C_R   0.027222 0.728021 0.987874 -0.259421
C55   C     C_R   0.474210 0.227890 0.011886 -0.258871
C56   C     C_R   0.527222 0.228021 0.987874 -0.259421
C57   C     C_R   0.000882 0.706536 0.000255 0.101511
C58   C     C_R   0.500882 0.206536 0.000255 0.101511
C59   C     C_R   0.527384 0.271231 0.986986 0.193928
C60   C     C_R   0.473485 0.271094 0.011536 0.193494
C61   C     C_R   0.027384 0.771231 0.986986 0.193928
C62   C     C_R   0.973486 0.771094 0.011536 0.193494
C63   C     C_R   0.500325 0.293122 0.999023 0.106021
C64   C     C_R   0.000325 0.793122 0.999023 0.106021
C65   C     C_1   0.001080 0.661580 0.000724 -0.019925
C66   C     C_1   0.501080 0.161580 0.000724 -0.019925
C67   C     C_1   0.500186 0.338415 0.998729 -0.030130
C68   C     C_1   0.000186 0.838415 0.998729 -0.030130
C69   C     C_1   0.500033 0.375526 0.998443 -0.244251
C70   C     C_1   0.000033 0.875526 0.998443 -0.244251
C71   C     C_2   0.529758 0.503764 0.808689 -0.174383
C72   C     C_2   0.470242 0.500200 0.191311 -0.179884
C73   C     C_2   0.029758 0.003764 0.808689 -0.174383
C74   C     C_2   0.970242 0.000200 0.191311 -0.179884
C75   C     C_1   0.001163 0.624413 0.001019 -0.169427
C76   C     C_1   0.501163 0.124413 0.001019 -0.169427
C77   C     C_R   0.973463 0.271561 0.935230 0.222415
C78   C     C_R   0.027308 0.271683 0.067351 0.222535
C79   C     C_R   0.473463 0.771561 0.935230 0.222415
C80   C     C_R   0.527308 0.771683 0.067351 0.222535
C81   C     C_R   0.000472 0.293245 0.001174 -0.001628
C82   C     C_R   0.500472 0.793245 0.001174 -0.001628
C83   C     C_R   0.526811 0.728273 0.066608 -0.207287
C84   C     C_R   0.473712 0.728153 0.936384 -0.207048
C85   C     C_R   0.026811 0.228273 0.066608 -0.207287
C86   C     C_R   0.973712 0.228153 0.936384 -0.207049
C87   C     C_R   0.500189 0.706800 0.001610 0.056206
C88   C     C_R   0.000189 0.206800 0.001610 0.056206
C89   C     C_1   0.000565 0.338407 0.000958 -0.073758
C90   C     C_1   0.500565 0.838407 0.000958 -0.073758
C91   C     C_1   0.500107 0.661787 0.001804 -0.023982
C92   C     C_1   0.000107 0.161787 0.001804 -0.023982
C93   C     C_1   0.500051 0.624593 0.001881 -0.166246
C94   C     C_1   0.000051 0.124593 0.001881 -0.166246
C95   C     C_1   0.000587 0.375607 0.000741 -0.180859
C96   C     C_1   0.500587 0.875607 0.000741 -0.180859
C97   C     C_2   0.496527 0.504869 0.812165 -0.311435
C98   C     C_2   0.503473 0.500255 0.187835 -0.315609
C99   C     C_2   0.996527 0.004869 0.812165 -0.311435
C100  C     C_2   0.003473 0.000255 0.187835 -0.315609
C101  C     C_2   0.523500 0.501746 0.735046 -0.143324
C102  C     C_2   0.476500 0.500102 0.264954 -0.140519
C103  C     C_2   0.023500 0.001746 0.735046 -0.143324
C104  C     C_2   0.976500 0.000102 0.264954 -0.140519
C105  C     C_2   0.485355 0.500056 0.669974 -0.106048
C106  C     C_2   0.514645 0.500022 0.330026 -0.105032
C107  C     C_2   0.985354 0.000056 0.669974 -0.106048
C108  C     C_2   0.014645 0.000022 0.330026 -0.105032
C109  C     C_R   0.225582 0.472132 0.172808 0.187734
C110  C     C_R   0.774494 0.473106 0.827147 0.187389
C111  C     C_R   0.725582 0.972132 0.172808 0.187734
C112  C     C_R   0.274494 0.973105 0.827147 0.187389
C113  C     C_R   0.206397 0.499419 0.194928 0.106943
C114  C     C_R   0.793610 0.500524 0.804996 0.106992
C115  C     C_R   0.706397 0.999419 0.194928 0.106943
C116  C     C_R   0.293610 0.000524 0.804996 0.106992
C117  C     C_R   0.229916 0.526135 0.254234 -0.272452
C118  C     C_R   0.770037 0.527111 0.745514 -0.272356
C119  C     C_R   0.729916 0.026135 0.254234 -0.272452
C120  C     C_R   0.270037 0.027111 0.745514 -0.272356
H1    H     H_    0.560523 0.497914 0.856159 0.175372
H2    H     H_    0.439476 0.499975 0.143840 0.177955
H3    H     H_    0.060523 0.997914 0.856159 0.175372
H4    H     H_    0.939476 0.999975 0.143840 0.177955
H5    H     H_    0.953888 0.710840 0.021376 0.149226
H6    H     H_    0.047750 0.711070 0.978833 0.149067
H7    H     H_    0.453888 0.210840 0.021376 0.149226
H8    H     H_    0.547750 0.211070 0.978833 0.149067
H9    H     H_    0.453459 0.710606 0.886925 0.161009
H10   H     H_    0.546987 0.710812 0.116210 0.160854
H11   H     H_    0.953458 0.210607 0.886925 0.161009
H12   H     H_    0.046987 0.210812 0.116210 0.160854
H13   H     H_    0.466278 0.499221 0.763589 0.194565
H14   H     H_    0.533722 0.500032 0.236411 0.196443
H15   H     H_    0.966277 0.999220 0.763589 0.194565
H16   H     H_    0.033722 0.000032 0.236411 0.196443
H17   H     H_    0.549460 0.502374 0.731825 0.151087
H18   H     H_    0.450539 0.500041 0.268175 0.150338
H19   H     H_    0.049460 0.002374 0.731825 0.151087
H20   H     H_    0.950540 0.000041 0.268175 0.150338
H21   H     H_    0.214715 0.546738 0.270680 0.164248
H22   H     H_    0.785197 0.547826 0.729074 0.164220
H23   H     H_    0.714715 0.046738 0.270680 0.164248
H24   H     H_    0.285197 0.047826 0.729074 0.164220
O1    O     O_R   0.439010 0.534430 0.439020 -0.587940
O2    O     O_R   0.560990 0.534430 0.560980 -0.589687
O3    O     O_R   0.939010 0.034430 0.439020 -0.587940
O4    O     O_R   0.060990 0.034430 0.560980 -0.589687
O5    O     O_R   0.060990 0.500040 0.112010 -0.615907
O6    O     O_R   0.939010 0.500040 0.887990 -0.612511
O7    O     O_R   0.560990 0.000040 0.112010 -0.615907
O8    O     O_R   0.439010 0.000040 0.887990 -0.612511
O9    O     O_R   0.060980 0.499970 0.009870 -0.625839
O10   O     O_R   0.939020 0.499970 0.990130 -0.622932
O11   O     O_R   0.560980 0.999970 0.009870 -0.625839
O12   O     O_R   0.439020 0.999970 0.990130 -0.622932
O13   O     O_R   0.000010 0.561020 0.051000 -0.623028
O14   O     O_R   0.999990 0.561020 0.949000 -0.623017
O15   O     O_R   0.500010 0.061020 0.051000 -0.623028
O16   O     O_R   0.499990 0.061020 0.949000 -0.623017
O17   O     O_R   0.439010 0.465570 0.438980 -0.587977
O18   O     O_R   0.560990 0.465570 0.561020 -0.589380
O19   O     O_R   0.939010 0.965570 0.438980 -0.587977
O20   O     O_R   0.060990 0.965570 0.561020 -0.589380
O21   O     O_R   0.500010 0.534430 0.590460 -0.593315
O22   O     O_R   0.499990 0.534430 0.409540 -0.594036
O23   O     O_R   0.000010 0.034430 0.590460 -0.593315
O24   O     O_R   0.999990 0.034430 0.409540 -0.594036
O25   O     O_R   0.500010 0.465570 0.590420 -0.593694
O26   O     O_R   0.499990 0.465570 0.409580 -0.593609
O27   O     O_R   0.000010 0.965570 0.590420 -0.593694
O28   O     O_R   0.999990 0.965570 0.409580 -0.593609
O29   O     O_R   0.534430 0.439010 0.034350 -0.620953
O30   O     O_R   0.465570 0.439010 0.965650 -0.620942
O31   O     O_R   0.034430 0.939010 0.034350 -0.620953
O32   O     O_R   0.965570 0.939010 0.965650 -0.620942
O33   O     O_R   0.534420 0.500000 0.943920 -0.622579
O34   O     O_R   0.465580 0.500000 0.056080 -0.624251
O35   O     O_R   0.034420 0.000000 0.943920 -0.622579
O36   O     O_R   0.965580 0.000000 0.056080 -0.624251
O37   O     O_R   0.465560 0.500000 0.875080 -0.621319
O38   O     O_R   0.534440 0.500000 0.124920 -0.623118
O39   O     O_R   0.965560 1.000000 0.875080 -0.621319
O40   O     O_R   0.034440 0.000000 0.124920 -0.623118
O41   O     O_R   0.534430 0.560990 0.034430 -0.622679
O42   O     O_R   0.465570 0.560990 0.965570 -0.622967
O43   O     O_R   0.034430 0.060990 0.034430 -0.622679
O44   O     O_R   0.965570 0.060990 0.965570 -0.622967
O45   O     O_R   0.000000 0.439050 0.051090 -0.617600
O46   O     O_R   0.000000 0.439050 0.948910 -0.617603
O47   O     O_R   0.500000 0.939050 0.051090 -0.617600
O48   O     O_R   0.500000 0.939050 0.948910 -0.617603
Zn1   Zn    Zn3+2 0.500000 0.545980 0.500000 0.999368
Zn2   Zn    Zn3+2 0.000000 0.045980 0.500000 0.999368
Zn3   Zn    Zn3+2 0.500000 0.454020 0.500000 0.999584
Zn4   Zn    Zn3+2 0.000000 0.954020 0.500000 0.999584
Zn5   Zn    Zn3+2 0.545980 0.500000 0.045940 0.977469
Zn6   Zn    Zn3+2 0.454020 0.500000 0.954060 0.977274
Zn7   Zn    Zn3+2 0.045980 0.000000 0.045940 0.977469
Zn8   Zn    Zn3+2 0.954020 1.000000 0.954060 0.977274
Zn9   Zn    Zn3+2 0.000010 0.500050 0.068180 0.972281
Zn10  Zn    Zn3+2 0.999990 0.500050 0.931820 0.972542
Zn11  Zn    Zn3+2 0.500010 0.000050 0.068180 0.972281
Zn12  Zn    Zn3+2 0.499990 0.000050 0.931820 0.972542
N1    N     N_2   0.945795 0.294064 0.867228 -0.297859
H25   H     H_    0.945410 0.326226 0.866387 0.236781
C121  C     C_3   0.917474 0.272070 0.798338 -0.772205
H26   H     H_    0.899280 0.294670 0.753794 0.242104
H27   H     H_    0.895976 0.252839 0.803545 0.244644
H28   H     H_    0.935107 0.252641 0.784010 0.245020
N2    N     N_2   0.054980 0.294294 0.135222 -0.297928
H29   H     H_    0.055351 0.326457 0.135905 0.236238
C122  C     C_3   0.083262 0.272395 0.204247 -0.772475
H30   H     H_    0.101102 0.295061 0.248843 0.241986
H31   H     H_    0.105060 0.253477 0.199430 0.245007
H32   H     H_    0.065640 0.252672 0.218259 0.244589
N3    N     N_2   0.445795 0.794064 0.867228 -0.297859
H33   H     H_    0.445410 0.826226 0.866387 0.236781
C123  C     C_3   0.417474 0.772070 0.798338 -0.772205
H34   H     H_    0.399280 0.794670 0.753794 0.242104
H35   H     H_    0.395976 0.752839 0.803545 0.244644
H36   H     H_    0.435107 0.752641 0.784010 0.245020
N4    N     N_2   0.554980 0.794294 0.135222 -0.297928
H37   H     H_    0.555351 0.826457 0.135905 0.236238
C124  C     C_3   0.583262 0.772395 0.204247 -0.772475
H38   H     H_    0.601102 0.795061 0.248843 0.241986
H39   H     H_    0.605060 0.753477 0.199430 0.245007
H40   H     H_    0.565640 0.752672 0.218259 0.244589
C125  C     C_1   0.445257 0.499313 0.665110 0.086665
N5    N     N_1   0.412478 0.499047 0.656954 -0.186101
C126  C     C_1   0.554743 0.500016 0.334889 0.086749
N6    N     N_1   0.587522 0.500034 0.343046 -0.186240
C127  C     C_1   0.945257 0.999313 0.665110 0.086665
N7    N     N_1   0.912478 0.999047 0.656954 -0.186101
C128  C     C_1   0.054743 0.000016 0.334889 0.086749
N8    N     N_1   0.087522 0.000034 0.343046 -0.186240
C129  C     C_1   0.291731 0.443692 0.192261 0.152716
N9    N     N_1   0.309941 0.420937 0.177552 -0.197292
C130  C     C_1   0.708370 0.444305 0.807554 0.152798
N10   N     N_1   0.690158 0.421504 0.822281 -0.197520
C131  C     C_1   0.791731 0.943692 0.192261 0.152716
N11   N     N_1   0.809940 0.920937 0.177552 -0.197292
C132  C     C_1   0.208370 0.944305 0.807554 0.152798
N12   N     N_1   0.190158 0.921504 0.822281 -0.197520
N13   N     N_2   0.201511 0.444302 0.110168 -0.308679
H41   H     H_    0.216618 0.423921 0.096383 0.231484
C133  C     C_3   0.156047 0.442751 0.066568 -0.718245
H42   H     H_    0.144666 0.419223 0.022993 0.231158
H43   H     H_    0.142474 0.473033 0.040969 0.252806
H44   H     H_    0.145431 0.434446 0.101929 0.240598
N14   N     N_2   0.798633 0.445365 0.889920 -0.309216
H45   H     H_    0.783556 0.424952 0.903791 0.231333
C134  C     C_3   0.844110 0.444038 0.933647 -0.715316
H46   H     H_    0.855536 0.420581 0.977360 0.230982
H47   H     H_    0.857545 0.474383 0.959080 0.252538
H48   H     H_    0.854846 0.435798 0.898463 0.241380
N15   N     N_2   0.701511 0.944302 0.110168 -0.308679
H49   H     H_    0.716618 0.923921 0.096383 0.231484
C135  C     C_3   0.656047 0.942751 0.066568 -0.718245
H50   H     H_    0.644666 0.919223 0.022993 0.231158
H51   H     H_    0.642474 0.973033 0.040969 0.252806
H52   H     H_    0.645431 0.934446 0.101929 0.240598
N16   N     N_2   0.298633 0.945365 0.889920 -0.309216
H53   H     H_    0.283556 0.924952 0.903791 0.231333
C136  C     C_3   0.344110 0.944038 0.933647 -0.715316
H54   H     H_    0.355536 0.920581 0.977360 0.230982
H55   H     H_    0.357545 0.974383 0.959080 0.252538
H56   H     H_    0.354846 0.935798 0.898463 0.241380
C137  C     C_1   0.296782 0.555136 0.357620 0.185021
N17   N     N_1   0.315421 0.577784 0.408929 -0.184427
C138  C     C_1   0.703160 0.555813 0.641887 0.184935
N18   N     N_1   0.684538 0.578456 0.590557 -0.184671
C139  C     C_1   0.796782 0.055136 0.357620 0.185021
N19   N     N_1   0.815421 0.077784 0.408929 -0.184427
C140  C     C_1   0.203160 0.055813 0.641887 0.184935
N20   N     N_1   0.184538 0.078456 0.590557 -0.184671
N21   N     N_2   0.444986 0.291699 0.024135 -0.308124
H57   H     H_    0.425612 0.274334 0.032547 0.223725
C141  C     C_3   0.442530 0.336847 0.024995 -0.721004
H58   H     H_    0.418973 0.345944 0.035193 0.231528
H59   H     H_    0.433763 0.349444 0.971581 0.255063
H60   H     H_    0.472690 0.349689 0.068883 0.246479
N22   N     N_2   0.555729 0.291984 0.974084 -0.307600
H61   H     H_    0.575094 0.274702 0.965611 0.223738
C142  C     C_3   0.557734 0.337143 0.972199 -0.723243
H62   H     H_    0.581077 0.346330 0.961494 0.231558
H63   H     H_    0.566429 0.350148 0.025327 0.255430
H64   H     H_    0.527417 0.349521 0.928114 0.245780
N23   N     N_2   0.944986 0.791699 0.024135 -0.308124
H65   H     H_    0.925612 0.774335 0.032547 0.223725
C143  C     C_3   0.942530 0.836847 0.024995 -0.721004
H66   H     H_    0.918972 0.845944 0.035193 0.231528
H67   H     H_    0.933763 0.849444 0.971581 0.255063
H68   H     H_    0.972690 0.849689 0.068883 0.246479
N24   N     N_2   0.055729 0.791984 0.974084 -0.307600
H69   H     H_    0.075094 0.774702 0.965611 0.223738
C144  C     C_3   0.057734 0.837143 0.972199 -0.723243
H70   H     H_    0.081077 0.846330 0.961494 0.231558
H71   H     H_    0.066429 0.850148 0.025327 0.255430
H72   H     H_    0.027417 0.849521 0.928114 0.245780

loop_
_geom_bond_atom_site_label_1
_geom_bond_atom_site_label_2
_ccdc_geom_bond_type
C52   O16   A    
C74   H4    S    
C15   C131  S    
N13   C133  S    
C3    O3    A    
C2    O2    A    
C87   C91   S    
N22   C142  S    
C119  H23   S    
C144  H70   S    
C111  N15   S    
C1    O1    A    
C143  H66   S    
C120  H24   S    
C84   C87   A    
C112  C116  A    
C46   O47   A    
C135  H52   S    
C19   C31   T    
C2    O18   A    
O32   Zn8   S    
C17   C113  S    
N14   H45   S    
N24   C144  S    
C40   O43   A    
C72   C98   D    
C122  H30   S    
C10   C22   S    
C7    C11   A    
C54   H6    S    
C135  H50   S    
C55   C60   A    
C125  N5    T    
O35   Zn7   S    
C48   O10   A    
C29   C47   S    
C60   C63   A    
N4    C124  S    
C64   C68   S    
C30   C48   S    
C143  H67   S    
C51   C75   S    
C131  N11   T    
C142  H64   S    
C48   O6    A    
C85   H12   S    
C102  H18   S    
C14   C130  S    
C86   C88   A    
C86   H11   S    
C133  H44   S    
C123  H35   S    
O44   Zn8   S    
C132  N12   T    
C4    O4    A    
C73   C99   D    
C84   H9    S    
C124  H40   S    
C17   C29   T    
C106  C126  S    
O17   Zn3   S    
O3    Zn2   S    
N16   C136  S    
N15   H49   S    
C44   O24   A    
C141  H60   S    
C9    C13   A    
C39   C93   S    
C62   C64   A    
C34   O31   A    
C42   O26   A    
C124  H39   S    
C39   O42   A    
C11   C15   A    
C58   C66   S    
C103  C107  D    
C130  N10   T    
C50   O12   A    
C61   N24   S    
C7    C119  A    
C41   O21   A    
O18   Zn3   S    
C121  H28   S    
C13   C109  A    
C128  N8    T    
C4    O20   A    
C102  C106  D    
C134  H46   S    
C18   C30   T    
C23   C27   T    
C8    C12   A    
C33   O29   A    
C136  H54   S    
C110  C114  A    
N3    C123  S    
O1    Zn1   S    
C33   C69   S    
C77   N1    S    
C81   C89   S    
C52   O15   A    
C133  H43   S    
C107  C127  S    
C108  C128  S    
C109  N13   S    
N1    C121  S    
C50   O8    A    
O24   Zn2   S    
N21   H57   S    
C46   O48   A    
C1    C25   S    
C144  H71   S    
C18   C114  S    
O38   Zn5   S    
O47   Zn11  S    
C31   C49   S    
C80   C83   A    
C12   C16   A    
O37   Zn6   S    
C46   C96   S    
C4    C28   S    
C71   H1    S    
C124  H38   S    
C35   O33   A    
C44   C108  S    
C101  C105  D    
C97   H13   S    
C37   O35   A    
C141  H59   S    
C63   C67   S    
C118  H22   S    
O30   Zn6   S    
C62   N23   S    
C38   O36   A    
C101  H17   S    
C49   O7    A    
O29   Zn5   S    
C121  H26   S    
C88   C92   S    
N16   H53   S    
C143  H68   S    
C36   O34   A    
C38   O40   A    
C83   H10   S    
C38   C100  S    
C85   C88   A    
C10   C14   A    
C40   C94   S    
C123  H34   S    
C20   C116  S    
N13   H41   S    
C43   O27   A    
C34   C70   S    
O46   Zn10  S    
C13   C129  S    
C144  H72   S    
C47   O9    A    
O45   Zn9   S    
N3    H33   S    
N1    H25   S    
C41   O25   A    
C80   N4    S    
C51   O13   A    
N4    H37   S    
C116  C120  A    
C5    C117  A    
C67   C69   T    
C105  C125  S    
C89   C95   T    
C61   C64   A    
C117  H21   S    
C44   O28   A    
C34   O32   A    
C5    C9    A    
C142  H62   S    
O36   Zn8   S    
C15   C111  A    
C91   C93   T    
C71   C97   D    
C53   C62   A    
O15   Zn11  S    
N2    H29   S    
C16   C112  A    
C19   C115  S    
C141  H58   S    
O40   Zn7   S    
C66   C76   T    
C100  H16   S    
C92   C94   T    
C139  N19   T    
O48   Zn12  S    
C99   H15   S    
C2    C26   S    
C74   C104  S    
C43   C107  S    
O2    Zn1   S    
C33   O30   A    
C42   C106  S    
O31   Zn7   S    
C114  C118  A    
C53   H5    S    
C113  C117  A    
C78   C85   A    
C45   O45   A    
N2    C122  S    
C140  N20   T    
C55   H7    S    
C77   C86   A    
C115  C119  A    
C60   N21   S    
N21   C141  S    
C52   C76   S    
C103  H19   S    
C47   O5    A    
O23   Zn2   S    
O28   Zn4   S    
C36   O38   A    
O6    Zn10  S    
O11   Zn12  S    
C45   C95   S    
O5    Zn9   S    
C104  C108  D    
O10   Zn9   S    
C8    C120  A    
C79   N3    S    
C134  H47   S    
O9    Zn10  S    
C20   C32   T    
C122  H32   S    
O4    Zn2   S    
C14   C110  A    
C21   C25   T    
C53   C57   A    
O33   Zn5   S    
C79   C84   A    
C72   H2    S    
C6    C138  S    
C59   C63   A    
C49   O11   A    
O8    Zn12  S    
C24   C28   T    
O7    Zn11  S    
O27   Zn4   S    
C135  H51   S    
O21   Zn1   S    
C83   C87   A    
O16   Zn12  S    
C79   C82   A    
C74   C100  D    
C133  H42   S    
O20   Zn4   S    
C90   C96   T    
C59   N22   S    
C40   O44   A    
C54   C61   A    
C109  C113  A    
C110  N14   S    
C35   O37   A    
C98   H14   S    
C51   O14   A    
C5    C137  S    
O39   Zn8   S    
C82   C90   S    
C56   C59   A    
O34   Zn6   S    
C78   C81   A    
O41   Zn5   S    
C3    O19   A    
N22   H61   S    
C134  H48   S    
C3    C27   S    
C122  H31   S    
C73   H3    S    
N24   H69   S    
C136  H55   S    
C35   C97   S    
C123  H36   S    
C43   O23   A    
O25   Zn3   S    
C37   C99   S    
C9    C21   S    
O26   Zn3   S    
C72   C102  S    
O19   Zn4   S    
O14   Zn10  S    
C11   C23   S    
N23   C143  S    
C80   C82   A    
C56   C58   A    
C32   C50   S    
C7    C139  S    
C56   H8    S    
C71   C101  S    
C12   C24   S    
C136  H56   S    
C129  N9    T    
C8    C140  S    
N14   C134  S    
C6    C10   A    
C142  H63   S    
C112  N16   S    
C1    O17   A    
C39   O41   A    
C16   C132  S    
C42   O22   A    
C45   O46   A    
C73   C103  S    
O22   Zn1   S    
O13   Zn9   S    
C41   C105  S    
C111  C115  A    
C77   C81   A    
C22   C26   T    
C55   C58   A    
O43   Zn7   S    
C126  N6    T    
C121  H27   S    
C68   C70   T    
N23   H65   S    
O42   Zn6   S    
C36   C98   S    
N15   C135  S    
C137  N17   T    
O12   Zn11  S    
C78   N2    S    
C6    C118  A    
C65   C75   T    
C138  N18   T    
C127  N7    T    
C104  H20   S    
C57   C65   S    
C54   C57   A    
C37   O39   A    
