data_mof_unit_33647.cif
_audit_creation_date              2012-12-10T21:27:32-0500
_audit_creation_method            fapswitch 2.2
_symmetry_space_group_name_H-M    P1
_symmetry_Int_Tables_number       1
_space_group_crystal_system       triclinic
_cell_length_a                    10.406654
_cell_length_b                    16.213316
_cell_length_c                    16.703139
_cell_angle_alpha                 87.190085
_cell_angle_beta                  92.910937
_cell_angle_gamma                 104.028455
_cell_volume                      2728.71784962

loop_
_atom_site_label
_atom_site_type_symbol
_atom_type_description
_atom_site_fract_x
_atom_site_fract_y
_atom_site_fract_z
_atom_type_partial_charge
C1    C     C_R   0.498281 0.488463 0.652934 0.845049
C2    C     C_R   0.482272 0.106325 0.478373 -0.008188
C3    C     C_R   0.622468 0.860518 0.555932 -0.076475
C4    C     C_R   0.377823 0.139499 0.443886 -0.078231
C5    C     C_R   0.617717 0.772697 0.551090 0.430621
C6    C     C_R   0.382815 0.227399 0.448342 0.423497
C7    C     C_R   0.745261 0.534085 0.498558 0.845825
C8    C     C_R   0.254598 0.466110 0.497029 0.861480
C9    C     C_2   0.886408 0.549528 0.483773 0.230971
C10   C     C_2   0.111292 0.451521 0.486299 0.236169
C11   C     C_2   0.923632 0.501451 0.429701 0.376659
C12   C     C_R   0.503795 0.512031 0.346651 0.906171
C13   C     C_2   0.062946 0.498037 0.428788 0.373416
C14   C     C_R   0.488056 0.480699 0.739299 -0.085469
C15   C     C_R   0.532725 0.523265 0.261397 -0.110957
C16   C     C_R   0.391191 0.514531 0.771608 -0.263070
C17   C     C_R   0.607972 0.470817 0.232309 -0.237465
C18   C     C_R   0.385342 0.519923 0.854083 0.096961
C19   C     C_R   0.642257 0.477087 0.152642 0.087030
C20   C     C_R   0.481275 0.493562 0.904073 0.246865
C21   C     C_R   0.594520 0.533774 0.100425 0.252212
C22   C     C_R   0.572985 0.454235 0.872200 -0.201193
C23   C     C_R   0.578232 0.447344 0.789325 0.053108
C24   C     C_R   0.525436 0.589720 0.129167 -0.191271
C25   C     C_3   0.721309 0.418667 0.123045 -0.417677
C26   C     C_3   0.629787 0.334712 0.096247 -0.331104
C27   C     C_3   0.708905 0.277231 0.062839 -0.891091
C28   C     C_3   0.281040 0.557893 0.887691 -0.409842
C29   C     C_3   0.173098 0.488615 0.927333 -0.329084
C30   C     C_3   0.067920 0.526337 0.961877 -0.893048
C31   C     C_3   0.678746 0.407160 0.752957 -0.382464
C32   C     C_3   0.784922 0.384200 0.811265 -0.401647
C33   C     C_3   0.883742 0.349511 0.766518 -0.790036
C34   C     C_R   0.493528 0.585960 0.209984 0.060332
C35   C     C_3   0.414661 0.644697 0.241193 -0.382229
C36   C     C_3   0.358514 0.700264 0.178076 -0.415597
C37   C     C_3   0.276924 0.752811 0.217136 -0.786833
C38   C     C_3   0.741126 0.918203 0.597754 -0.302471
C39   C     C_3   0.857833 0.943506 0.541805 -0.324824
C40   C     C_3   0.976168 0.004412 0.581736 -0.852554
C41   C     C_3   0.261952 0.081485 0.400019 -0.293255
C42   C     C_3   0.299094 0.063986 0.315876 -0.322775
C43   C     C_3   0.185511 0.001374 0.273668 -0.862319
C44   C     C_R   0.414072 0.751404 0.475139 0.413162
C45   C     C_R   0.585779 0.248562 0.525250 0.440626
C46   C     C_R   0.408250 0.835955 0.485496 0.350971
C47   C     C_R   0.590704 0.163593 0.515978 0.348007
C48   C     C_R   0.516675 0.893319 0.522890 -0.007554
H1    H     H_    0.639572 0.423810 0.271699 0.210676
H2    H     H_    0.933753 0.632932 0.565968 0.344949
H3    H     H_    0.764293 0.309157 0.010247 0.253927
H4    H     H_    0.779990 0.261560 0.109560 0.268356
H5    H     H_    0.640285 0.217188 0.043475 0.253075
H6    H     H_    0.574010 0.301089 0.148126 0.223885
H7    H     H_    0.557198 0.347483 0.049013 0.233774
H8    H     H_    0.782148 0.450516 0.072400 0.205001
H9    H     H_    0.791774 0.405510 0.171536 0.202574
H10   H     H_    0.113176 0.571515 0.009180 0.263540
H11   H     H_    0.020575 0.560120 0.913850 0.263562
H12   H     H_    0.321201 0.538076 0.731894 0.160987
H13   H     H_    0.990294 0.474485 0.988851 0.244158
H14   H     H_    0.124788 0.441709 0.882094 0.223695
H15   H     H_    0.217403 0.454558 0.976585 0.234401
H16   H     H_    0.328465 0.606392 0.931814 0.205557
H17   H     H_    0.233874 0.591284 0.839109 0.202586
H18   H     H_    0.831543 0.292696 0.732998 0.295031
H19   H     H_    0.938034 0.398890 0.723816 0.275021
H20   H     H_    0.956556 0.330636 0.810084 0.228822
H21   H     H_    0.839869 0.441617 0.843044 0.232428
H22   H     H_    0.737140 0.334579 0.855906 0.224249
H23   H     H_    0.640663 0.430493 0.913071 0.154292
H24   H     H_    0.622675 0.347865 0.724723 0.218174
H25   H     H_    0.730565 0.451791 0.705616 0.197883
H26   H     H_    0.191444 0.710414 0.247349 0.276251
H27   H     H_    0.339228 0.795067 0.261916 0.280608
H28   H     H_    0.238518 0.792885 0.170517 0.236158
H29   H     H_    0.441063 0.744821 0.147073 0.225598
H30   H     H_    0.293718 0.659285 0.133261 0.227937
H31   H     H_    0.329721 0.604426 0.273280 0.243668
H32   H     H_    0.479770 0.687852 0.284181 0.219611
H33   H     H_    0.655102 0.343305 0.591148 0.354710
H34   H     H_    0.492861 0.633198 0.086229 0.144689
H35   H     H_    0.348359 0.658750 0.406873 0.380416
H36   H     H_    0.718735 0.095874 0.508319 0.342400
H37   H     H_    0.278550 0.901105 0.496762 0.337642
H38   H     H_    0.948919 0.063724 0.597032 0.287154
H39   H     H_    0.010219 0.973966 0.637191 0.263098
H40   H     H_    0.059013 0.021258 0.539990 0.245442
H41   H     H_    0.888819 0.885850 0.525186 0.264415
H42   H     H_    0.827061 0.974956 0.485923 0.215420
H43   H     H_    0.716246 0.976458 0.618008 0.222649
H44   H     H_    0.770760 0.885405 0.653145 0.223975
H45   H     H_    0.089202 0.572285 0.333738 0.337425
H46   H     H_    0.161829 0.939533 0.308088 0.291516
H47   H     H_    0.095847 0.027297 0.267602 0.258851
H48   H     H_    0.214850 0.990331 0.212851 0.246479
H49   H     H_    0.323202 0.124641 0.279505 0.224574
H50   H     H_    0.387719 0.036939 0.319580 0.240308
H51   H     H_    0.229674 0.020965 0.435395 0.199343
H52   H     H_    0.174319 0.109488 0.394704 0.237890
H53   H     H_    0.877874 0.420770 0.344832 0.327712
H54   H     H_    0.679875 0.684986 0.610512 0.373376
H55   H     H_    0.322203 0.315959 0.389022 0.378003
H56   H     H_    0.082269 0.372151 0.577778 0.333550
N1    N     N_2   0.484115 0.507097 0.986704 -0.202833
N2    N     N_2   0.598383 0.525157 0.017577 -0.201562
N3    N     N_R   0.515370 0.719110 0.509820 -0.232802
N4    N     N_R   0.484630 0.280890 0.490180 -0.229974
N5    N     N_2   0.520368 0.981916 0.530941 -0.139758
N6    N     N_2   0.477634 0.017510 0.470583 -0.137970
O1    O     O_R   0.494500 0.421750 0.612630 -0.647131
O2    O     O_3   0.831020 0.451839 0.378589 -0.797915
O3    O     O_3   0.718581 0.742854 0.589228 -0.767498
O4    O     O_3   0.283434 0.257565 0.408747 -0.759474
O5    O     O_3   0.027259 0.397594 0.538214 -0.750319
O6    O     O_3   0.980529 0.606743 0.527733 -0.753746
O7    O     O_3   0.689084 0.298597 0.568168 -0.675427
O8    O     O_3   0.312055 0.701714 0.431218 -0.664015
O9    O     O_3   0.704289 0.139924 0.543485 -0.705267
O10   O     O_3   0.293941 0.859328 0.459309 -0.704361
O11   O     O_R   0.505500 0.578250 0.387370 -0.644410
O12   O     O_R   0.504370 0.562470 0.618930 -0.629362
O13   O     O_R   0.495630 0.437530 0.381070 -0.621301
O14   O     O_R   0.679100 0.455920 0.498020 -0.553057
O15   O     O_R   0.320900 0.544080 0.501980 -0.564018
O16   O     O_R   0.688960 0.596630 0.504320 -0.609713
O17   O     O_R   0.311040 0.403370 0.495680 -0.607059
O18   O     O_3   0.143130 0.542211 0.369745 -0.824181
Zn1   Zn    Zn3+2 0.493410 0.406040 0.495790 0.970039
Zn2   Zn    Zn3+2 0.506590 0.593960 0.504210 0.961236

loop_
_geom_bond_atom_site_label_1
_geom_bond_atom_site_label_2
_ccdc_geom_bond_type
C37   H26   S    
C29   H15   S    
C38   H44   S    
C41   C42   S    
C35   H32   S    
C35   C36   S    
C25   H8    S    
C7    O14   A    
C26   H7    S    
H53   O2    S    
C33   H19   S    
C26   C27   S    
C40   H39   S    
C28   C29   S    
C19   C21   A    
C36   H29   S    
C42   H50   S    
C38   C39   S    
C31   H25   S    
C4    C41   S    
O16   Zn2   S    
H33   O7    S    
C3    C48   A    
C43   H46   S    
C15   C17   A    
C34   C35   S    
C16   H12   S    
C40   H38   S    
C24   H34   S    
C1    O12   A    
C6    O4    S    
C13   O18   S    
O15   Zn2   S    
O1    Zn1   S    
C12   O11   A    
C3    C38   S    
C27   H3    S    
C36   C37   S    
C43   H47   S    
C41   H51   S    
O11   Zn2   S    
C39   H42   S    
H2    O6    S    
C21   N2    S    
C45   N4    A    
C47   O9    S    
C48   N5    S    
C37   H27   S    
O13   Zn1   S    
C25   H9    S    
N3    Zn2   S    
C26   H6    S    
C44   C46   A    
C33   H18   S    
C45   C47   A    
C46   C48   A    
H55   O4    S    
C18   C28   S    
C4    C6    A    
C42   H49   S    
C17   H1    S    
C39   C40   S    
C32   H22   S    
C25   C26   S    
C38   H43   S    
C24   C34   A    
C23   C31   S    
C14   C23   A    
H37   O10   S    
C2    C4    A    
O17   Zn1   S    
C29   C30   S    
H56   O5    S    
C8    O17   A    
C31   C32   S    
C12   C15   S    
C44   O8    S    
C30   H11   S    
C43   H48   S    
C41   H52   S    
C46   O10   S    
C9    C11   D    
N4    Zn1   S    
C28   H16   S    
C16   C18   A    
C31   H24   S    
C37   H28   S    
C20   C22   A    
C14   C16   A    
C30   H13   S    
C42   C43   S    
C22   H23   S    
C27   H4    S    
H35   O8    S    
C20   N1    S    
C5    N3    A    
C44   N3    A    
C45   O7    S    
C7    C9    S    
C29   H14   S    
C2    N6    S    
C15   C34   A    
C5    O3    S    
C11   O2    S    
C9    O6    S    
C3    C5    A    
C10   C13   D    
C27   H5    S    
C32   H21   S    
C2    C47   A    
N1    N2    D    
C32   C33   S    
C40   H40   S    
C28   H17   S    
H45   O18   S    
H54   O3    S    
C36   H30   S    
N5    N6    D    
C1    O1    A    
C11   C13   S    
C12   O13   A    
H36   O9    S    
C30   H10   S    
C35   H31   S    
C17   C19   A    
C39   H41   S    
O14   Zn1   S    
C18   C20   A    
C7    O16   A    
C19   C25   S    
C8    O15   A    
C8    C10   S    
C21   C24   A    
C6    N4    A    
C22   C23   A    
C1    C14   S    
O12   Zn2   S    
C10   O5    S    
C33   H20   S    
