data_mof_unit_29331.cif
_audit_creation_date              2012-12-11T15:34:32-0500
_audit_creation_method            fapswitch 2.2
_symmetry_space_group_name_H-M    P1
_symmetry_Int_Tables_number       1
_space_group_crystal_system       triclinic
_cell_length_a                    15.067112
_cell_length_b                    15.074516
_cell_length_c                    34.941876
_cell_angle_alpha                 90.551174
_cell_angle_beta                  89.998114
_cell_angle_gamma                 60.069368
_cell_volume                      6877.43575121

loop_
_atom_site_label
_atom_site_type_symbol
_atom_type_description
_atom_site_fract_x
_atom_site_fract_y
_atom_site_fract_z
_atom_type_partial_charge
C1    C     C_R   0.302573 0.608226 0.555756 0.543355
C2    C     C_R   0.223737 0.717075 0.388537 -0.144927
C3    C     C_R   0.750036 0.136576 0.267127 -0.140200
C4    C     C_R   0.756947 0.126982 0.227390 0.368999
C5    C     C_R   0.674810 0.196070 0.204584 -0.003774
C6    C     C_R   0.725295 0.224832 0.349059 -0.126585
C7    C     C_R   0.709070 0.243203 0.388324 -0.126330
C8    C     C_R   0.549466 0.241359 0.383031 -0.117756
C9    C     C_R   0.742215 0.584438 0.647091 0.381257
C10   C     C_R   0.565448 0.223755 0.343800 -0.045770
C11   C     C_R   0.651337 0.219458 0.326428 0.059795
C12   C     C_R   0.618823 0.255910 0.405374 0.015859
C13   C     C_R   0.200598 0.722290 0.349806 -0.185840
C14   C     C_R   0.086373 0.707007 0.093464 0.026023
C15   C     C_R   0.106337 0.613153 0.109292 0.374483
C16   C     C_R   0.143284 0.588576 0.146471 -0.071046
C17   C     C_R   0.161321 0.656519 0.168204 -0.028671
C18   C     C_R   0.150012 0.745542 0.151330 -0.127179
C19   C     C_R   0.112948 0.770549 0.114231 -0.171063
C20   C     C_R   0.251199 0.661034 0.227404 -0.091709
C21   C     C_R   0.200459 0.639458 0.331276 0.036829
C22   C     C_R   0.566018 0.722882 0.650368 -0.183606
C23   C     C_R   0.247721 0.628490 0.409161 -0.035238
C24   C     C_R   0.736055 0.025371 0.943315 0.547480
C25   C     C_R   0.745946 0.722860 0.945070 0.540292
C26   C     C_R   0.038190 0.734039 0.948318 0.540408
C27   C     C_R   0.723098 0.038596 0.052883 0.551748
C28   C     C_R   0.733452 0.734477 0.054711 0.541420
C29   C     C_R   0.659539 0.659857 0.668714 0.037101
C30   C     C_R   0.027956 0.744477 0.057768 0.568622
C31   C     C_R   0.552300 0.704835 0.612224 -0.156132
C32   C     C_R   0.673584 0.673297 0.788188 0.331685
C33   C     C_R   0.666981 0.667147 0.710628 0.364849
C34   C     C_R   0.761230 0.597844 0.849872 -0.118229
C35   C     C_R   0.777705 0.609009 0.888406 -0.128284
C36   C     C_R   0.628778 0.779152 0.888978 -0.129967
C37   C     C_R   0.612281 0.767956 0.850424 -0.120943
C38   C     C_R   0.680855 0.678841 0.830127 0.034842
C39   C     C_R   0.610727 0.588480 0.555194 0.550029
C40   C     C_R   0.258456 0.659374 0.267112 -0.080265
C41   C     C_R   0.714178 0.701439 0.907871 0.022022
C42   C     C_R   0.723583 0.072372 0.905452 -0.035730
C43   C     C_R   0.632939 0.103554 0.884809 -0.145175
C44   C     C_R   0.629127 0.124552 0.845950 -0.182990
C45   C     C_R   0.715467 0.115501 0.827097 0.032933
C46   C     C_R   0.803813 0.091809 0.848183 0.377855
C47   C     C_R   0.807659 0.070501 0.887145 -0.086980
C48   C     C_R   0.741403 0.190381 0.767580 -0.055981
C49   C     C_R   0.734697 0.201699 0.727932 -0.114035
C50   C     C_R   0.701370 0.146343 0.705300 0.021693
C51   C     C_R   0.193667 0.638522 0.289424 0.073709
C52   C     C_R   0.590377 0.300347 0.553503 0.543379
C53   C     C_R   0.677965 0.077177 0.722918 -0.113562
C54   C     C_R   0.684214 0.066293 0.762528 -0.117282
C55   C     C_R   0.714465 0.123936 0.785152 0.056047
C56   C     C_R   0.591813 0.180252 0.647615 -0.117343
C57   C     C_R   0.565122 0.216718 0.610468 -0.123566
C58   C     C_R   0.722376 0.222554 0.604595 -0.121904
C59   C     C_R   0.749116 0.185902 0.641742 -0.113915
C60   C     C_R   0.682349 0.167895 0.664043 0.030922
C61   C     C_R   0.628314 0.241883 0.589140 0.019637
C62   C     C_R   0.123535 0.616508 0.271615 -0.043207
C63   C     C_R   0.091485 0.697523 0.911199 0.019391
C64   C     C_R   0.300231 0.610170 0.446103 0.550472
C65   C     C_R   0.121671 0.758485 0.891077 -0.114569
C66   C     C_R   0.145134 0.741080 0.852224 -0.108419
C67   C     C_R   0.139961 0.661834 0.832916 0.025684
C68   C     C_R   0.119463 0.594785 0.853645 -0.115542
C69   C     C_R   0.095160 0.612600 0.892563 -0.123081
C70   C     C_R   0.209988 0.561827 0.772112 -0.104334
C71   C     C_R   0.218478 0.557778 0.732269 -0.099479
C72   C     C_R   0.163088 0.647038 0.710571 0.035501
C73   C     C_R   0.116321 0.618051 0.231902 -0.092918
C74   C     C_R   0.096877 0.739670 0.729411 -0.102003
C75   C     C_R   0.089221 0.743829 0.769178 -0.101938
C76   C     C_R   0.607851 0.589606 0.445234 0.544610
C77   C     C_R   0.146951 0.655335 0.790843 0.026657
C78   C     C_R   0.191359 0.723845 0.652102 -0.116673
C79   C     C_R   0.223695 0.715319 0.614220 -0.122950
C80   C     C_R   0.230185 0.551909 0.608363 -0.122598
C81   C     C_R   0.197406 0.560676 0.646267 -0.108839
C82   C     C_R   0.181194 0.645026 0.668885 0.032946
C83   C     C_R   0.247185 0.627463 0.592433 0.020428
C84   C     C_R   0.179129 0.641710 0.209564 0.038677
C85   C     C_R   0.691576 0.718392 0.090460 0.017216
C86   C     C_R   0.605617 0.800165 0.108261 -0.119634
C87   C     C_R   0.578669 0.790758 0.145613 -0.112914
C88   C     C_R   0.587628 0.303296 0.443650 0.545909
C89   C     C_R   0.637042 0.699423 0.165720 0.027486
C90   C     C_R   0.718295 0.615437 0.146862 -0.113230
C91   C     C_R   0.745191 0.624774 0.109598 -0.111102
C92   C     C_R   0.633250 0.604002 0.223342 -0.113358
C93   C     C_R   0.633137 0.594124 0.262950 -0.106931
C94   C     C_R   0.620199 0.674643 0.287167 0.024519
C95   C     C_R   0.215443 0.554597 0.352545 0.399192
C96   C     C_R   0.603059 0.766797 0.271196 -0.110128
C97   C     C_R   0.603990 0.776454 0.231536 -0.103690
C98   C     C_R   0.621144 0.694363 0.207241 0.025994
C99   C     C_R   0.549681 0.734942 0.352998 -0.116762
C100  C     C_R   0.631936 0.623459 0.591753 -0.037119
C101  C     C_R   0.548267 0.715419 0.391905 -0.122389
C102  C     C_R   0.704327 0.552215 0.383764 -0.117005
C103  C     C_R   0.705105 0.571377 0.344881 -0.112609
C104  C     C_R   0.625924 0.661201 0.328988 0.031101
C105  C     C_R   0.623551 0.622123 0.407360 0.022475
C106  C     C_R   0.238513 0.549497 0.391323 -0.083663
C107  C     C_R   0.699703 0.100725 0.088128 -0.038549
C108  C     C_R   0.773031 0.121995 0.103822 -0.143410
C109  C     C_R   0.761274 0.160250 0.141058 -0.119340
C110  C     C_R   0.676250 0.177601 0.163105 0.060760
C111  C     C_R   0.598569 0.164670 0.146357 0.379945
C112  C     C_R   0.728172 0.566558 0.608974 -0.088512
C113  C     C_R   0.610214 0.126852 0.109048 -0.081279
C114  C     C_R   0.587660 0.276634 0.222021 -0.081729
C115  C     C_R   0.580517 0.285770 0.261774 0.372907
C116  C     C_R   0.660985 0.214227 0.284544 -0.036390
Cr1   Cr    Cr6+3 0.421670 0.426920 0.499620 1.021371
Cr2   Cr    Cr6+3 0.427030 0.651190 0.500980 1.017757
Cr3   Cr    Cr6+3 0.651280 0.421870 0.499380 1.019692
Cr4   Cr    Cr6+3 0.910810 0.908010 0.001130 1.021709
Cr5   Cr    Cr6+3 0.682800 0.909890 0.998370 1.021762
Cr6   Cr    Cr6+3 0.908370 0.682300 0.002180 1.082671
F1    F     F_    0.888815 0.081590 0.830596 -0.649283
F2    F     F_    0.835564 0.524939 0.663009 -0.616828
F3    F     F_    0.495039 0.364097 0.278010 -0.611971
F4    F     F_    0.841256 0.046736 0.211373 -0.633411
F5    F     F_    0.515874 0.179803 0.167112 -0.633058
F6    F     F_    0.085390 0.547441 0.089812 -0.618449
F7    F     F_    0.216693 0.472951 0.335239 -0.624156
H1    H     H_    0.791412 0.504493 0.593577 0.155699
H2    H     H_    0.492187 0.230740 0.599353 0.131145
H3    H     H_    0.773107 0.240444 0.588728 0.132994
H4    H     H_    0.120397 0.824020 0.904641 0.140895
H5    H     H_    0.072345 0.564199 0.907294 0.132079
H6    H     H_    0.188182 0.499790 0.658282 0.122383
H7    H     H_    0.271338 0.485578 0.718589 0.106905
H8    H     H_    0.162860 0.792401 0.836818 0.129857
H9    H     H_    0.051929 0.809211 0.713416 0.116671
H10   H     H_    0.038147 0.816359 0.783088 0.142816
H11   H     H_    0.180349 0.789389 0.668870 0.110986
H12   H     H_    0.878698 0.046255 0.902304 0.151883
H13   H     H_    0.843773 0.547459 0.902258 0.135275
H14   H     H_    0.236075 0.774838 0.602797 0.130318
H15   H     H_    0.115460 0.532941 0.839238 0.116756
H16   H     H_    0.247010 0.483570 0.592193 0.129648
H17   H     H_    0.562497 0.873191 0.094174 0.137530
H18   H     H_    0.811548 0.560238 0.096604 0.153731
H19   H     H_    0.765761 0.514371 0.326916 0.113899
H20   H     H_    0.644039 0.523156 0.274729 0.128123
H21   H     H_    0.644868 0.540206 0.205307 0.107759
H22   H     H_    0.514596 0.856123 0.159285 0.122632
H23   H     H_    0.820249 0.175178 0.653533 0.119437
H24   H     H_    0.592894 0.829792 0.289405 0.115685
H25   H     H_    0.595971 0.846468 0.219981 0.130725
H26   H     H_    0.488059 0.804921 0.341288 0.109752
H27   H     H_    0.485009 0.770746 0.409361 0.125890
H28   H     H_    0.765325 0.544316 0.161687 0.113893
H29   H     H_    0.763463 0.479642 0.394734 0.132546
H30   H     H_    0.842304 0.103628 0.088193 0.143214
H31   H     H_    0.552328 0.111544 0.097597 0.158708
H32   H     H_    0.508809 0.217375 0.326738 0.170087
H33   H     H_    0.524297 0.331051 0.204815 0.179470
H34   H     H_    0.751499 0.256898 0.715172 0.125542
H35   H     H_    0.501297 0.782344 0.666043 0.146648
H36   H     H_    0.792541 0.220680 0.336041 0.108601
H37   H     H_    0.479398 0.250353 0.395308 0.142747
H38   H     H_    0.099420 0.842717 0.102751 0.150170
H39   H     H_    0.187501 0.789005 0.333850 0.121194
H40   H     H_    0.814468 0.527476 0.835183 0.142202
H41   H     H_    0.314334 0.674789 0.280477 0.121499
H42   H     H_    0.300680 0.678845 0.210648 0.111129
H43   H     H_    0.153662 0.518474 0.158903 0.151461
H44   H     H_    0.072581 0.600932 0.288454 0.151052
H45   H     H_    0.764248 0.235949 0.784627 0.159012
H46   H     H_    0.058766 0.604887 0.218729 0.115436
H47   H     H_    0.256444 0.480368 0.406591 0.150339
H48   H     H_    0.163134 0.799309 0.167676 0.137690
H49   H     H_    0.229610 0.779398 0.401583 0.145955
H50   H     H_    0.548819 0.831239 0.836138 0.135582
H51   H     H_    0.566753 0.106140 0.898115 0.147137
H52   H     H_    0.477336 0.750431 0.599623 0.145679
H53   H     H_    0.254974 0.492743 0.788359 0.108705
H54   H     H_    0.821146 0.171188 0.153388 0.157241
H55   H     H_    0.812566 0.081079 0.284374 0.144795
H56   H     H_    0.559837 0.144275 0.830218 0.121253
H57   H     H_    0.763979 0.253844 0.404818 0.127583
H58   H     H_    0.578080 0.851131 0.903282 0.131858
H59   H     H_    0.653354 0.032691 0.706106 0.118730
H60   H     H_    0.664643 0.013380 0.775612 0.121835
H61   H     H_    0.538456 0.167759 0.664245 0.108185
N1    N     N_R   0.747077 0.592452 0.768137 -0.228330
N2    N     N_R   0.743569 0.589272 0.730172 -0.124310
N3    N     N_R   0.593278 0.748028 0.730677 -0.252709
N4    N     N_R   0.596841 0.751321 0.768689 -0.239162
O1    O     O_R   0.502070 0.323090 0.541280 -0.518933
O2    O     O_R   0.831550 0.656950 0.958960 -0.520291
O3    O     O_R   0.998590 0.685540 0.963930 -0.500936
O4    O     O_R   0.338340 0.520690 0.539540 -0.501941
O5    O     O_R   0.008220 0.831200 0.045060 -0.533769
O6    O     O_R   0.813270 0.997930 0.038810 -0.496475
O7    O     O_R   0.657500 0.016560 0.039940 -0.517550
O8    O     O_R   0.685680 0.820940 0.038120 -0.505996
O9    O     O_R   0.822130 0.666070 0.043610 -0.489986
O10   O     O_R   0.989860 0.694000 0.042400 -0.422724
O11   O     O_3   0.833990 0.833400 0.000560 -0.251909
O12   O     O_R   0.520720 0.641670 0.461580 -0.501466
O13   O     O_R   0.324760 0.674070 0.543580 -0.520618
O14   O     O_R   0.522400 0.640310 0.540110 -0.498977
O15   O     O_R   0.675940 0.500630 0.542210 -0.517512
O16   O     O_R   0.641790 0.337020 0.538150 -0.501823
O17   O     O_R   0.500260 0.324550 0.456580 -0.516933
O18   O     O_R   0.336660 0.522040 0.461020 -0.503017
O19   O     O_R   0.322940 0.675540 0.458880 -0.514747
O20   O     O_R   0.674120 0.502090 0.457500 -0.518413
O21   O     O_R   0.640110 0.338380 0.459630 -0.502627
O22   O     O_3   0.499990 0.499990 0.499990 -0.238879
O23   O     O_R   0.017640 0.822070 0.960410 -0.520942
O24   O     O_R   0.822000 0.989470 0.960340 -0.504342
O25   O     O_R   0.666920 0.007430 0.955290 -0.513598
O26   O     O_R   0.694410 0.812480 0.959650 -0.504409

loop_
_geom_bond_atom_site_label_1
_geom_bond_atom_site_label_2
_ccdc_geom_bond_type
C48   C55   A    
C79   C83   A    
C63   C65   A    
Cr3   O21   S    
C76   C105  S    
C88   O21   A    
C80   C81   A    
C5    C114  A    
C24   C42   S    
C7    H57   S    
C93   H20   S    
C1    O4    A    
C67   C77   S    
C69   H5    S    
Cr5   O11   S    
C26   C63   S    
C9    F2    S    
C40   H41   S    
C81   C82   A    
C85   C91   A    
C97   H25   S    
C92   C98   A    
C108  H30   S    
C53   C54   A    
C108  C109  A    
N3    N4    A    
C74   H9    S    
C93   C94   A    
C33   N2    A    
Cr4   O11   S    
C36   C37   A    
C22   C29   A    
C53   H59   S    
Cr5   O8    S    
C34   C35   A    
C52   C61   S    
C85   C86   A    
C20   C40   A    
C114  H33   S    
C5    C110  S    
C115  C116  A    
C29   C33   S    
Cr4   O5    S    
C56   C57   A    
C39   O15   A    
C102  C105  A    
C18   C19   A    
Cr6   O10   S    
C57   C61   A    
C26   O3    A    
C2    C13   A    
C16   H43   S    
C110  C111  A    
C107  C113  A    
C103  C104  A    
C54   C55   A    
C70   H53   S    
C79   H14   S    
C63   C69   A    
C18   H48   S    
C58   H3    S    
C68   C69   A    
C88   O17   A    
C99   H26   S    
C62   H44   S    
C107  C108  A    
C62   C73   A    
C68   H15   S    
C70   C71   A    
C32   C38   S    
C3    H55   S    
C73   C84   A    
C71   H7    S    
C9    C29   A    
C44   H56   S    
C109  H54   S    
C9    C112  A    
C30   O5    A    
C6    H36   S    
C94   C104  S    
C59   C60   A    
C113  H31   S    
C87   H22   S    
C31   H52   S    
C70   C77   A    
C52   O16   A    
Cr5   O25   S    
Cr6   O11   S    
C102  H29   S    
C36   C41   A    
C51   C62   A    
C19   H38   S    
C14   C30   S    
C80   C83   A    
C1    O13   A    
C86   H17   S    
C91   H18   S    
C76   O12   A    
C103  H19   S    
C81   H6    S    
C48   H45   S    
C101  C105  A    
C7    C12   A    
C37   H50   S    
C56   H61   S    
C43   H51   S    
Cr3   O15   S    
C50   C53   A    
C22   C31   A    
C12   C88   S    
N1    N2    A    
C64   O19   A    
Cr1   O17   S    
C32   N4    A    
C74   C75   A    
C25   C41   S    
C6    C11   A    
C78   C79   A    
C16   C17   A    
C13   H39   S    
C21   C95   A    
C101  H27   S    
C58   C59   A    
C59   H23   S    
C54   H60   S    
C4    C5    A    
C56   C60   A    
C32   N1    A    
Cr6   O9    S    
C73   H46   S    
Cr1   O22   S    
Cr2   O14   S    
C43   C44   A    
C37   C38   A    
Cr1   O1    S    
C95   C106  A    
C22   H35   S    
C78   C82   A    
C96   H24   S    
C27   C107  S    
C8    C12   A    
C96   C97   A    
C2    C23   A    
C27   O7    A    
C17   C18   A    
C13   C21   A    
C111  C113  A    
C31   C100  A    
C94   C96   A    
C11   C116  S    
C75   C77   A    
C45   C55   S    
C25   O2    A    
C8    H37   S    
C72   C74   A    
C67   C68   A    
C99   C101  A    
C65   C66   A    
C10   H32   S    
Cr5   O7    S    
C15   F6    S    
C87   C89   A    
C92   H21   S    
Cr5   O26   S    
C46   F1    S    
C45   C46   A    
C8    C10   A    
C42   C43   A    
C90   C91   A    
C3    C4    A    
C21   C51   S    
C44   C45   A    
C86   C87   A    
C39   O14   A    
C46   C47   A    
C23   C64   S    
Cr3   O16   S    
C99   C104  A    
Cr2   O12   S    
C34   C38   A    
C28   O9    A    
C14   C19   A    
C57   H2    S    
Cr1   O18   S    
C27   O6    A    
Cr6   O2    S    
C34   H40   S    
C78   H11   S    
C114  C115  A    
C6    C7    A    
C1    C83   S    
C40   C51   A    
C30   O10   A    
C47   H12   S    
C115  F3    S    
C4    F4    S    
C89   C98   S    
C3    C116  A    
C36   H58   S    
C50   C60   S    
C17   C84   S    
C90   H28   S    
C20   C84   A    
Cr2   O13   S    
C28   O8    A    
C71   C72   A    
C75   H10   S    
C109  C110  A    
C111  F5    S    
C23   C106  A    
C39   C100  S    
C66   H8    S    
C58   C61   A    
C48   C49   A    
C97   C98   A    
C92   C93   A    
Cr4   O6    S    
C66   C67   A    
Cr2   O19   S    
C42   C47   A    
Cr6   O3    S    
C102  C103  A    
C35   C41   A    
C72   C82   S    
C49   H34   S    
C80   H16   S    
C10   C11   A    
Cr4   O23   S    
C35   H13   S    
C33   N3    A    
C24   O25   A    
C76   O20   A    
Cr3   O22   S    
C20   H42   S    
C52   O1    A    
Cr3   O20   S    
Cr4   O24   S    
C49   C50   A    
C28   C85   S    
C95   F7    S    
C106  H47   S    
C14   C15   A    
C64   O18   A    
C25   O26   A    
Cr2   O22   S    
C2    H49   S    
C100  C112  A    
C112  H1    S    
C89   C90   A    
C65   H4    S    
Cr1   O4    S    
C15   C16   A    
C26   O23   A    
C24   O24   A    
