data_mof_unit_58387.cif
_audit_creation_date              2013-03-05T16:06:02-0500
_audit_creation_method            fapswitch 2.2
_symmetry_space_group_name_H-M    P1
_symmetry_Int_Tables_number       1
_space_group_crystal_system       triclinic
_cell_length_a                    10.497668
_cell_length_b                    14.929807
_cell_length_c                    15.50288
_cell_angle_alpha                 81.525682
_cell_angle_beta                  90.066096
_cell_angle_gamma                 104.057159
_cell_volume                      2329.72335692

loop_
_atom_site_label
_atom_site_type_symbol
_atom_site_description
_atom_site_fract_x
_atom_site_fract_y
_atom_site_fract_z
_atom_type_partial_charge
O1    O     O_R   0.462600 0.383110 0.605620 -0.618983
O2    O     O_R   0.537400 0.616890 0.394380 -0.589209
O3    O     O_R   0.510210 0.531900 0.639510 -0.625110
O4    O     O_R   0.489790 0.468100 0.360490 -0.622834
C1    C     C_R   0.479760 0.441335 0.662187 0.857504
C2    C     C_R   0.516923 0.558565 0.337875 0.865201
O5    O     O_R   0.662240 0.425610 0.483080 -0.581795
O6    O     O_R   0.337760 0.574390 0.516920 -0.614594
O7    O     O_R   0.709860 0.574400 0.516970 -0.632154
O8    O     O_R   0.290140 0.425600 0.483030 -0.633881
C3    C     C_R   0.742585 0.500794 0.499936 0.865128
C4    C     C_R   0.257492 0.499326 0.499939 0.873154
Zn1   Zn    Zn3+2 0.468210 0.400660 0.477370 0.963800
Zn2   Zn    Zn3+2 0.531790 0.599340 0.522630 0.961054
C5    C     C_3   0.934542 0.434486 0.563673 -0.119573
C6    C     C_3   0.065876 0.566211 0.436095 -0.182030
C7    C     C_3   0.048946 0.517522 0.577592 -0.208745
C8    C     C_3   0.951447 0.483116 0.422130 -0.161604
H1    H     H_    0.093362 0.531204 0.640860 0.150031
H2    H     H_    0.907034 0.469309 0.358892 0.157650
H3    H     H_    0.876309 0.381945 0.616146 0.184449
H4    H     H_    0.124178 0.619603 0.384165 0.173129
C9    C     C_3   0.121938 0.498541 0.499704 -0.024762
C10   C     C_3   0.878364 0.502015 0.500035 -0.000518
C11   C     C_3   0.010195 0.415430 0.485781 -0.045621
C12   C     C_3   0.990142 0.585191 0.513993 -0.132308
H5    H     H_    0.022981 0.346408 0.474350 0.191770
H6    H     H_    0.977987 0.654361 0.525494 0.155138
C13   C     C_R   0.449347 0.406424 0.754695 -0.059262
C14   C     C_R   0.517209 0.594310 0.245073 -0.078037
C15   C     C_R   0.325827 0.293064 0.871205 -0.193148
C16   C     C_R   0.578818 0.717485 0.122057 -0.174420
C17   C     C_R   0.371770 0.316594 0.784314 -0.185189
C18   C     C_R   0.576420 0.687301 0.211515 -0.115027
C19   C     C_R   0.483262 0.470721 0.812426 -0.253951
C20   C     C_R   0.458081 0.532311 0.189309 -0.256634
C21   C     C_R   0.427965 0.452019 0.896768 0.092773
C22   C     C_R   0.462012 0.560018 0.099131 0.095080
C23   C     C_R   0.352642 0.360478 0.927528 0.168724
C24   C     C_R   0.525476 0.653972 0.065491 0.157677
C25   C     C_R   0.449439 0.521638 0.951678 0.069027
C26   C     C_R   0.414743 0.494812 0.041499 0.072658
C27   C     C_R   0.337023 0.403333 0.070461 -0.219792
C28   C     C_R   0.503533 0.617257 0.919481 -0.228600
C29   C     C_R   0.305060 0.337843 0.013780 -0.225925
C30   C     C_R   0.539331 0.682465 0.975766 -0.225477
H7    H     H_    0.245243 0.268620 0.038109 0.150682
H8    H     H_    0.583551 0.754666 0.948975 0.150505
H9    H     H_    0.415706 0.460878 0.217395 0.157759
H10   H     H_    0.552627 0.536200 0.789687 0.152099
H11   H     H_    0.624785 0.735398 0.253916 0.210705
H12   H     H_    0.344001 0.265842 0.740159 0.162498
H13   H     H_    0.266637 0.223204 0.893739 0.143303
H14   H     H_    0.627370 0.789325 0.096788 0.153053
H15   H     H_    0.296301 0.380981 0.136144 0.143606
H16   H     H_    0.517381 0.643931 0.850674 0.150630
N1    N     N_R   0.574200 0.731700 0.552740 -0.112131
N2    N     N_R   0.425800 0.268300 0.447260 -0.114200
C31   C     C_R   0.719493 0.846716 0.620739 -0.286974
C32   C     C_R   0.319986 0.164353 0.352253 -0.273445
C33   C     C_R   0.672166 0.754400 0.608563 0.005462
C34   C     C_R   0.340998 0.249511 0.382543 0.021131
C35   C     C_R   0.518084 0.796416 0.508250 0.023002
C36   C     C_R   0.491605 0.206021 0.484900 0.030414
C37   C     C_R   0.568773 0.892370 0.512342 0.018898
C38   C     C_R   0.483063 0.121516 0.452096 0.020205
C39   C     C_R   0.668494 0.916140 0.572450 0.109268
C40   C     C_R   0.390728 0.099916 0.386966 0.104540
C41   C     C_R   0.521088 0.964530 0.461742 -0.078206
C42   C     C_R   0.558268 0.056656 0.483986 -0.078740
C43   C     C_R   0.670484 0.080051 0.535722 0.307887
C44   C     C_R   0.440031 0.949368 0.388813 0.301626
C45   C     C_R   0.720605 0.009158 0.581309 -0.262761
C46   C     C_R   0.373300 0.015946 0.354519 -0.254527
H17   H     H_    0.804450 0.027202 0.621864 0.184647
H18   H     H_    0.310653 0.003353 0.299686 0.184968
H19   H     H_    0.549728 0.224076 0.539968 0.157361
H20   H     H_    0.435039 0.771253 0.469965 0.162207
H21   H     H_    0.291086 0.301490 0.353781 0.129199
H22   H     H_    0.715396 0.700761 0.642070 0.130216
H23   H     H_    0.797698 0.864011 0.665674 0.146405
H24   H     H_    0.251215 0.149796 0.300936 0.149864
N3    N     N_R   0.747187 0.174462 0.532342 0.180098
O9    O     O_R   0.809314 0.200762 0.600528 -0.453520
O10   O     O_R   0.772773 0.229211 0.457704 -0.415721
N4    N     N_R   0.442403 0.875959 0.339131 0.185544
O11   O     O_R   0.336798 0.835144 0.302553 -0.420361
O12   O     O_R   0.554581 0.860926 0.318395 -0.421959

loop_
_geom_bond_atom_site_label_1
_geom_bond_atom_site_label_2
_geom_bond_distance
_ccdc_geom_bond_type
N2    C34   1.355490 A    
C38   C40   1.415941 A    
C35   C37   1.412751 A    
C36   H19   1.077260 S    
C17   H12   1.082947 S    
C24   C30   1.390326 A    
C4    C9    1.420205 S    
C18   H11   1.080159 S    
C7    C9    1.527716 S    
C46   H18   1.084544 S    
O1    C1    1.305916 A    
C7    C12   1.543318 S    
C19   C21   1.392842 A    
C10   C12   1.528583 S    
C22   C26   1.418778 A    
N4    O12   1.300389 A    
C5    C11   1.543717 S    
C33   H22   1.081883 S    
C40   C46   1.390107 A    
C13   C17   1.400553 A    
C3    C10   1.421041 S    
C32   C34   1.387479 A    
C25   C26   1.413506 A    
O4    Zn1   1.923744 S    
C31   C39   1.400458 A    
C32   H24   1.083856 S    
C37   C39   1.415946 A    
O6    Zn2   1.983968 S    
C15   C17   1.396530 A    
C42   C43   1.426013 A    
C39   C45   1.390581 A    
C1    C13   1.459536 S    
C23   C29   1.392146 A    
C9    C11   1.527594 S    
C6    C12   1.543789 S    
C45   H17   1.084443 S    
O2    C2    1.305865 A    
C8    C11   1.543602 S    
C16   H14   1.083827 S    
C28   C30   1.386461 A    
N1    C35   1.354773 A    
C43   N3    1.436972 S    
C29   H7    1.084006 S    
N2    C36   1.354047 A    
C30   H8    1.084144 S    
C31   C33   1.387761 A    
C14   C18   1.397561 A    
C34   H21   1.081943 S    
C44   C46   1.393938 A    
C43   C45   1.394908 A    
N4    O11   1.301579 A    
Zn1   N2    2.040862 S    
C16   C18   1.391916 A    
C41   C44   1.425908 A    
O5    C3    1.290611 A    
O7    Zn2   1.997207 S    
C27   C29   1.390649 A    
C28   H16   1.079173 S    
N3    O9    1.301257 A    
C5    H3    1.109467 S    
O6    C4    1.289564 A    
C19   H10   1.078618 S    
C15   H13   1.083635 S    
O7    C3    1.290164 A    
O3    Zn2   1.923744 S    
O8    C4    1.290837 A    
O4    C2    1.304616 A    
C5    C10   1.527056 S    
N3    O10   1.301719 A    
C6    C9    1.527539 S    
C25   C28   1.416483 A    
C8    C10   1.527938 S    
O1    Zn1   1.965827 S    
C26   C27   1.418226 A    
C27   H15   1.078211 S    
C5    C7    1.542979 S    
Zn2   N1    2.040862 S    
C6    H4    1.110463 S    
C2    C14   1.458628 S    
C31   H23   1.083823 S    
O3    C1    1.305441 A    
O8    Zn1   1.997205 S    
C44   N4    1.434263 S    
N1    C33   1.355184 A    
C11   H5    1.110139 S    
C13   C19   1.391299 A    
C12   H6    1.110335 S    
C14   C20   1.394620 A    
C20   C22   1.395942 A    
C21   C23   1.415739 A    
C22   C24   1.419388 A    
C38   C42   1.426453 A    
C37   C41   1.427785 A    
C7    H1    1.110372 S    
C15   C23   1.405512 A    
C8    H2    1.110320 S    
C16   C24   1.402763 A    
C21   C25   1.415040 A    
C41   C42   1.428894 A    
O2    Zn2   1.965824 S    
O5    Zn1   1.983969 S    
C32   C40   1.400065 A    
C6    C8    1.543874 S    
C20   H9    1.076084 S    
C36   C38   1.411543 A    
C35   H20   1.076494 S    
