data_mof_unit_67013.cif
_audit_creation_date              2013-03-05T15:58:14-0500
_audit_creation_method            fapswitch 2.2
_symmetry_space_group_name_H-M    P1
_symmetry_Int_Tables_number       1
_space_group_crystal_system       triclinic
_cell_length_a                    8.720422
_cell_length_b                    13.342353
_cell_length_c                    14.488612
_cell_angle_alpha                 94.976092
_cell_angle_beta                  91.243277
_cell_angle_gamma                 98.340836
_cell_volume                      1660.64118838

loop_
_atom_site_label
_atom_site_type_symbol
_atom_site_description
_atom_site_fract_x
_atom_site_fract_y
_atom_site_fract_z
_atom_type_partial_charge
P1    P     P_3+3 0.054400 0.427280 0.286870 0.592009
O1    O     O_2   0.887370 0.460630 0.272300 -0.277866
O2    O     O_3   0.129410 0.451380 0.388510 -0.293534
O3    O     O_3   0.670210 0.653170 0.329170 -0.319089
O4    O     O_2   0.753231 0.560832 0.170529 -0.256149
O5    O     O_3   0.940310 0.306239 0.278754 -0.517444
O6    O     O_3   0.692798 0.737828 0.161719 -0.521240
H1    H     H_    0.572025 0.801860 0.269282 0.110030
C1    C     C_3   0.678743 0.914080 0.183454 -0.579690
H2    H     H_    0.802158 0.917578 0.203666 0.209938
P2    P     P_3+3 0.668300 0.742890 0.573060 0.597486
P3    P     P_3+3 0.136031 0.839314 0.388019 0.561566
O7    O     O_2   0.845380 0.761330 0.544970 -0.373181
O8    O     O_3   0.088930 0.704860 0.376040 -0.318704
O9    O     O_2   0.020641 0.874497 0.458275 -0.323888
O10   O     O_3   0.696801 0.753250 0.692890 -0.479817
O11   O     O_3   0.065652 0.881784 0.284473 -0.505959
C2    C     C_3   0.137110 0.845437 0.203417 0.230444
H3    H     H_    0.252840 0.886697 0.201165 0.142862
C3    C     C_3   0.047187 0.862495 0.115349 -0.650105
H4    H     H_    0.939814 0.807447 0.102008 0.255973
H5    H     H_    0.009653 0.936763 0.122891 0.221012
C4    C     C_3   0.204863 0.778364 0.725916 0.748493
H6    H     H_    0.155514 0.773041 0.654115 0.059243
C5    C     C_3   0.164875 0.875165 0.778487 -0.883828
H7    H     H_    0.234008 0.895416 0.843527 0.290638
H8    H     H_    0.189775 0.940870 0.737097 0.273837
H9    H     H_    0.041834 0.863853 0.796747 0.229568
Ba1   Ba    Ba6+2 0.855630 0.555280 0.454520 1.794190
C6    C     C_3   0.014826 0.221869 0.274010 0.295164
H10   H     H_    0.133362 0.241433 0.276560 0.091542
C7    C     C_3   0.963889 0.156225 0.183483 -0.884008
H11   H     H_    0.909065 0.201376 0.134555 0.230673
H12   H     H_    0.878309 0.090547 0.196123 0.196538
C8    C     C_3   0.773071 0.674537 0.718538 0.416754
H13   H     H_    0.892364 0.686349 0.694575 0.090019
H14   H     H_    0.712813 0.598608 0.690109 0.085506
C9    C     C_3   0.773308 0.678385 0.822882 -0.833738
H15   H     H_    0.811946 0.756839 0.854914 0.241621
H16   H     H_    0.849716 0.628280 0.850265 0.239335
H17   H     H_    0.652676 0.652370 0.840788 0.280042
P4    P     P_3+3 0.135310 0.572810 0.713130 0.539986
O12   O     O_2   0.302330 0.539400 0.727760 -0.283595
O13   O     O_3   0.060300 0.548700 0.611500 -0.381160
O14   O     O_3   0.519500 0.346920 0.670840 -0.339338
O15   O     O_3   0.140429 0.695555 0.771962 -0.645828
P5    P     P_3+3 0.035432 0.163689 0.623801 0.565687
O16   O     O_3   0.614310 0.373510 0.452640 -0.319864
O17   O     O_3   0.100780 0.295230 0.623970 -0.296871
O18   O     O_2   0.147682 0.111101 0.561336 -0.322605
O19   O     O_3   0.077019 0.127880 0.734195 -0.521403
Ba2   Ba    Ba6+2 0.334200 0.444810 0.545490 1.732417
P6    P     P_3+3 0.632417 0.624514 0.209310 0.617878
C10   C     C_3   0.597277 0.807520 0.194455 0.212906
H18   H     H_    0.486317 0.793617 0.153490 0.130215
O20   O     O_3   0.575400 0.626570 0.547370 -0.316820
C11   C     C_3   0.520722 0.255631 0.236432 1.045938
C12   C     C_3   0.534033 0.186743 0.145442 -0.871439
H19   H     H_    0.443307 0.121028 0.134904 0.332638
H20   H     H_    0.521985 0.228427 0.083277 0.260773
H21   H     H_    0.647292 0.158987 0.144355 0.203881
P7    P     P_3+3 0.524226 0.241031 0.430754 0.544579
O21   O     O_2   0.344320 0.238700 0.455090 -0.331000
O22   O     O_3   0.544093 0.197061 0.312164 -0.649526
C13   C     C_3   0.017326 0.191906 0.802796 0.389290
H22   H     H_    0.926073 0.232852 0.775624 -0.039828
C14   C     C_3   0.943329 0.127790 0.876567 -0.950099
H23   H     H_    0.916465 0.176606 0.938452 0.250876
H24   H     H_    0.832383 0.085118 0.849201 0.248657
H25   H     H_    0.019715 0.072778 0.896147 0.319698
P8    P     P_3+3 0.565592 0.368203 0.789503 0.505658
C15   C     C_3   0.542894 0.176528 0.818621 0.357409
H26   H     H_    0.667228 0.194109 0.803260 -0.026806
O23   O     O_2   0.482155 0.456863 0.827325 -0.356563
O24   O     O_3   0.475841 0.264495 0.844332 -0.514782
H27   H     H_    0.613398 0.147662 0.956510 0.224991
C16   C     C_3   0.530688 0.110983 0.900274 -0.835285
H28   H     H_    0.561616 0.034441 0.880574 0.284121
H29   H     H_    0.410980 0.101915 0.926359 0.309628
C17   C     C_R   0.998036 0.430916 0.048712 -0.051656
C18   C     C_R   0.179851 0.476766 0.187734 0.106745
C19   C     C_R   0.331313 0.518370 0.217647 -0.105345
C20   C     C_R   0.439704 0.563777 0.159589 0.189599
C21   C     C_R   0.398358 0.571183 0.066455 -0.241347
C22   C     C_R   0.247887 0.530174 0.030667 0.019066
C23   C     C_R   0.139622 0.478504 0.090009 0.043105
H30   H     H_    0.365845 0.517735 0.289018 0.206505
C24   C     C_R   0.063519 0.491099 0.894875 -0.026872
C25   C     C_R   0.958152 0.438394 0.954093 0.064457
C26   C     C_R   0.022271 0.491661 0.796812 0.275954
C27   C     C_R   0.875801 0.442984 0.764678 -0.533834
C28   C     C_R   0.769138 0.401060 0.825865 0.211957
C29   C     C_R   0.811018 0.395307 0.918591 -0.238944
C30   C     C_R   0.206682 0.537681 0.935689 -0.057366
H31   H     H_    0.725936 0.360327 0.963982 0.185499
H32   H     H_    0.838816 0.445972 0.693323 0.148890
H33   H     H_    0.921921 0.383823 0.089248 0.179610
H34   H     H_    0.287884 0.579216 0.892994 0.181021
C31   C     C_R   0.741408 0.177761 0.546288 -0.378925
C32   C     C_R   0.425423 0.821254 0.477533 0.031961
C33   C     C_R   0.391620 0.994938 0.453795 -0.307121
C34   C     C_R   0.336183 0.889899 0.441657 0.096686
C35   C     C_R   0.570598 0.852889 0.525209 0.086334
C36   C     C_R   0.628675 0.963251 0.534984 -0.079937
C37   C     C_R   0.539810 0.033992 0.494826 0.050313
C38   C     C_R   0.600386 0.142543 0.499695 0.279853
C39   C     C_R   0.830740 0.112016 0.582940 0.087830
C40   C     C_R   0.769451 0.007687 0.584159 -0.180431
H35   H     H_    0.317508 0.046157 0.429849 0.186793
H36   H     H_    0.787899 0.257796 0.548891 0.161053
C41   C     C_2   0.988755 0.171448 0.360878 0.979232
O25   O     O_2   0.995424 0.225549 0.433372 -0.597877
O26   O     O_R   0.974868 0.066160 0.361383 -0.778043
H37   H     H_    0.956319 0.043010 0.425172 0.365721
C42   C     C_2   0.099757 0.119542 0.137737 1.249049
O27   O     O_2   0.123174 0.132067 0.056863 -0.524527
O28   O     O_R   0.201724 0.071373 0.186682 -0.795766
H38   H     H_    0.176587 0.066214 0.253689 0.306724
C43   C     C_2   0.612231 0.985494 0.249910 0.984371
O29   O     O_2   0.686894 0.026865 0.318090 -0.617375
O30   O     O_R   0.459309 0.996983 0.237196 -0.798495
H39   H     H_    0.416602 0.034643 0.291051 0.344160
N1    N     N_R   0.372691 0.289145 0.237859 0.137743
O31   O     O_R   0.306592 0.302298 0.159277 -0.506649
O32   O     O_R   0.343624 0.344536 0.311845 -0.449193
N2    N     N_R   0.632368 0.346712 0.235612 0.229633
O33   O     O_R   0.688238 0.368031 0.156086 -0.459628
O34   O     O_R   0.615903 0.423276 0.294455 -0.325049
C44   C     C_2   0.659975 0.940987 0.084872 1.035596
O35   O     O_2   0.530842 0.943990 0.051725 -0.563142
O36   O     O_R   0.789205 0.959991 0.030588 -0.844245
H40   H     H_    0.760166 0.969142 0.964204 0.331432
C45   C     C_2   0.144486 0.855734 0.032388 1.108057
O37   O     O_2   0.217517 0.932892 0.006746 -0.559046
O38   O     O_R   0.153512 0.760600 0.986521 -0.781278
H41   H     H_    0.230130 0.764413 0.935276 0.374850
C46   C     C_2   0.146928 0.269695 0.844328 1.037158
O39   O     O_2   0.210874 0.331537 0.795381 -0.554565
O40   O     O_R   0.194167 0.273056 0.937522 -0.747497
H42   H     H_    0.281819 0.330169 0.956465 0.358080
C47   C     C_2   0.459821 0.117738 0.734472 0.975217
O41   O     O_2   0.383157 0.159748 0.682862 -0.530138
O42   O     O_R   0.473797 0.015626 0.713808 -0.779824
H43   H     H_    0.406927 0.983652 0.657960 0.312350
C48   C     C_2   0.150903 0.736834 0.199824 0.965802
O43   O     O_2   0.269385 0.711305 0.229094 -0.739689
O44   O     O_R   0.022143 0.666222 0.174635 -0.716537
H44   H     H_    0.016516 0.609993 0.216068 0.343859
C49   C     C_2   0.513505 0.625468 0.008611 1.051646
O45   O     O_2   0.634544 0.592173 0.992847 -0.595844
O46   O     O_R   0.488360 0.718789 0.979100 -0.799067
H45   H     H_    0.584284 0.758407 0.954619 0.349532
C50   C     C_2   0.834893 0.955727 0.655581 1.139205
O47   O     O_2   0.960202 0.927456 0.645062 -0.630695
O48   O     O_R   0.756721 0.945598 0.737927 -0.753236
H46   H     H_    0.815927 0.915440 0.786587 0.315344
N3    N     N_R   0.364123 0.716071 0.467217 0.253096
O49   O     O_R   0.395719 0.660572 0.394555 -0.399979
O50   O     O_R   0.257601 0.679365 0.521217 -0.347044
N4    N     N_R   0.370853 0.781054 0.726178 0.219547
O51   O     O_R   0.460072 0.829353 0.793940 -0.349238
O52   O     O_R   0.416695 0.704837 0.680523 -0.355848

loop_
_geom_bond_atom_site_label_1
_geom_bond_atom_site_label_2
_geom_bond_distance
_ccdc_geom_bond_type
P8    O24   1.749796 S    
N3    O49   1.291935 A    
O3    P6    1.758986 S    
O14   P8    1.746492 S    
C41   O25   1.217084 D    
C36   C40   1.429620 A    
C2    C48   1.467854 S    
C48   O43   1.213076 D    
C11   C12   1.556808 S    
N1    O31   1.301864 A    
P5    O17   1.764661 S    
C16   H28   1.108980 S    
C5    H9    1.102855 S    
C14   H24   1.096262 S    
C46   O40   1.398174 S    
N2    O33   1.298797 A    
O1    Ba1   2.862926 S    
O7    Ba1   2.955471 S    
C8    H14   1.111702 S    
C2    H3    1.079816 S    
C47   O42   1.392710 S    
O10   C8    1.393925 S    
O19   C13   1.411661 S    
C6    H10   1.027812 S    
C17   H33   1.067831 S    
O12   Ba2   2.863470 S    
N1    O32   1.299322 A    
C30   H34   1.075089 S    
C12   H20   1.109661 S    
C42   O27   1.215342 D    
P1    O1    1.598484 D    
P4    O15   1.773583 S    
C17   C25   1.422453 A    
O2    Ba1   3.060356 S    
P7    O22   1.787163 S    
C27   H32   1.082048 S    
O26   H37   1.008582 S    
C32   N3    1.421303 S    
C40   C50   1.445933 S    
O44   H44   0.997164 S    
C42   O28   1.387126 S    
P3    O11   1.776765 S    
C17   C23   1.400071 A    
C4    H6    1.109650 S    
C3    C45   1.490131 S    
C50   O48   1.393898 S    
C1    H2    1.102539 S    
O3    Ba1   2.918134 S    
C13   C46   1.496140 S    
C21   C49   1.471755 S    
O13   Ba2   3.061177 S    
C12   H21   1.103926 S    
C16   H29   1.111580 S    
C29   H31   1.083869 S    
C4    O15   1.394831 S    
P4    O13   1.585725 S    
C15   O24   1.411001 S    
C32   C34   1.409414 A    
C36   C37   1.455274 A    
C48   O44   1.377402 S    
C18   C19   1.400438 A    
P5    O18   1.548271 D    
C43   O30   1.374527 S    
C33   C37   1.418620 A    
C15   C47   1.502480 S    
O40   H42   1.012861 S    
C24   C30   1.404867 A    
O48   H46   1.009562 S    
P8    C28   1.820440 S    
Ba1   O16   2.969246 S    
C14   H23   1.111355 S    
C6    C7    1.532087 S    
C33   C34   1.409169 A    
O38   H41   1.009193 S    
C8    C9    1.508159 S    
H27   C16   1.107479 S    
C9    H17   1.102697 S    
H1    C10   1.117716 S    
C27   C28   1.390976 A    
P5    O19   1.753767 S    
O14   Ba2   2.917500 S    
C13   C14   1.522837 S    
C12   H19   1.090093 S    
C22   C23   1.433548 A    
C31   H36   1.082985 S    
C32   C35   1.419317 A    
P1    O5    1.762850 S    
P4    C26   1.893121 S    
C8    H13   1.097798 S    
C7    H12   1.096553 S    
P3    C34   1.901137 S    
C15   C16   1.527633 S    
C11   N1    1.426112 S    
C22   C30   1.430280 A    
O16   P7    1.825133 S    
C20   C21   1.404626 A    
P3    O9    1.538713 D    
P3    O8    1.773740 S    
O46   H45   1.010971 S    
O17   Ba2   2.955470 S    
C4    N4    1.442655 S    
C3    H4    1.105228 S    
P7    O21   1.611936 D    
P1    Ba1   3.484709 S    
O11   C2    1.422421 S    
P1    C18   1.928466 S    
C41   O26   1.393071 S    
C21   C22   1.415269 A    
C43   O29   1.215588 D    
O30   H39   0.999444 S    
O5    C6    1.376554 S    
C3    H5    1.085293 S    
C13   H22   1.112000 S    
P5    C39   1.881045 S    
Ba1   O13   2.875793 S    
C45   O37   1.220581 D    
C1    C43   1.482166 S    
P4    O12   1.598858 D    
O6    P6    1.733237 S    
C39   C40   1.418614 A    
O36   H40   1.011385 S    
C11   N2    1.443818 S    
C11   O22   1.428780 S    
C44   O35   1.222005 D    
C37   C38   1.462994 A    
O4    P6    1.533030 D    
C31   C38   1.389297 A    
C10   H18   1.107644 S    
N2    O34   1.299150 A    
C18   C23   1.454267 A    
C24   C26   1.458963 A    
C15   H26   1.107196 S    
Ba2   O21   2.955726 S    
P8    O23   1.543889 D    
O2    Ba2   2.876405 S    
P7    C38   1.902023 S    
Ba1   O20   3.046525 S    
C1    C44   1.513801 S    
C5    H8    1.103142 S    
C31   C39   1.385435 A    
C46   O39   1.216507 D    
O28   H38   1.005867 S    
C6    C41   1.484331 S    
P6    C20   1.857674 S    
C14   H25   1.110269 S    
C7    H11   1.112175 S    
C49   O46   1.395969 S    
O42   H43   1.012045 S    
C5    H7    1.099271 S    
C47   O41   1.216555 D    
N4    O51   1.302355 A    
C9    H16   1.100945 S    
P2    O7    1.595362 D    
C26   C27   1.396814 A    
C9    H15   1.109616 S    
C28   C29   1.396030 A    
C2    C3    1.534145 S    
C4    C5    1.530162 S    
C7    C42   1.492884 S    
C25   C29   1.395501 A    
P2    O10   1.739209 S    
Ba2   O20   2.968535 S    
O16   Ba2   3.045680 S    
C24   C25   1.423499 A    
P2    Ba1   3.527958 S    
N3    O50   1.296492 A    
C19   C20   1.387375 A    
P4    Ba2   3.485224 S    
C35   C36   1.479564 A    
C45   O38   1.394237 S    
P2    C35   1.968305 S    
C1    C10   1.517472 S    
O8    Ba1   2.954843 S    
O6    C10   1.395995 S    
P1    O2    1.585848 S    
C50   O47   1.215090 D    
C49   O45   1.221690 D    
C33   H35   1.079162 S    
P2    O20   1.650887 S    
C19   H30   1.071819 S    
N4    O52   1.282265 A    
C44   O36   1.393923 S    
Ba1   Ba2   4.817602 S    
