data_mof_unit_16522.cif
_audit_creation_date              2013-03-05T16:04:39-0500
_audit_creation_method            fapswitch 2.2
_symmetry_space_group_name_H-M    P1
_symmetry_Int_Tables_number       1
_space_group_crystal_system       triclinic
_cell_length_a                    9.595076
_cell_length_b                    10.840675
_cell_length_c                    15.913976
_cell_angle_alpha                 89.841119
_cell_angle_beta                  72.258314
_cell_angle_gamma                 90.171765
_cell_volume                      1576.57950451

loop_
_atom_site_label
_atom_site_type_symbol
_atom_site_description
_atom_site_fract_x
_atom_site_fract_y
_atom_site_fract_z
_atom_type_partial_charge
O1    O     O_R   0.118740 0.319660 0.500000 -0.594172
O2    O     O_R   0.881260 0.680340 0.500000 -0.593308
O3    O     O_R   0.881170 0.319630 0.500010 -0.567404
O4    O     O_R   0.118830 0.680370 0.499990 -0.565495
C1    C     C_R   0.999881 0.262356 0.498744 0.789591
C2    C     C_R   0.999300 0.737406 0.502407 0.790323
O5    O     O_R   0.055570 0.500030 0.629830 -0.588036
O6    O     O_R   0.944430 0.499970 0.370170 -0.586550
O7    O     O_R   0.818000 0.500000 0.629840 -0.596562
O8    O     O_R   0.182000 0.500000 0.370160 -0.596943
C3    C     C_R   0.915929 0.496704 0.670770 0.816683
C4    C     C_R   0.084252 0.496984 0.329175 0.823157
Cu1   Cu    Cu3+1 0.140660 0.500020 0.500000 0.943409
Cu2   Cu    Cu3+1 0.859340 0.499980 0.500000 0.944774
C5    C     C_R   0.866584 0.475459 0.765457 -0.075228
C6    C     C_R   0.134340 0.476680 0.234388 -0.072047
C7    C     C_R   0.906075 0.380184 0.893848 0.400995
C8    C     C_R   0.094452 0.383536 0.105789 0.398390
C9    C     C_R   0.956845 0.411471 0.804458 -0.328975
C10   C     C_R   0.043140 0.415033 0.194884 -0.336358
C11   C     C_R   0.721655 0.500188 0.814217 -0.270144
C12   C     C_R   0.280482 0.499485 0.186042 -0.264473
C13   C     C_R   0.670687 0.471080 0.904292 0.021603
C14   C     C_R   0.331166 0.471752 0.095828 0.019769
C15   C     C_R   0.770852 0.426377 0.945966 0.135816
C16   C     C_R   0.230148 0.429647 0.053925 0.140227
C17   C     C_R   0.521192 0.475253 0.953296 0.099780
C18   C     C_R   0.480763 0.474413 0.046856 0.098244
C19   C     C_R   0.589491 0.455598 0.088185 -0.262003
C20   C     C_R   0.411889 0.459722 0.911887 -0.263244
C21   C     C_R   0.730211 0.423293 0.038127 -0.178472
C22   C     C_R   0.270359 0.428447 0.961811 -0.178946
H1    H     H_    0.806895 0.398077 0.072103 0.199970
H2    H     H_    0.192517 0.405649 0.927928 0.197165
H3    H     H_    0.352934 0.540750 0.218625 0.153273
H4    H     H_    0.650284 0.543788 0.781923 0.153249
H5    H     H_    0.935719 0.384659 0.234404 0.150543
H6    H     H_    0.063062 0.379167 0.764404 0.139018
H7    H     H_    0.563696 0.449362 0.159123 0.144369
H8    H     H_    0.437364 0.455145 0.840941 0.142073
C23   C     C_R   0.895328 0.060337 0.469571 -0.002922
C24   C     C_R   0.098422 0.938634 0.536877 0.003056
C25   C     C_R   0.897978 0.932718 0.472530 -0.245251
C26   C     C_R   0.097806 0.066556 0.532281 -0.239756
H9    H     H_    0.821645 0.881107 0.447902 0.151655
H10   H     H_    0.172082 0.118291 0.558317 0.144876
C27   C     C_R   0.998826 0.871280 0.504966 -0.078529
C28   C     C_R   0.997935 0.128172 0.498781 -0.075296
C29   C     C_R   0.540890 0.441940 0.565378 -0.015920
C30   C     C_R   0.458920 0.558890 0.435005 -0.014107
H11   H     H_    0.569473 0.394372 0.617617 0.117445
H12   H     H_    0.430242 0.606719 0.382903 0.115133
C31   C     C_R   0.392679 0.441957 0.565351 -0.024927
C32   C     C_R   0.607115 0.558897 0.435042 -0.023552
H13   H     H_    0.311059 0.394306 0.617566 0.108367
H14   H     H_    0.688690 0.606826 0.382965 0.119898
N1    N     N_R   0.352080 0.500030 0.499980 -0.154488
N2    N     N_R   0.647920 0.499970 0.500020 -0.155577
O9    O     O_3   0.975368 0.291040 0.927806 -0.693430
H15   H     H_    0.057453 0.256092 0.879765 0.319227
O10   O     O_3   0.026187 0.293228 0.072190 -0.695300
H16   H     H_    0.946511 0.255572 0.120690 0.314507
C33   C     C_R   0.782067 0.117707 0.436830 0.142541
C34   C     C_R   0.637206 0.124054 0.492326 -0.151601
C35   C     C_R   0.528641 0.175808 0.461594 -0.147912
C36   C     C_R   0.563412 0.220504 0.375274 -0.083521
C37   C     C_R   0.707103 0.213271 0.319395 -0.143352
C38   C     C_R   0.816744 0.162488 0.350012 -0.128902
H17   H     H_    0.608690 0.089379 0.559354 0.127532
H18   H     H_    0.417622 0.181560 0.504852 0.127965
H19   H     H_    0.478995 0.260541 0.351677 0.135322
H20   H     H_    0.732867 0.246709 0.252309 0.108962
H21   H     H_    0.927836 0.157252 0.306213 0.117870
C39   C     C_R   0.200595 0.878958 0.577906 0.124870
C40   C     C_R   0.146563 0.812823 0.657400 -0.100435
C41   C     C_R   0.243071 0.751871 0.693756 -0.114831
C42   C     C_R   0.393830 0.757300 0.651439 -0.101340
C43   C     C_R   0.448313 0.823754 0.572748 -0.136387
C44   C     C_R   0.352178 0.884392 0.535964 -0.161378
H22   H     H_    0.029884 0.807138 0.690349 0.104564
H23   H     H_    0.200929 0.699890 0.754475 0.126469
H24   H     H_    0.468375 0.709550 0.679379 0.123229
H25   H     H_    0.564938 0.827204 0.539804 0.135192
H26   H     H_    0.395386 0.933345 0.474011 0.135975

loop_
_geom_bond_atom_site_label_1
_geom_bond_atom_site_label_2
_geom_bond_distance
_ccdc_geom_bond_type
C15   C21   1.398327 A    
C16   C22   1.397625 A    
C8    C16   1.401861 A    
O7    Cu2   1.981743 S    
C11   H4    1.082392 S    
C42   C43   1.397935 A    
O5    C3    1.299454 A    
C12   H3    1.082296 S    
C30   C32   1.422127 A    
O1    C1    1.302559 A    
C18   C19   1.407573 A    
C14   C16   1.409061 A    
C44   H26   1.082694 S    
Cu1   N1    2.028492 S    
C35   H18   1.079926 S    
C37   H20   1.081092 S    
O4    Cu1   1.966933 S    
C3    C5    1.452720 S    
C43   H25   1.081930 S    
C4    C6    1.454460 S    
C29   H11   1.081512 S    
C30   H12   1.081463 S    
C21   H1    1.072991 S    
C13   C17   1.409474 A    
C40   H22   1.083400 S    
O6    C4    1.301348 A    
C36   C37   1.397010 A    
O9    H15   0.992360 S    
Cu1   Cu2   2.699286 S    
C17   C20   1.408296 A    
C23   C25   1.384724 A    
O2    C2    1.299746 A    
C24   C26   1.388612 A    
C26   H10   1.083053 S    
C31   H13   1.081314 S    
Cu2   N2    2.028493 S    
C1    C28   1.454711 S    
C32   H14   1.081326 S    
C24   C39   1.482397 S    
C39   C40   1.405788 A    
C37   C38   1.400567 A    
C41   C42   1.398225 A    
O4    C2    1.294859 A    
C2    C27   1.451944 S    
C31   N1    1.369361 A    
C43   C44   1.398655 A    
O6    Cu2   1.976698 S    
C38   H21   1.083074 S    
C29   N2    1.368844 A    
C22   H2    1.074603 S    
C5    C9    1.394732 A    
C40   C41   1.398883 A    
C9    H6    1.084023 S    
O7    C3    1.296749 A    
C36   H19   1.082604 S    
O5    Cu1   1.976698 S    
C6    C10   1.393451 A    
C19   H7    1.081403 S    
C20   H8    1.081254 S    
C34   H17   1.083181 S    
C25   H9    1.084798 S    
O3    Cu2   1.966933 S    
O8    C4    1.295723 A    
C7    O9    1.374027 S    
C39   C44   1.404289 A    
C11   C13   1.401015 A    
C12   C14   1.402064 A    
O1    Cu1   1.965877 S    
C23   C33   1.478733 S    
C32   N2    1.369392 A    
C33   C38   1.403712 A    
C6    C12   1.399537 A    
C30   N1    1.368812 A    
C14   C18   1.409410 A    
O3    C1    1.293694 A    
O8    Cu1   1.981745 S    
C41   H23   1.082700 S    
C8    O10   1.373272 S    
C7    C15   1.404442 A    
C34   C35   1.396972 A    
C19   C21   1.388961 A    
C20   C22   1.388705 A    
C10   H5    1.080779 S    
C42   H24   1.082607 S    
C29   C31   1.422233 A    
C7    C9    1.396416 A    
C23   C28   1.415131 A    
C8    C10   1.395546 A    
C24   C27   1.413484 A    
C13   C15   1.409905 A    
O10   H16   0.991752 S    
O2    Cu2   1.965877 S    
C33   C34   1.403375 A    
C5    C11   1.397688 A    
C35   C36   1.396122 A    
C17   C18   1.419615 A    
C25   C27   1.397402 A    
C26   C28   1.400671 A    
