data_mof_unit_44433.cif
_audit_creation_date              2012-12-11T18:37:49-0500
_audit_creation_method            fapswitch 2.2
_symmetry_space_group_name_H-M    P1
_symmetry_Int_Tables_number       1
_space_group_crystal_system       triclinic
_cell_length_a                    8.224802
_cell_length_b                    14.299491
_cell_length_c                    26.984206
_cell_angle_alpha                 93.43967
_cell_angle_beta                  92.462904
_cell_angle_gamma                 88.504196
_cell_volume                      3164.10119185

loop_
_atom_site_label
_atom_site_type_symbol
_atom_type_description
_atom_site_fract_x
_atom_site_fract_y
_atom_site_fract_z
_atom_type_partial_charge
Ba1   Ba    Ba6+2 0.849670 0.455410 0.524690 1.658748
Ba2   Ba    Ba6+2 0.340150 0.544510 0.475310 1.654331
C1    C     C_3   0.681600 0.117613 0.677621 -0.355725
C2    C     C_R   0.023276 0.592534 0.185029 0.593866
C3    C     C_2   0.789306 0.577542 0.271647 -0.098494
C4    C     C_3   0.177172 0.189086 0.662689 0.295528
C5    C     C_3   0.762405 0.601204 0.326172 -0.078671
C6    C     C_1   0.982074 0.486375 0.344436 0.039258
C7    C     C_2   0.017890 0.474483 0.296734 -0.093451
C8    C     C_2   0.916868 0.522022 0.257569 0.231739
C9    C     C_R   0.032071 0.507221 0.103834 -0.078842
C10   C     C_R   0.973594 0.428069 0.125637 -0.035368
C11   C     C_R   0.948947 0.345924 0.095688 -0.060951
C12   C     C_3   0.655268 0.206864 0.650116 0.430517
C13   C     C_R   0.057751 0.589785 0.133997 -0.031447
C14   C     C_2   0.863173 0.542278 0.360887 -0.265086
C15   C     C_2   0.335164 0.464999 0.639894 -0.266717
C16   C     C_3   0.142099 0.158762 0.714078 -0.299534
C17   C     C_R   0.075671 0.415864 0.970430 0.019712
C18   C     C_R   0.150164 0.582274 0.978306 0.019886
C19   C     C_R   0.129058 0.497449 0.948707 0.050258
C20   C     C_R   0.059706 0.332897 0.939381 -0.100215
C21   C     C_R   0.093311 0.330297 0.889168 -0.062945
C22   C     C_R   0.144591 0.410133 0.867218 -0.031709
C23   C     C_3   0.534051 0.671694 0.622667 0.284997
C24   C     C_R   0.162023 0.494078 0.896788 -0.079023
C25   C     C_R   0.212617 0.574532 0.874414 -0.034712
C26   C     C_R   0.246600 0.569661 0.823141 0.591928
C27   C     C_R   0.179894 0.407239 0.816275 0.595669
C28   C     C_3   0.179870 0.254206 0.417787 0.296754
C29   C     C_2   0.403555 0.424292 0.728365 -0.091402
C30   C     C_3   0.428535 0.401106 0.673702 -0.066073
C31   C     C_1   0.210754 0.516736 0.656086 0.040044
C32   C     C_2   0.173805 0.527059 0.703776 -0.080785
C33   C     C_2   0.275967 0.479580 0.742825 0.233304
C34   C     C_3   0.525510 0.692703 0.678413 -0.349695
C35   C     C_R   0.040579 0.419566 0.022089 0.020038
C36   C     C_R   0.064876 0.503862 0.051905 0.050387
C37   C     C_R   0.121443 0.584895 0.030397 0.019770
C38   C     C_R   0.981373 0.341606 0.045299 -0.099401
C39   C     C_R   0.117140 0.668195 0.112582 -0.062888
C40   C     C_3   0.123030 0.152828 0.414787 0.204236
C41   C     C_R   0.198811 0.661990 0.954382 -0.099601
C42   C     C_R   0.229178 0.658024 0.903827 -0.060302
C43   C     C_R   0.148271 0.665987 0.062175 -0.100976
C44   C     C_R   0.691583 0.064713 0.474771 -0.050217
C45   C     C_3   0.016588 0.770654 0.337120 0.352785
C46   C     C_R   0.511443 0.198521 0.502394 0.063912
C47   C     C_R   0.375027 0.230062 0.528036 -0.265409
C48   C     C_R   0.275895 0.167223 0.549160 0.013693
C49   C     C_R   0.321508 0.072842 0.549633 -0.093141
C50   C     C_R   0.463980 0.040105 0.526839 0.030775
C51   C     C_R   0.557668 0.101942 0.501192 0.006735
C52   C     C_3   0.031592 0.743162 0.577160 0.311848
C53   C     C_R   0.644572 0.908914 0.502354 -0.022428
C54   C     C_R   0.738516 0.969786 0.476300 -0.007584
C55   C     C_R   0.688525 0.812871 0.501660 0.029472
C56   C     C_3   0.967205 0.828056 0.293013 -0.336527
C57   C     C_R   0.823223 0.779019 0.475956 -0.282597
C58   C     C_R   0.924171 0.839751 0.454212 0.012123
C59   C     C_R   0.879936 0.934876 0.452913 -0.141247
C60   C     C_R   0.508762 0.945320 0.527665 -0.050998
C61   C     C_3   0.037995 0.848773 0.587948 -0.384803
C62   C     C_3   0.660423 0.340612 0.380263 0.279089
C63   C     C_3   0.672663 0.316522 0.324864 -0.354717
C64   C     C_3   0.327694 0.045702 0.392827 0.154109
C65   C     C_3   0.508774 0.785587 0.335987 0.364797
C66   C     C_3   0.460958 0.863269 0.301747 -0.358669
C67   C     C_R   0.939044 0.433037 0.176832 0.594023
H1    H     H_    0.706050 0.195990 0.612648 0.073859
H2    H     H_    0.568047 0.397608 0.385636 0.095609
H3    H     H_    0.813050 0.099248 0.681392 0.141974
H4    H     H_    0.770709 0.262835 0.318418 0.127295
H5    H     H_    0.700740 0.379989 0.305482 0.091411
H6    H     H_    0.555198 0.288904 0.309153 0.128695
H7    H     H_    0.521581 0.218931 0.645600 -0.157724
H8    H     H_    0.618546 0.058947 0.656621 0.062369
H9    H     H_    0.412570 0.649699 0.607714 0.012202
H10   H     H_    0.624116 0.613587 0.616197 0.079119
H11   H     H_    0.430365 0.747519 0.686229 0.134022
H12   H     H_    0.075134 0.131718 0.376470 0.031845
H13   H     H_    0.495112 0.628339 0.696724 0.080571
H14   H     H_    0.644976 0.717531 0.694023 0.131197
H15   H     H_    0.631149 0.127284 0.715156 0.108721
H16   H     H_    0.251781 0.168321 0.739154 0.105539
H17   H     H_    0.067823 0.701680 0.323456 0.093798
H18   H     H_    0.904402 0.759517 0.357117 -0.086579
H19   H     H_    0.071684 0.834542 0.268913 0.148260
H20   H     H_    0.867080 0.793099 0.270703 0.104169
H21   H     H_    0.923854 0.899035 0.306282 0.087685
H22   H     H_    0.643272 0.780123 0.336713 -0.082902
H23   H     H_    0.018171 0.149756 0.438888 0.066847
H24   H     H_    0.469202 0.805656 0.374106 0.069231
H25   H     H_    0.524055 0.928515 0.314765 0.043314
H26   H     H_    0.328086 0.877328 0.301608 0.137815
H27   H     H_    0.216971 0.262753 0.666070 0.026643
H28   H     H_    0.496872 0.842845 0.263312 0.121456
H29   H     H_    0.122571 0.431484 0.285785 0.098660
H30   H     H_    0.903447 0.283971 0.111158 0.119663
H31   H     H_    0.476862 0.387312 0.755695 0.084174
H32   H     H_    0.079217 0.264548 0.867451 0.116409
H33   H     H_    0.022776 0.267593 0.952655 0.067289
H34   H     H_    0.904891 0.723327 0.567960 -0.004613
H35   H     H_    0.956751 0.275573 0.025551 0.067193
H36   H     H_    0.716816 0.614339 0.244063 0.080404
H37   H     H_    0.139616 0.732496 0.134876 0.116785
H38   H     H_    0.213453 0.729631 0.973514 0.067234
H39   H     H_    0.275600 0.141909 0.648090 -0.031716
H40   H     H_    0.266539 0.721338 0.887797 0.120032
H41   H     H_    0.068690 0.569576 0.714824 0.097788
H42   H     H_    0.195131 0.729509 0.049504 0.067274
H43   H     H_    0.850365 0.557777 0.400408 0.081764
H44   H     H_    0.358540 0.457015 0.600575 0.076964
H45   H     H_    0.109195 0.723571 0.545372 0.066249
H46   H     H_    0.339453 0.303479 0.528606 0.058343
H47   H     H_    0.244251 0.025017 0.566859 0.050230
H48   H     H_    0.956195 0.981100 0.434341 0.091338
H49   H     H_    0.855804 0.705167 0.475635 0.058492
H50   H     H_    0.759829 0.108357 0.452511 0.088785
H51   H     H_    0.039024 0.201211 0.729466 0.182611
H52   H     H_    0.434969 0.900547 0.547925 0.089481
H53   H     H_    0.110035 0.083616 0.711919 0.086721
H54   H     H_    0.311628 0.255437 0.411670 0.030499
H55   H     H_    0.154264 0.286518 0.455221 0.002933
H56   H     H_    0.954593 0.870885 0.617996 0.126774
H57   H     H_    0.386593 0.097009 0.370366 0.033411
H58   H     H_    0.243117 0.001225 0.369037 0.067800
H59   H     H_    0.424284 0.998607 0.407969 0.079955
H60   H     H_    0.001020 0.886107 0.554335 0.068019
H61   H     H_    0.163988 0.868764 0.599790 0.115986
H62   H     H_    0.779579 0.364793 0.395691 0.017505
N1    N     N_R   0.961983 0.515167 0.205762 -0.424618
N2    N     N_R   0.232032 0.486164 0.794799 -0.424735
O1    O     O_2   0.918080 0.549800 0.616640 -0.455090
O2    O     O_2   0.265260 0.833794 0.456592 -0.477253
O3    O     O_3   0.135274 0.818241 0.367137 -0.608442
O4    O     O_3   0.150070 0.549720 0.556460 -0.496603
O5    O     O_3   0.546340 0.387390 0.478340 -0.493508
O6    O     O_2   0.398940 0.728800 0.517420 -0.461691
O7    O     O_3   0.580759 0.752518 0.600495 -0.647535
O8    O     O_2   0.454704 0.519140 0.324257 -0.482917
O9    O     O_3   0.435242 0.701503 0.318143 -0.564005
O10   O     O_2   0.886852 0.364614 0.195457 -0.595998
O11   O     O_2   0.163810 0.334191 0.790914 -0.618619
O12   O     O_3   0.615476 0.260615 0.403285 -0.649582
O13   O     O_2   0.048202 0.663963 0.211095 -0.613390
O14   O     O_2   0.291142 0.639397 0.803972 -0.596316
O15   O     O_3   0.658250 0.379560 0.591530 -0.482379
O16   O     O_2   0.754399 0.465928 0.678202 -0.476203
O17   O     O_3   0.086444 0.699433 0.619796 -0.632992
O18   O     O_3   0.733330 0.282003 0.676893 -0.567585
O19   O     O_2   0.790750 0.271170 0.482550 -0.465843
O20   O     O_3   0.062300 0.331660 0.568480 -0.467286
O21   O     O_2   0.940801 0.166244 0.539309 -0.487441
O22   O     O_3   0.246298 0.091354 0.432739 -0.671530
O23   O     O_3   0.035227 0.181755 0.632191 -0.585440
O24   O     O_2   0.271610 0.450170 0.383330 -0.458742
O25   O     O_3   0.039630 0.450200 0.443530 -0.488000
O26   O     O_3   0.531440 0.620360 0.408460 -0.471275
O27   O     O_3   0.097319 0.300752 0.379792 -0.670078
O28   O     O_3   0.643350 0.612530 0.521650 -0.479577
O29   O     O_3   0.127390 0.668260 0.431510 -0.479626
P1    P     P_3+3 0.090020 0.577590 0.608380 0.991435
P2    P     P_3+3 0.614340 0.285150 0.467650 0.964778
P3    P     P_3+3 0.079914 0.210285 0.572254 0.967874
P4    P     P_3+3 0.099670 0.422330 0.391610 0.984288
P5    P     P_3+3 0.114409 0.790753 0.428736 0.966565
P6    P     P_3+3 0.645210 0.385959 0.656105 0.980879
P7    P     P_3+3 0.581817 0.728548 0.536146 0.936352
P8    P     P_3+3 0.545164 0.608285 0.343713 0.973271

loop_
_geom_bond_atom_site_label_1
_geom_bond_atom_site_label_2
_ccdc_geom_bond_type
C27   N2    Am   
C53   C54   A    
C7    H29   S    
O26   P8    S    
C62   O12   S    
C4    H39   S    
C19   C24   A    
C33   N2    S    
C15   H44   S    
C52   O17   S    
C3    H36   S    
C64   H58   S    
C28   O27   S    
O17   P1    S    
O16   P6    D    
O25   P4    S    
C24   C25   A    
O7    P7    S    
Ba2   O6    S    
Ba1   O25   S    
C17   C19   A    
C22   C24   A    
C32   C33   S    
C35   C38   A    
C67   N1    Am   
C36   C37   A    
C45   O3    S    
C55   C57   A    
C52   C61   S    
C21   H32   S    
C34   H14   S    
O18   P6    S    
C53   C60   A    
C63   H4    S    
O1    P1    D    
Ba1   O19   S    
Ba1   Ba2   S    
C61   H61   S    
C26   N2    Am   
C66   H28   S    
C11   C38   A    
C17   C35   A    
C22   C27   A    
C9    C13   A    
C25   C42   A    
Ba1   P2    S    
C34   H13   S    
C6    C7    D    
C12   O18   S    
C21   C22   A    
O21   P3    D    
O27   P4    S    
C7    C8    S    
Ba2   P4    S    
C37   C43   A    
O28   P7    S    
C42   H40   S    
Ba1   O28   S    
C57   C58   A    
C6    C14   D    
C12   H1    S    
Ba2   O29   S    
C40   H12   S    
C15   C31   D    
Ba2   O28   S    
C31   C32   D    
O24   P4    D    
C55   P7    S    
C46   C51   A    
C4    C16   S    
C16   H16   S    
C39   H37   S    
C59   H48   S    
C49   C50   A    
Ba2   O5    S    
C45   H17   S    
C52   H34   S    
C23   O7    S    
C13   C39   A    
C2    N1    Am   
C34   H11   S    
C3    C5    S    
C18   C37   A    
Ba2   O26   S    
C27   O11   D    
C23   H9    S    
C66   H25   S    
C63   H5    S    
C65   C66   S    
C58   C59   A    
C45   H18   S    
C11   H30   S    
C9    C36   A    
C41   C42   A    
C35   C36   A    
C38   H35   S    
C29   C30   S    
C62   H62   S    
Ba2   O25   S    
C2    O13   D    
C17   C20   A    
C48   P3    S    
C65   H22   S    
C48   C49   A    
C54   C59   A    
C41   H38   S    
C29   H31   S    
C18   C19   A    
Ba1   O20   S    
C28   H54   S    
C56   H21   S    
C66   H26   S    
C61   H56   S    
C1    C12   S    
C6    P4    S    
C16   H53   S    
C46   C47   A    
C47   H46   S    
C10   C67   A    
C28   H55   S    
C57   H49   S    
C4    H27   S    
C53   C55   A    
C32   H41   S    
C29   C33   D    
Ba1   O1    S    
C1    H8    S    
C16   H51   S    
C1    H15   S    
C18   C41   A    
Ba1   O4    S    
C50   C51   A    
C14   H43   S    
O4    P1    S    
C5    C14   S    
C26   O14   D    
C39   C43   A    
O20   P3    S    
C23   H10   S    
Ba2   O4    S    
O19   P2    D    
C56   H19   S    
C58   P5    S    
C9    C10   A    
C43   H42   S    
C46   P2    S    
O12   P2    S    
C67   O10   D    
C62   H2    S    
C49   H47   S    
C20   H33   S    
O9    P8    S    
C62   C63   S    
C2    C13   A    
C30   P6    S    
C1    H3    S    
C3    C8    D    
C50   C60   A    
C45   C56   S    
C64   O22   S    
O23   P3    S    
Ba2   O24   S    
O15   P6    S    
C52   H45   S    
C44   C51   A    
O8    P8    D    
C31   P1    S    
C64   H59   S    
C44   H50   S    
O6    P7    D    
C40   H23   S    
C61   H60   S    
C56   H20   S    
C8    N1    S    
O3    P5    S    
C40   O22   S    
Ba1   O5    S    
C23   C34   S    
O29   P5    S    
C64   H57   S    
C10   C11   A    
Ba1   P1    S    
C47   C48   A    
C5    P8    S    
C44   C54   A    
C25   C26   A    
C65   H24   S    
C15   C30   S    
O2    P5    D    
C20   C21   A    
C28   C40   S    
Ba1   O15   S    
O5    P2    S    
C65   O9    S    
C60   H52   S    
C4    O23   S    
C63   H6    S    
C12   H7    S    
