data_mof_unit_67947.cif
_audit_creation_date              2012-12-10T19:24:10-0500
_audit_creation_method            fapswitch 2.2
_symmetry_space_group_name_H-M    P1
_symmetry_Int_Tables_number       1
_space_group_crystal_system       triclinic
_cell_length_a                    10.823807
_cell_length_b                    10.614046
_cell_length_c                    9.934923
_cell_angle_alpha                 91.507494
_cell_angle_beta                  88.430066
_cell_angle_gamma                 90.920266
_cell_volume                      1140.4097998

loop_
_atom_site_label
_atom_site_type_symbol
_atom_type_description
_atom_site_fract_x
_atom_site_fract_y
_atom_site_fract_z
_atom_type_partial_charge
C1    C     C_R   0.498292 0.257971 0.497835 0.925757
C2    C     C_3   0.611768 0.491766 0.043640 -0.026814
C3    C     C_R   0.257727 0.496412 0.500997 0.999383
C4    C     C_R   0.742272 0.503588 0.499003 0.999382
C5    C     C_3   0.032952 0.431704 0.603820 0.377967
C6    C     C_3   0.967048 0.568296 0.396180 0.377968
C7    C     C_3   0.953501 0.384887 0.486639 0.372632
C8    C     C_3   0.046499 0.615113 0.513361 0.372633
C9    C     C_3   0.877796 0.506301 0.498830 -0.346776
C10   C     C_3   0.122204 0.493699 0.501170 -0.346776
C11   C     C_3   0.958062 0.553974 0.617920 0.038315
C12   C     C_R   0.501708 0.742029 0.502165 0.925757
C13   C     C_3   0.041937 0.446026 0.382080 0.038316
C14   C     C_3   0.501820 0.050183 0.623167 -0.258597
C15   C     C_3   0.498179 0.949817 0.376833 -0.258597
C16   C     C_3   0.603893 0.966348 0.559612 0.157217
C17   C     C_3   0.396107 0.033652 0.440387 0.157216
C18   C     C_3   0.502377 0.877431 0.507919 -0.122819
C19   C     C_3   0.497622 0.122569 0.492081 -0.122819
C20   C     C_3   0.984876 0.169998 0.497041 -0.104721
C21   C     C_3   0.015124 0.830002 0.502959 -0.104722
C22   C     C_3   0.973383 0.317818 0.791366 -0.170583
C23   C     C_3   0.400511 0.959340 0.571017 0.172895
C24   C     C_3   0.026616 0.682181 0.208633 -0.170587
C25   C     C_3   0.642301 0.205205 0.969578 -0.244682
C26   C     C_3   0.357696 0.794794 0.030422 -0.244684
C27   C     C_3   0.332778 0.219238 0.993789 -0.128809
C28   C     C_3   0.667224 0.780760 0.006211 -0.128820
C29   C     C_3   0.599489 0.040660 0.428982 0.172895
C30   C     C_3   0.436825 0.406379 0.045901 0.398948
C31   C     C_3   0.563175 0.593621 0.954099 0.398948
C32   C     C_3   0.546955 0.398994 0.946872 0.386718
C33   C     C_3   0.453045 0.601006 0.053128 0.386720
C34   C     C_3   0.388232 0.508234 0.956360 -0.026811
H1    H     H_    0.501898 0.092802 0.726334 0.217651
H2    H     H_    0.963497 0.388926 0.873818 0.231013
H3    H     H_    0.994717 0.227027 0.837733 0.186531
H4    H     H_    0.116292 0.694679 0.260030 0.190156
H5    H     H_    0.005282 0.772971 0.162266 0.186531
H6    H     H_    0.036501 0.611074 0.126181 0.231013
H7    H     H_    0.604955 0.217056 0.074504 0.205068
H8    H     H_    0.744591 0.212779 0.968148 0.213560
H9    H     H_    0.618495 0.107967 0.934821 0.177744
H10   H     H_    0.255407 0.787214 0.031848 0.213561
H11   H     H_    0.395047 0.782945 0.925496 0.205069
H12   H     H_    0.498101 0.907198 0.273666 0.217651
H13   H     H_    0.381498 0.892033 0.065182 0.177746
H14   H     H_    0.400902 0.143165 0.979029 0.149634
H15   H     H_    0.317768 0.265180 0.896191 0.179442
H16   H     H_    0.244223 0.172648 0.023146 0.215825
H17   H     H_    0.682251 0.734813 0.103802 0.179449
H18   H     H_    0.599094 0.856824 0.020987 0.149636
H19   H     H_    0.755771 0.827361 0.976846 0.215825
H20   H     H_    0.963942 0.128400 0.596165 0.177386
H21   H     H_    0.083087 0.202547 0.494181 0.182629
H22   H     H_    0.976266 0.094089 0.419535 0.201667
H23   H     H_    0.023734 0.905912 0.580465 0.201667
H24   H     H_    0.916912 0.797453 0.505819 0.182629
H25   H     H_    0.036057 0.871599 0.403835 0.177387
H26   H     H_    0.883707 0.305320 0.739969 0.190156
I1    I     I_    0.906826 0.654322 0.797106 -0.227969
I2    I     I_    0.093174 0.345678 0.202894 -0.227967
I3    I     I_    0.754520 0.945650 0.687359 -0.402142
I4    I     I_    0.245479 0.054350 0.312640 -0.402141
I5    I     I_    0.258858 0.919785 0.716968 -0.372539
I6    I     I_    0.741141 0.080215 0.283032 -0.372539
I7    I     I_    0.206124 0.538403 0.900046 -0.237182
I8    I     I_    0.793876 0.461594 0.099954 -0.237184
N1    N     N_3   0.499910 0.500030 0.863290 -0.178425
N2    N     N_3   0.500090 0.499970 0.136710 -0.178424
O1    O     O_R   0.500010 0.313960 0.616610 -0.590250
O2    O     O_3   0.101813 0.735619 0.527158 -0.571173
O3    O     O_3   0.073207 0.351855 0.704699 -0.593645
O4    O     O_3   0.926792 0.648145 0.295300 -0.593646
O5    O     O_3   0.594827 0.290876 0.878836 -0.585913
O6    O     O_3   0.405173 0.709124 0.121164 -0.585913
O7    O     O_3   0.369409 0.303312 0.099066 -0.552553
O8    O     O_3   0.630591 0.696688 0.900934 -0.552553
O9    O     O_R   0.499990 0.686040 0.383390 -0.590249
O10   O     O_R   0.500060 0.313950 0.383350 -0.576796
O11   O     O_R   0.499940 0.686050 0.616650 -0.576796
O12   O     O_R   0.313930 0.499970 0.616610 -0.572053
O13   O     O_R   0.686070 0.500030 0.383390 -0.572053
O14   O     O_R   0.313980 0.499960 0.383350 -0.580496
O15   O     O_R   0.686020 0.500040 0.616650 -0.580496
O16   O     O_3   0.898187 0.264381 0.472841 -0.571173
Zn1   Zn    Zn3+2 0.499970 0.500010 0.655740 1.086796
Zn2   Zn    Zn3+2 0.500030 0.499990 0.344260 1.086796

loop_
_geom_bond_atom_site_label_1
_geom_bond_atom_site_label_2
_ccdc_geom_bond_type
C27   H14   S    
C15   C18   S    
C20   H22   S    
N2    Zn2   S    
C25   H9    S    
C32   O5    S    
C26   H10   S    
C17   C23   S    
C21   H25   S    
C2    I8    S    
C17   I4    S    
C22   H26   S    
C28   H17   S    
C7    O16   S    
O12   Zn1   S    
C12   O9    A    
C24   H5    S    
C2    C32   S    
C26   H11   S    
C24   H6    S    
C30   O7    S    
C13   I2    S    
C20   O16   S    
C24   H4    S    
C31   C33   S    
C15   C29   S    
C16   I3    S    
C28   O8    S    
N1    Zn1   S    
C27   H16   S    
O13   Zn2   S    
C21   H24   S    
C6    C9    S    
C20   H21   S    
O9    Zn2   S    
C30   N2    S    
C6    O4    S    
O15   Zn1   S    
C1    C19   S    
C8    O2    S    
C30   C34   S    
C21   O2    S    
C18   C23   S    
C20   H20   S    
C25   H7    S    
C14   H1    S    
C5    C7    S    
C6    C8    S    
C4    O15   A    
C11   I1    S    
C16   C29   S    
C22   H3    S    
C2    C31   S    
C25   O5    S    
C14   C23   S    
C25   H8    S    
C21   H23   S    
C33   O6    S    
C26   O6    S    
C7    C13   S    
C3    O12   A    
C33   C34   S    
C1    O1    A    
C9    C11   S    
C34   N1    S    
O11   Zn1   S    
C26   H13   S    
O1    Zn1   S    
C33   N2    S    
C8    C10   S    
C14   C16   S    
C19   C29   S    
C31   O8    S    
C15   C17   S    
C14   C19   S    
O14   Zn2   S    
C27   O7    S    
C10   C13   S    
C34   I7    S    
C28   H19   S    
C5    C11   S    
C32   N1    S    
C22   H2    S    
C15   H12   S    
C23   I5    S    
C5    C10   S    
O10   Zn2   S    
C3    C10   S    
C6    C13   S    
C30   C32   S    
C28   H18   S    
C24   O4    S    
C4    O13   A    
C8    C11   S    
C17   C19   S    
C12   O11   A    
C5    O3    S    
C29   I6    S    
C7    C9    S    
C31   N1    S    
C16   C18   S    
C12   C18   S    
C3    O14   A    
C1    O10   A    
C22   O3    S    
C4    C9    S    
C2    N2    S    
C27   H15   S    
