data_mof_unit_5793.cif
_audit_creation_date              2013-03-05T15:45:39-0500
_audit_creation_method            fapswitch 2.2
_symmetry_space_group_name_H-M    P1
_symmetry_Int_Tables_number       1
_space_group_crystal_system       triclinic
_cell_length_a                    15.078148
_cell_length_b                    11.040022
_cell_length_c                    9.815486
_cell_angle_alpha                 111.077158
_cell_angle_beta                  97.844883
_cell_angle_gamma                 91.081194
_cell_volume                      1506.2469092

loop_
_atom_site_label
_atom_site_type_symbol
_atom_site_description
_atom_site_fract_x
_atom_site_fract_y
_atom_site_fract_z
_atom_type_partial_charge
O1    O     O_R   0.508410 0.332340 0.577400 -0.575496
O2    O     O_R   0.491590 0.667660 0.422600 -0.575651
O3    O     O_R   0.481780 0.295500 0.332650 -0.581201
O4    O     O_R   0.518220 0.704500 0.667350 -0.581172
C1    C     C_R   0.493433 0.254149 0.440708 0.878992
C2    C     C_R   0.506566 0.745851 0.559292 0.878779
O5    O     O_R   0.383570 0.518390 0.622380 -0.540584
O6    O     O_R   0.616430 0.481610 0.377620 -0.540536
O7    O     O_R   0.356940 0.481550 0.377630 -0.582305
O8    O     O_R   0.643060 0.518450 0.622370 -0.582255
C3    C     C_R   0.328854 0.497863 0.501294 0.864108
C4    C     C_R   0.671145 0.502032 0.498677 0.863760
Cu1   Cu    Cu3+1 0.515770 0.521810 0.644910 1.001910
Cu2   Cu    Cu3+1 0.484230 0.478190 0.355090 1.001904
C5    C     C_R   0.806920 0.551562 0.401133 0.307985
C6    C     C_R   0.193069 0.447797 0.598509 0.307800
C7    C     C_R   0.767642 0.503406 0.495924 -0.178336
C8    C     C_R   0.232348 0.496232 0.503933 -0.178271
C9    C     C_R   0.820618 0.454543 0.590031 -0.280183
C10   C     C_R   0.179351 0.545032 0.409791 -0.280222
C11   C     C_R   0.912751 0.452001 0.591403 0.114299
C12   C     C_R   0.087207 0.547338 0.408228 0.114312
C13   C     C_R   0.953202 0.500196 0.498110 0.039752
C14   C     C_R   0.046758 0.499070 0.501465 0.039783
C15   C     C_R   0.900398 0.550142 0.402252 -0.006682
C16   C     C_R   0.099568 0.449089 0.597294 -0.006722
C17   C     C_R   0.964851 0.401448 0.684748 -0.197283
C18   C     C_R   0.035097 0.597757 0.314764 -0.197265
C19   C     C_R   0.057215 0.399178 0.687140 -0.142421
C20   C     C_R   0.942724 0.599919 0.312273 -0.142416
H1    H     H_    0.789623 0.416636 0.661441 0.180326
H2    H     H_    0.210348 0.583072 0.338495 0.180315
H3    H     H_    0.934043 0.363181 0.755885 0.157559
H4    H     H_    0.065902 0.636020 0.243616 0.157559
H5    H     H_    0.094747 0.357604 0.759494 0.200531
H6    H     H_    0.905168 0.641342 0.239790 0.200450
H7    H     H_    0.486443 0.864744 0.368306 0.185099
H8    H     H_    0.513543 0.135256 0.631694 0.185156
C21   C     C_2   0.489889 0.114878 0.407301 -0.316328
C22   C     C_2   0.510107 0.885122 0.592699 -0.316412
C23   C     C_2   0.501551 0.069555 0.516652 -0.121525
C24   C     C_2   0.498439 0.930445 0.483348 -0.121778
H9    H     H_    0.522184 0.951115 0.707537 0.152276
H10   H     H_    0.477815 0.048885 0.292463 0.152213
H11   H     H_    0.442688 0.414047 0.845222 0.213194
H12   H     H_    0.557297 0.585976 0.154788 0.213099
N1    N     N_2   0.460520 0.445420 0.137370 -0.290292
N2    N     N_2   0.539480 0.554580 0.862630 -0.290268
C25   C     C_2   0.506833 0.511440 0.081439 -0.024142
C26   C     C_2   0.493159 0.488573 0.918566 -0.024370
H13   H     H_    0.586923 0.624954 0.934845 0.222605
H14   H     H_    0.413082 0.375039 0.065153 0.222627
N3    N     N_R   0.752672 0.606098 0.308872 0.105319
O9    O     O_R   0.742598 0.549676 0.165770 -0.397259
O10   O     O_R   0.710850 0.709745 0.368013 -0.389094
N4    N     N_R   0.247343 0.393150 0.690643 0.105347
O11   O     O_R   0.289729 0.290135 0.631406 -0.389175
O12   O     O_R   0.257064 0.449070 0.833778 -0.397419

loop_
_geom_bond_atom_site_label_1
_geom_bond_atom_site_label_2
_geom_bond_distance
_ccdc_geom_bond_type
C4    C7    1.458814 S    
Cu1   N2    2.013967 S    
O7    Cu2   1.961307 S    
C6    N4    1.435449 S    
C3    C8    1.458789 S    
Cu2   N1    2.013967 S    
C17   C19   1.390522 A    
C23   C24   1.449023 S    
C19   H5    1.081584 S    
C20   H6    1.081563 S    
O6    C4    1.294621 A    
C9    H1    1.085297 S    
C18   C20   1.390499 A    
C11   C17   1.398540 A    
C18   H4    1.084064 S    
N1    C25   1.301351 D    
C12   C18   1.398503 A    
N3    O9    1.301122 A    
C17   H3    1.084031 S    
O5    C3    1.294652 A    
O7    C3    1.292714 A    
H12   C25   1.084048 S    
N2    H13   1.030678 S    
N1    H14   1.030676 S    
O3    Cu2   1.947620 S    
O8    C4    1.292756 A    
H11   C26   1.084036 S    
H8    C23   1.088166 S    
O1    C1    1.293530 A    
C5    N3    1.435333 S    
N2    C26   1.301354 D    
C9    C11   1.388323 A    
N4    O12   1.301153 A    
C8    C10   1.398353 A    
N3    O10   1.301294 A    
C11   C13   1.408663 A    
C6    C16   1.408627 A    
O2    Cu2   1.949631 S    
C12   C14   1.408663 A    
C5    C15   1.408447 A    
O4    C2    1.290210 A    
O1    Cu1   1.949631 S    
C10   C12   1.388172 A    
C21   H10   1.087577 S    
O5    Cu1   1.973454 S    
C2    C22   1.450500 S    
N4    O11   1.301232 A    
C21   C23   1.330948 D    
C16   C19   1.406812 A    
C6    C8    1.411956 A    
C25   C26   1.509899 S    
C10   H2    1.085264 S    
H7    C24   1.088165 S    
C5    C7    1.411882 A    
C1    C21   1.450497 S    
C15   C20   1.406780 A    
O6    Cu2   1.973454 S    
C13   C14   1.406916 A    
C7    C9    1.398409 A    
C13   C15   1.417211 A    
Cu1   Cu2   2.680907 S    
C22   H9    1.087577 S    
O2    C2    1.293531 A    
O4    Cu1   1.947618 S    
C14   C16   1.417290 A    
C22   C24   1.330947 D    
O3    C1    1.290210 A    
O8    Cu1   1.961307 S    
