data_mof_unit_63107.cif
_audit_creation_date              2012-10-26T18:00:07-0400
_audit_creation_method            fapswitch 2.2
_symmetry_space_group_name_H-M    P1
_symmetry_Int_Tables_number       1
_space_group_crystal_system       triclinic
_cell_length_a                    39.032599
_cell_length_b                    39.032606
_cell_length_c                    35.655144
_cell_angle_alpha                 90.0
_cell_angle_beta                  89.999952
_cell_angle_gamma                 90.000065
_cell_volume                      54322.1827755

loop_
_atom_site_label
_atom_site_type_symbol
_atom_type_description
_atom_site_fract_x
_atom_site_fract_y
_atom_site_fract_z
_atom_type_partial_charge
C1    C     C_R   0.066022 0.500000 0.500000 0.625366
C2    C     C_R   0.500000 0.676310 0.500000 0.028765
C3    C     C_R   0.985847 0.621671 0.030439 0.190920
C4    C     C_R   0.621671 0.985848 0.969561 0.190920
C5    C     C_R   0.014153 0.621671 0.969561 0.190920
C6    C     C_R   0.378330 0.014139 0.969554 0.190917
C7    C     C_R   0.985849 0.378329 0.969560 0.190920
C8    C     C_R   0.103550 0.500000 0.500000 0.044814
C9    C     C_R   0.500000 0.896450 0.500000 0.044812
C10   C     C_R   0.896450 0.500000 0.500000 0.044813
C11   C     C_R   0.500000 0.103549 0.500000 0.044814
C12   C     C_R   0.603550 0.000000 0.000000 0.044281
C13   C     C_R   0.676310 0.500000 0.500000 0.028765
C14   C     C_R   1.000000 0.396450 0.000000 0.044283
C15   C     C_R   0.396450 1.000000 1.000000 0.044295
C16   C     C_R   0.000000 0.603550 0.000000 0.044281
C17   C     C_R   0.500000 0.566462 0.500000 0.551447
C18   C     C_R   0.566462 0.500000 0.500000 0.551447
C19   C     C_R   0.500000 0.433538 0.500000 0.551447
C20   C     C_R   0.433538 0.500000 0.500000 0.551447
C21   C     C_R   0.000000 0.066462 0.000000 0.551839
C22   C     C_R   0.066462 0.000000 1.000000 0.551841
C23   C     C_R   0.000000 0.933538 0.000000 0.551839
C24   C     C_R   0.500000 0.323690 0.500000 0.028765
C25   C     C_R   0.933537 0.000000 0.000000 0.551837
C26   C     C_R   0.000000 0.500000 0.427701 0.583141
C27   C     C_R   0.500000 0.000000 0.427701 0.583144
C28   C     C_R   0.000000 0.500000 0.572299 0.583140
C29   C     C_R   0.500000 0.000000 0.572299 0.583143
C30   C     C_R   0.500000 0.000000 0.927701 0.582248
C31   C     C_R   0.000000 0.500000 0.927701 0.582235
C32   C     C_R   0.500000 0.000000 0.072299 0.582248
C33   C     C_R   1.000000 0.500000 0.072299 0.582235
C34   C     C_R   0.175698 0.500000 0.500000 -0.052518
C35   C     C_R   0.823537 0.000000 0.000000 0.031736
C36   C     C_R   0.500000 0.824302 0.500000 -0.052518
C37   C     C_R   0.824302 0.500000 0.500000 -0.052518
C38   C     C_R   0.500000 0.175698 0.500000 -0.052518
C39   C     C_R   0.675549 0.000000 0.000000 -0.056021
C40   C     C_R   1.000000 0.324451 0.000000 -0.056022
C41   C     C_R   0.324451 1.000000 1.000000 -0.056022
C42   C     C_R   0.000000 0.675549 0.000000 -0.056022
C43   C     C_R   0.030996 0.498830 0.173068 -0.097761
C44   C     C_R   0.498829 0.969004 0.173068 -0.097759
C45   C     C_R   0.969004 0.501170 0.173068 -0.097761
C46   C     C_R   0.000000 0.176463 0.000000 0.031736
C47   C     C_R   0.501171 0.030996 0.173068 -0.097758
C48   C     C_R   0.030996 0.501170 0.826932 -0.097761
C49   C     C_R   0.498831 0.030996 0.826932 -0.097758
C50   C     C_R   0.969004 0.498830 0.826932 -0.097761
C51   C     C_R   0.501168 0.969004 0.826932 -0.097758
C52   C     C_R   0.530996 0.998830 0.673068 -0.097513
C53   C     C_R   0.998830 0.469004 0.673068 -0.097514
C54   C     C_R   0.469004 0.001170 0.673068 -0.097512
C55   C     C_R   0.001170 0.530996 0.673068 -0.097514
C56   C     C_R   0.530997 0.001143 0.326932 -0.097510
C57   C     C_R   0.176463 1.000000 1.000000 0.031735
C58   C     C_R   0.998828 0.530996 0.326932 -0.097514
C59   C     C_R   0.469003 0.998857 0.326932 -0.097509
C60   C     C_R   0.001172 0.469004 0.326932 -0.097514
C61   C     C_R   0.031033 0.498836 0.133856 -0.093826
C62   C     C_R   0.498835 0.968967 0.133856 -0.093822
C63   C     C_R   0.968967 0.501164 0.133856 -0.093826
C64   C     C_R   0.501165 0.031033 0.133856 -0.093818
C65   C     C_R   0.031033 0.501164 0.866143 -0.093826
C66   C     C_R   0.498837 0.031033 0.866143 -0.093822
C67   C     C_R   0.968967 0.498836 0.866143 -0.093826
C68   C     C_R   1.000000 0.823537 0.000000 0.031737
C69   C     C_R   0.501162 0.968967 0.866143 -0.093818
C70   C     C_R   0.531033 0.998836 0.633856 -0.093418
C71   C     C_R   0.998836 0.468967 0.633856 -0.093419
C72   C     C_R   0.468967 0.001164 0.633856 -0.093418
C73   C     C_R   0.001164 0.531033 0.633856 -0.093418
C74   C     C_R   0.531034 0.001137 0.366143 -0.093418
C75   C     C_R   0.998833 0.531033 0.366144 -0.093419
C76   C     C_R   0.468966 0.998863 0.366143 -0.093417
C77   C     C_R   0.001166 0.468967 0.366144 -0.093419
C78   C     C_R   1.000000 0.500000 0.113809 0.044145
C79   C     C_R   0.395783 0.500000 0.500000 0.015160
C80   C     C_R   0.500000 0.000000 0.113809 0.044155
C81   C     C_R   1.000000 0.500000 0.886191 0.044145
C82   C     C_R   0.500000 0.000000 0.886191 0.044158
C83   C     C_R   0.500000 0.000000 0.613809 0.044869
C84   C     C_R   1.000000 0.500000 0.613809 0.044867
C85   C     C_R   0.500000 0.000000 0.386191 0.044890
C86   C     C_R   1.000000 0.500000 0.386191 0.044865
C87   C     C_R   1.000000 0.500000 0.192742 0.037194
C88   C     C_R   0.500000 0.000000 0.192742 0.037195
C89   C     C_R   1.000000 0.500000 0.807258 0.037194
C90   C     C_R   0.500000 0.604217 0.500000 0.015160
C91   C     C_R   0.500000 1.000000 0.807258 0.037196
C92   C     C_R   0.500000 1.000000 0.692742 0.037439
C93   C     C_R   0.000000 0.500000 0.692742 0.037439
C94   C     C_R   0.500000 0.000000 0.307258 0.037446
C95   C     C_R   1.000000 0.500000 0.307258 0.037438
C96   C     C_1   1.000000 0.500000 0.233096 -0.012282
C97   C     C_1   0.500000 1.000000 0.233096 -0.012281
C98   C     C_1   0.000000 0.500000 0.766904 -0.012282
C99   C     C_1   0.500000 1.000000 0.766904 -0.012281
C100  C     C_1   0.500000 1.000000 0.733096 -0.012196
C101  C     C_R   0.604217 0.500000 0.500000 0.015160
C102  C     C_1   0.000000 0.500000 0.733096 -0.012197
C103  C     C_1   0.500000 0.000000 0.266904 -0.012195
C104  C     C_1   1.000000 0.500000 0.266904 -0.012197
C105  C     C_R   0.377586 0.508151 0.532796 -0.125207
C106  C     C_R   0.508150 0.622414 0.532797 -0.125207
C107  C     C_R   0.622414 0.491849 0.532796 -0.125207
C108  C     C_R   0.491850 0.377586 0.532797 -0.125207
C109  C     C_R   0.377586 0.491849 0.467204 -0.125207
C110  C     C_R   0.508150 0.377586 0.467203 -0.125207
C111  C     C_R   0.622414 0.508150 0.467203 -0.125206
C112  C     C_R   0.500000 0.933978 0.500000 0.625365
C113  C     C_R   0.500000 0.395783 0.500000 0.015160
C114  C     C_R   0.491850 0.622414 0.467203 -0.125206
C115  C     C_R   0.877587 0.008000 0.032809 -0.124609
C116  C     C_R   0.007998 0.122413 0.032809 -0.124609
C117  C     C_R   0.122413 0.992011 0.032812 -0.124610
C118  C     C_R   0.992000 0.877587 0.032809 -0.124608
C119  C     C_R   0.877587 0.992000 0.967191 -0.124608
C120  C     C_R   0.008000 0.877587 0.967191 -0.124609
C121  C     C_R   0.122413 0.007989 0.967188 -0.124610
C122  C     C_R   0.992002 0.122413 0.967191 -0.124608
C123  C     C_R   0.341833 0.508377 0.532717 -0.116230
C124  C     C_R   0.895780 0.000000 0.000000 0.015215
C125  C     C_R   0.508376 0.658167 0.532718 -0.116230
C126  C     C_R   0.658167 0.491623 0.532717 -0.116230
C127  C     C_R   0.491624 0.341833 0.532718 -0.116230
C128  C     C_R   0.341833 0.491623 0.467282 -0.116230
C129  C     C_R   0.508376 0.341833 0.467282 -0.116230
C130  C     C_R   0.658167 0.508377 0.467282 -0.116230
C131  C     C_R   0.491624 0.658167 0.467282 -0.116230
C132  C     C_R   0.841838 0.008200 0.032757 -0.114916
C133  C     C_R   0.008199 0.158161 0.032757 -0.114916
C134  C     C_R   0.158162 0.991811 0.032760 -0.114917
C135  C     C_R   0.000000 0.104220 0.000000 0.015215
C136  C     C_R   0.991800 0.841838 0.032757 -0.114916
C137  C     C_R   0.841838 0.991799 0.967244 -0.114916
C138  C     C_R   0.008200 0.841838 0.967243 -0.114916
C139  C     C_R   0.158162 0.008189 0.967240 -0.114917
C140  C     C_R   0.991801 0.158162 0.967243 -0.114916
C141  C     C_R   0.104220 1.000000 1.000000 0.015212
C142  C     C_R   0.000000 0.895780 0.000000 0.015215
C143  C     C_R   0.267751 0.472262 0.484791 -0.107966
C144  C     C_R   0.472263 0.732249 0.484790 -0.107967
C145  C     C_R   0.732249 0.527737 0.484790 -0.107966
C146  C     C_R   0.527737 0.267751 0.484790 -0.107966
C147  C     C_R   0.267751 0.527738 0.515209 -0.107967
C148  C     C_R   0.933978 0.500000 0.500000 0.625366
C149  C     C_R   0.472263 0.267751 0.515211 -0.107967
C150  C     C_R   0.732249 0.472262 0.515209 -0.107966
C151  C     C_R   0.527737 0.732249 0.515210 -0.107966
C152  C     C_R   0.767232 0.011569 0.968470 -0.107007
C153  C     C_R   0.011570 0.232768 0.968471 -0.107007
C154  C     C_R   0.232769 0.988419 0.968476 -0.107007
C155  C     C_R   0.988432 0.767231 0.968470 -0.107007
C156  C     C_R   0.767232 0.988431 0.031530 -0.107007
C157  C     C_R   0.011568 0.767231 0.031530 -0.107006
C158  C     C_R   0.232769 0.011581 0.031524 -0.107007
C159  C     C_R   0.500000 0.066022 0.500000 0.625366
C160  C     C_R   0.988430 0.232768 0.031529 -0.107007
C161  C     C_R   0.232004 0.472153 0.484993 -0.101940
C162  C     C_R   0.472154 0.767996 0.484992 -0.101939
C163  C     C_R   0.767996 0.527846 0.484992 -0.101940
C164  C     C_R   0.527846 0.232004 0.484992 -0.101940
C165  C     C_R   0.232004 0.527847 0.515007 -0.101940
C166  C     C_R   0.472154 0.232004 0.515009 -0.101940
C167  C     C_R   0.767996 0.472153 0.515007 -0.101940
C168  C     C_R   0.527846 0.767996 0.515008 -0.101940
C169  C     C_R   0.731485 0.011370 0.968402 -0.102171
C170  C     C_R   0.566023 0.000000 0.000000 0.624508
C171  C     C_R   0.011371 0.268515 0.968403 -0.102170
C172  C     C_R   0.268515 0.988617 0.968408 -0.102171
C173  C     C_R   0.988630 0.731485 0.968402 -0.102171
C174  C     C_R   0.731485 0.988630 0.031598 -0.102171
C175  C     C_R   0.011370 0.731485 0.031598 -0.102171
C176  C     C_R   0.268515 0.011383 0.031592 -0.102171
C177  C     C_R   0.988629 0.268515 0.031597 -0.102171
C178  C     C_R   0.213704 0.500000 0.500000 0.034954
C179  C     C_R   0.500000 0.786296 0.500000 0.034954
C180  C     C_R   0.786296 0.500000 0.500000 0.034954
C181  C     C_R   1.000000 0.433977 0.000000 0.624511
C182  C     C_R   0.500000 0.213704 0.500000 0.034954
C183  C     C_R   0.713349 0.000000 0.000000 0.032003
C184  C     C_R   1.000000 0.286651 0.000000 0.032003
C185  C     C_R   0.286651 1.000000 1.000000 0.032002
C186  C     C_R   0.000000 0.713349 0.000000 0.032003
C187  C     C_R   0.285890 0.500000 0.500000 0.027552
C188  C     C_R   0.500000 0.714110 0.500000 0.027552
C189  C     C_R   0.714110 0.500000 0.500000 0.027552
C190  C     C_R   0.500000 0.285890 0.500000 0.027552
C191  C     C_R   0.785533 0.000000 0.000000 0.030570
C192  C     C_R   0.433977 1.000000 0.000000 0.624531
C193  C     C_R   1.000000 0.214467 0.000000 0.030569
C194  C     C_R   0.214467 1.000000 1.000000 0.030568
C195  C     C_R   0.000000 0.785533 0.000000 0.030570
C196  C     C_R   0.157439 0.513730 0.530455 -0.089300
C197  C     C_R   0.513729 0.842561 0.530456 -0.089300
C198  C     C_R   0.842561 0.486270 0.530455 -0.089300
C199  C     C_R   0.486271 0.157439 0.530456 -0.089300
C200  C     C_R   0.157439 0.486270 0.469544 -0.089300
C201  C     C_R   0.513729 0.157439 0.469544 -0.089301
C202  C     C_R   0.842561 0.513730 0.469544 -0.089300
C203  C     C_R   0.000000 0.566023 0.000000 0.624508
C204  C     C_R   0.486270 0.842561 0.469544 -0.089301
C205  C     C_R   0.657449 0.013871 0.030394 -0.089256
C206  C     C_R   0.013869 0.342551 0.030395 -0.089255
C207  C     C_R   0.342552 0.986142 0.030401 -0.089253
C208  C     C_R   0.986129 0.657449 0.030394 -0.089256
C209  C     C_R   0.657449 0.986129 0.969606 -0.089256
C210  C     C_R   0.013871 0.657449 0.969606 -0.089256
C211  C     C_R   0.342552 0.013858 0.969599 -0.089254
C212  C     C_R   0.986131 0.342551 0.969605 -0.089255
C213  C     C_R   0.121662 0.513995 0.530493 0.190796
C214  C     C_R   0.323690 0.500000 0.500000 0.028765
C215  C     C_R   0.513995 0.878338 0.530494 0.190797
C216  C     C_R   0.878338 0.486005 0.530493 0.190796
C217  C     C_R   0.486006 0.121662 0.530494 0.190796
C218  C     C_R   0.121662 0.486005 0.469507 0.190797
C219  C     C_R   0.513994 0.121662 0.469506 0.190793
C220  C     C_R   0.878338 0.513995 0.469506 0.190797
C221  C     C_R   0.486005 0.878338 0.469506 0.190794
C222  C     C_R   0.621671 0.014152 0.030439 0.190920
C223  C     C_R   0.014151 0.378329 0.030440 0.190919
C224  C     C_R   0.378330 0.985860 0.030446 0.190917
Cl1   Cl    Cl    0.100287 0.530929 0.569895 -0.595298
Cl2   Cl    Cl    0.031503 0.399684 0.069631 -0.594346
Cl3   Cl    Cl    0.399685 0.968521 0.069643 -0.594361
Cl4   Cl    Cl    0.968492 0.600316 0.069629 -0.594344
Cl5   Cl    Cl    0.600316 0.968493 0.930370 -0.594345
Cl6   Cl    Cl    0.031508 0.600316 0.930371 -0.594343
Cl7   Cl    Cl    0.399685 0.031478 0.930357 -0.594360
Cl8   Cl    Cl    0.968496 0.399684 0.930369 -0.594345
Cl9   Cl    Cl    0.530928 0.899714 0.569896 -0.595299
Cl10  Cl    Cl    0.899713 0.469072 0.569896 -0.595298
Cl11  Cl    Cl    0.469074 0.100286 0.569897 -0.595300
Cl12  Cl    Cl    0.100287 0.469071 0.430104 -0.595299
Cl13  Cl    Cl    0.530926 0.100287 0.430103 -0.595282
Cl14  Cl    Cl    0.899714 0.530928 0.430104 -0.595300
Cl15  Cl    Cl    0.469072 0.899713 0.430104 -0.595282
Cl16  Cl    Cl    0.600316 0.031507 0.069629 -0.594347
Cu1   Cu    Cu3+1 0.000000 0.465860 0.500000 1.059230
Cu2   Cu    Cu3+1 0.500000 0.500000 0.537210 0.936513
Cu3   Cu    Cu3+1 0.000000 0.000000 0.962790 0.935629
Cu4   Cu    Cu3+1 1.000000 0.000000 0.037210 0.935630
Cu5   Cu    Cu3+1 0.465860 0.000000 0.500000 1.059229
Cu6   Cu    Cu3+1 1.000000 0.534140 0.500000 1.059229
Cu7   Cu    Cu3+1 0.534140 0.000000 0.500000 1.059229
Cu8   Cu    Cu3+1 0.500000 0.965860 0.000000 1.060646
Cu9   Cu    Cu3+1 0.965860 0.500000 0.000000 1.060658
Cu10  Cu    Cu3+1 0.500000 0.034140 0.000000 1.060647
Cu11  Cu    Cu3+1 0.034140 0.500000 0.000000 1.060658
Cu12  Cu    Cu3+1 0.500000 0.500000 0.462790 0.936512
H1    H     H_    0.055138 0.497910 0.188033 0.125727
H2    H     H_    0.997909 0.444862 0.688033 0.125463
H3    H     H_    0.476185 0.170925 0.554590 0.155466
H4    H     H_    0.170925 0.476183 0.445411 0.155466
H5    H     H_    0.523815 0.170925 0.445410 0.155466
H6    H     H_    0.829075 0.523817 0.445411 0.155466
H7    H     H_    0.476184 0.829075 0.445411 0.155466
H8    H     H_    0.671159 0.024816 0.053943 0.158302
H9    H     H_    0.024813 0.328841 0.053944 0.158302
H10   H     H_    0.328841 0.975207 0.053954 0.158302
H11   H     H_    0.975183 0.671159 0.053942 0.158302
H12   H     H_    0.671159 0.975184 0.946057 0.158302
H13   H     H_    0.444861 0.002090 0.688033 0.125463
H14   H     H_    0.024817 0.671159 0.946058 0.158302
H15   H     H_    0.328841 0.024793 0.946045 0.158302
H16   H     H_    0.975187 0.328841 0.946056 0.158302
H17   H     H_    0.002091 0.555138 0.688033 0.125463
H18   H     H_    0.555141 0.002041 0.311967 0.125456
H19   H     H_    0.997905 0.555138 0.311967 0.125463
H20   H     H_    0.444859 0.997958 0.311967 0.125457
H21   H     H_    0.002095 0.444862 0.311967 0.125463
H22   H     H_    0.055351 0.497887 0.119279 0.147307
H23   H     H_    0.497885 0.944649 0.119279 0.147303
H24   H     H_    0.944649 0.502113 0.119279 0.147308
H25   H     H_    0.497908 0.944862 0.188033 0.125726
H26   H     H_    0.502114 0.055351 0.119279 0.147309
H27   H     H_    0.055351 0.502112 0.880721 0.147308
H28   H     H_    0.497890 0.055351 0.880721 0.147300
H29   H     H_    0.944649 0.497888 0.880721 0.147307
H30   H     H_    0.502109 0.944649 0.880721 0.147306
H31   H     H_    0.555351 0.997888 0.619279 0.146957
H32   H     H_    0.997887 0.444649 0.619279 0.146958
H33   H     H_    0.444649 0.002112 0.619279 0.146957
H34   H     H_    0.002113 0.555351 0.619279 0.146958
H35   H     H_    0.555353 0.002064 0.380721 0.146930
H36   H     H_    0.944861 0.502090 0.188033 0.125727
H37   H     H_    0.997883 0.555351 0.380721 0.146960
H38   H     H_    0.444647 0.997936 0.380721 0.146931
H39   H     H_    0.002117 0.444649 0.380721 0.146961
H40   H     H_    0.390970 0.514605 0.558447 0.131710
H41   H     H_    0.514604 0.609030 0.558447 0.131710
H42   H     H_    0.609030 0.485396 0.558447 0.131710
H43   H     H_    0.485397 0.390970 0.558448 0.131710
H44   H     H_    0.390970 0.485395 0.441553 0.131710
H45   H     H_    0.514603 0.390970 0.441552 0.131710
H46   H     H_    0.609030 0.514604 0.441553 0.131709
H47   H     H_    0.502092 0.055138 0.188033 0.125728
H48   H     H_    0.485396 0.609030 0.441552 0.131709
H49   H     H_    0.890977 0.014523 0.058437 0.131342
H50   H     H_    0.014520 0.109023 0.058438 0.131342
H51   H     H_    0.109024 0.985497 0.058443 0.131347
H52   H     H_    0.985477 0.890977 0.058437 0.131342
H53   H     H_    0.890977 0.985477 0.941563 0.131342
H54   H     H_    0.014523 0.890977 0.941563 0.131341
H55   H     H_    0.109024 0.014503 0.941557 0.131347
H56   H     H_    0.985480 0.109023 0.941562 0.131343
H57   H     H_    0.328317 0.514674 0.558339 0.114435
H58   H     H_    0.055139 0.502089 0.811967 0.125727
H59   H     H_    0.514673 0.671682 0.558339 0.114435
H60   H     H_    0.671682 0.485327 0.558339 0.114435
H61   H     H_    0.485328 0.328317 0.558339 0.114435
H62   H     H_    0.328317 0.485326 0.441661 0.114435
H63   H     H_    0.514672 0.328317 0.441661 0.114434
H64   H     H_    0.671683 0.514673 0.441661 0.114435
H65   H     H_    0.485327 0.671683 0.441661 0.114435
H66   H     H_    0.828555 0.015234 0.058274 0.110814
H67   H     H_    0.015231 0.171445 0.058275 0.110814
H68   H     H_    0.171445 0.984787 0.058280 0.110815
H69   H     H_    0.497912 0.055139 0.811967 0.125725
H70   H     H_    0.984767 0.828555 0.058274 0.110814
H71   H     H_    0.828555 0.984766 0.941726 0.110814
H72   H     H_    0.015234 0.828555 0.941726 0.110813
H73   H     H_    0.171445 0.015213 0.941720 0.110815
H74   H     H_    0.984769 0.171445 0.941725 0.110814
H75   H     H_    0.281269 0.450413 0.473312 0.112463
H76   H     H_    0.450413 0.718731 0.473311 0.112463
H77   H     H_    0.718731 0.549587 0.473311 0.112463
H78   H     H_    0.549586 0.281269 0.473310 0.112463
H79   H     H_    0.281269 0.549587 0.526688 0.112464
H80   H     H_    0.944861 0.497910 0.811967 0.125727
H81   H     H_    0.450414 0.281269 0.526690 0.112463
H82   H     H_    0.718731 0.450413 0.526688 0.112463
H83   H     H_    0.549587 0.718731 0.526689 0.112463
H84   H     H_    0.780510 0.021246 0.944010 0.109180
H85   H     H_    0.021248 0.219490 0.944012 0.109180
H86   H     H_    0.219490 0.978731 0.944021 0.109182
H87   H     H_    0.978755 0.780510 0.944010 0.109180
H88   H     H_    0.780510 0.978754 0.055990 0.109181
H89   H     H_    0.021246 0.780510 0.055990 0.109180
H90   H     H_    0.219490 0.021268 0.055979 0.109182
H91   H     H_    0.502087 0.944861 0.811967 0.125727
H92   H     H_    0.978751 0.219490 0.055988 0.109180
H93   H     H_    0.218721 0.450030 0.473865 0.116176
H94   H     H_    0.450030 0.781279 0.473864 0.116177
H95   H     H_    0.781279 0.549970 0.473864 0.116176
H96   H     H_    0.549970 0.218721 0.473862 0.116177
H97   H     H_    0.218721 0.549971 0.526135 0.116177
H98   H     H_    0.450031 0.218721 0.526138 0.116176
H99   H     H_    0.781279 0.450030 0.526136 0.116176
H100  H     H_    0.549970 0.781279 0.526137 0.116176
H101  H     H_    0.717964 0.020632 0.943886 0.119021
H102  H     H_    0.555138 0.997910 0.688033 0.125462
H103  H     H_    0.020634 0.282036 0.943887 0.119022
H104  H     H_    0.282036 0.979346 0.943896 0.119022
H105  H     H_    0.979369 0.717964 0.943886 0.119022
H106  H     H_    0.717964 0.979368 0.056114 0.119021
H107  H     H_    0.020631 0.717964 0.056114 0.119022
H108  H     H_    0.282036 0.020654 0.056103 0.119022
H109  H     H_    0.979366 0.282036 0.056113 0.119022
H110  H     H_    0.170925 0.523818 0.554589 0.155466
H111  H     H_    0.523816 0.829075 0.554589 0.155466
H112  H     H_    0.829075 0.476183 0.554589 0.155466
O1    O     O_R   0.049860 0.471180 0.500040 -0.480190
O2    O     O_R   0.971180 0.450140 0.000040 -0.479796
O3    O     O_R   0.450140 0.028820 0.000040 -0.479806
O4    O     O_R   0.028820 0.549860 0.000040 -0.479794
O5    O     O_R   0.549860 0.028820 0.999960 -0.479796
O6    O     O_R   0.971180 0.549860 0.999960 -0.479794
O7    O     O_R   0.450140 0.971180 0.999960 -0.479806
O8    O     O_R   0.028820 0.450140 0.999960 -0.479795
O9    O     O_R   0.999950 0.471180 0.445680 -0.504507
O10   O     O_R   0.471180 0.000050 0.445680 -0.504507
O11   O     O_R   0.000050 0.528820 0.445680 -0.504509
O12   O     O_R   0.471180 0.950140 0.500040 -0.480188
O13   O     O_R   0.528820 0.999950 0.445680 -0.504508
O14   O     O_R   0.999950 0.528820 0.554320 -0.504508
O15   O     O_R   0.471180 0.999950 0.554320 -0.504509
O16   O     O_R   0.000050 0.471180 0.554320 -0.504508
O17   O     O_R   0.528820 0.000050 0.554320 -0.504508
O18   O     O_R   0.499950 0.971180 0.945680 -0.504451
O19   O     O_R   0.971180 0.500050 0.945680 -0.504458
O20   O     O_R   0.500050 0.028820 0.945680 -0.504464
O21   O     O_R   0.028820 0.499950 0.945680 -0.504456
O22   O     O_R   0.499950 0.028820 0.054320 -0.504452
O23   O     O_R   0.950140 0.528820 0.500040 -0.480190
O24   O     O_R   0.971180 0.499950 0.054320 -0.504456
O25   O     O_R   0.500050 0.971180 0.054320 -0.504464
O26   O     O_R   0.028820 0.500050 0.054320 -0.504458
O27   O     O_R   0.499920 0.550060 0.468650 -0.510683
O28   O     O_R   0.550060 0.500080 0.468650 -0.510683
O29   O     O_R   0.500080 0.449940 0.468650 -0.510683
O30   O     O_R   0.449940 0.499920 0.468650 -0.510683
O31   O     O_R   0.499920 0.449940 0.531350 -0.510683
O32   O     O_R   0.550060 0.499920 0.531350 -0.510682
O33   O     O_R   0.500080 0.550060 0.531350 -0.510682
O34   O     O_R   0.528820 0.049860 0.500040 -0.480189
O35   O     O_R   0.449940 0.500080 0.531350 -0.510682
O36   O     O_R   0.999920 0.050060 0.968650 -0.510776
O37   O     O_R   0.050060 0.000080 0.968650 -0.510780
O38   O     O_R   0.000080 0.949940 0.968650 -0.510778
O39   O     O_R   0.949940 0.999920 0.968650 -0.510777
O40   O     O_R   0.999920 0.949940 0.031350 -0.510776
O41   O     O_R   0.050060 0.999920 0.031350 -0.510779
O42   O     O_R   0.000080 0.050060 0.031350 -0.510778
O43   O     O_R   0.949940 0.000080 0.031350 -0.510777
O44   O     O_R   0.049860 0.528820 0.499960 -0.480190
O45   O     O_R   0.471180 0.049860 0.499960 -0.480195
O46   O     O_R   0.950140 0.471180 0.499960 -0.480189
O47   O     O_R   0.528820 0.950140 0.499960 -0.480193
O48   O     O_R   0.549860 0.971180 0.000040 -0.479795

loop_
_geom_bond_atom_site_label_1
_geom_bond_atom_site_label_2
_ccdc_geom_bond_type
C101  C107  A    
C138  H72   S    
C200  C218  A    
C68   C138  A    
C215  Cl9   S    
C75   H37   S    
C56   H18   S    
C7    C212  A    
Cu5   O15   S    
C223  Cl2   S    
C11   C159  S    
C5    C210  A    
C150  H82   S    
Cu1   O16   S    
C71   H32   S    
Cu4   O41   S    
C45   C87   A    
Cu2   O32   S    
C33   C78   S    
C19   C113  S    
C105  C123  A    
C27   O10   A    
C37   C180  S    
C151  H83   S    
C24   C129  A    
C21   O36   A    
C24   C127  A    
C13   C130  A    
C48   C65   A    
C4    C12   A    
C88   C97   S    
C55   C93   A    
C154  C172  A    
C43   H1    S    
C167  C180  A    
C197  H111  S    
C198  C216  A    
C31   O21   A    
Cu2   O31   S    
C220  Cl14  S    
C36   C179  S    
C49   C91   A    
C171  H103  S    
Cu8   O18   S    
C7    Cl8   S    
C151  C188  A    
C173  C186  A    
C79   C109  A    
C36   C197  A    
C201  C219  A    
C47   C64   A    
Cu3   O36   S    
C116  C133  A    
C98   C102  T    
C176  H108  S    
C108  C113  A    
C30   C82   S    
C54   C92   A    
C66   C82   A    
C111  C130  A    
C157  H89   S    
C116  H50   S    
C35   C132  A    
C2    C131  A    
C192  O7    A    
C153  H85   S    
C97   C103  T    
C96   C104  T    
C120  C138  A    
C53   H2    S    
C53   C71   A    
C118  C136  A    
C43   C61   A    
C209  H12   S    
C20   O30   A    
Cu7   O34   S    
C157  C195  A    
Cu10  O22   S    
Cu4   O43   S    
C72   H33   S    
C177  C184  A    
C44   H25   S    
C219  Cl13  S    
C22   O41   A    
C165  H97   S    
Cu7   O13   S    
C35   C137  A    
C175  C186  A    
C20   O35   A    
C199  H3    S    
Cu1   O9    S    
Cu12  O30   S    
C45   C63   A    
C68   C195  S    
C90   C114  A    
C30   O20   A    
C60   C95   A    
C34   C200  A    
C26   O11   A    
C212  H16   S    
C123  C214  A    
C51   H91   S    
C140  H74   S    
C24   C190  S    
C51   C69   A    
C3    Cl4   S    
C21   C135  S    
Cu9   O2    S    
C10   C148  S    
C46   C133  A    
C204  C221  A    
C1    C8    S    
C166  C182  A    
C67   H29   S    
C217  Cl11  S    
C107  H42   S    
C116  C135  A    
C198  H112  S    
C9    C215  A    
C172  H104  S    
C106  C125  A    
C39   C209  A    
C208  H11   S    
C221  Cl15  S    
C62   C80   A    
C204  H7    S    
Cu12  O28   S    
C110  C129  A    
C202  C220  A    
C15   C224  A    
Cu4   O40   S    
C69   C82   A    
C147  C165  A    
C73   H34   S    
C99   C100  T    
C64   H26   S    
C61   H22   S    
C55   H17   S    
C125  H59   S    
C50   C67   A    
C206  C223  A    
C126  H60   S    
C21   O42   A    
C9    C112  S    
C121  H55   S    
C122  H56   S    
C117  H51   S    
C203  O4    A    
C29   O15   A    
C32   O22   A    
C108  H43   S    
Cu9   O19   S    
Cu10  O5    S    
C115  C132  A    
C122  C135  A    
C206  H9    S    
C130  H64   S    
C54   H13   S    
C49   C66   A    
C41   C185  S    
C160  H92   S    
C132  H66   S    
C14   C223  A    
C164  C182  A    
C133  H67   S    
C115  H49   S    
Cu6   O14   S    
Cu7   O47   S    
C6    C211  A    
C145  C163  A    
C89   C98   S    
C146  C164  A    
C4    C209  A    
C145  H77   S    
C58   C95   A    
C30   O18   A    
Cu3   O39   S    
Cu3   O37   S    
C69   H30   S    
C26   O9    A    
C172  C185  A    
C111  H46   S    
Cu2   O35   S    
C164  H96   S    
C211  H15   S    
C27   O13   A    
C37   C198  A    
C48   H58   S    
C12   C222  A    
C49   H69   S    
C200  H4    S    
C127  H61   S    
C67   C81   A    
C106  H41   S    
C11   C219  A    
C207  H10   S    
C35   C191  S    
C119  H53   S    
C42   C210  A    
C137  H71   S    
C161  H93   S    
C38   C182  S    
C57   C194  S    
Cu2   Cu12  S    
C4    Cl5   S    
C121  C139  A    
Cu4   O42   S    
C122  C140  A    
C10   C216  A    
C173  H105  S    
C74   H35   S    
C76   C85   A    
C143  C161  A    
C59   H20   S    
C74   C85   A    
C169  H101  S    
C213  Cl1   S    
C55   C73   A    
C2    C125  A    
C153  C193  A    
C210  H14   S    
Cu8   O25   S    
C128  C214  A    
C5    Cl6   S    
Cu6   O23   S    
C91   C99   S    
C59   C76   A    
C3    C16   A    
C160  C193  A    
C63   C78   A    
C139  H73   S    
C50   H80   S    
C28   C84   S    
C216  Cl10  S    
C114  C131  A    
C199  C217  A    
C22   O37   A    
C155  H87   S    
C176  C185  A    
C25   O39   A    
Cu5   O10   S    
Cu11  O21   S    
C56   C94   A    
C156  C174  A    
C158  C194  A    
C159  O45   A    
Cu10  O20   S    
C109  C128  A    
Cu3   Cu4   S    
Cu2   O33   S    
C205  C222  A    
C57   C139  A    
C27   C85   S    
C51   C91   A    
C64   C80   A    
Cu8   Cu10  S    
C181  O2    A    
C170  O48   A    
C42   C208  A    
C59   C94   A    
C11   C217  A    
C144  H76   S    
C144  C162  A    
C187  C214  S    
C114  H48   S    
C174  H106  S    
C143  C187  A    
C117  C134  A    
C52   H102  S    
C129  H63   S    
Cu5   O45   S    
C56   C74   A    
Cu9   O24   S    
Cu1   Cu6   S    
C121  C141  A    
C171  C184  A    
C90   C106  A    
C19   O31   A    
C8    C213  A    
C134  H68   S    
C147  C187  A    
C58   H19   S    
C47   H47   S    
C158  H90   S    
C50   C89   A    
C65   C81   A    
C181  O8    A    
C159  O34   A    
C123  H57   S    
C70   C83   A    
C45   H36   S    
C168  H100  S    
C13   C126  A    
C94   C103  S    
C131  H65   S    
C32   O25   A    
C28   O14   A    
C57   C134  A    
C34   C178  S    
C175  H107  S    
C224  Cl3   S    
C14   C181  S    
C1    O44   A    
C46   C140  A    
Cu5   O12   S    
C192  O3    A    
C177  H109  S    
C115  C124  A    
C20   C79   S    
C145  C189  A    
C17   C90   S    
C112  O47   A    
C93   C102  S    
C17   O27   A    
C18   O28   A    
C101  C111  A    
C168  C179  A    
C40   C212  A    
Cu1   O46   S    
C166  H98   S    
C218  Cl12  S    
C150  C189  A    
C152  C169  A    
C128  H62   S    
C150  C167  A    
C222  Cl16  S    
Cu11  O8    S    
C62   H23   S    
C2    C188  S    
C160  C177  A    
C72   C83   A    
C8    C218  A    
C9    C221  A    
C63   H24   S    
C112  O12   A    
C120  H54   S    
C38   C199  A    
C161  C178  A    
C174  C183  A    
C39   C183  S    
C40   C184  S    
C15   C192  S    
C41   C207  A    
C143  H75   S    
C117  C141  A    
C19   O29   A    
C167  H99   S    
C147  H79   S    
C10   C220  A    
C119  C124  A    
C18   O32   A    
C149  C190  A    
C3    C208  A    
C33   O24   A    
C29   C83   S    
C152  C191  A    
C202  H6    S    
C32   C80   S    
Cu11  O26   S    
C151  C168  A    
C110  H45   S    
Cu7   O17   S    
Cu12  O29   S    
C13   C189  S    
C79   C105  A    
Cu11  O4    S    
C149  H81   S    
C169  C183  A    
C5    C16   A    
C75   C86   A    
C6    C15   A    
C7    C14   A    
C38   C201  A    
C163  H95   S    
C65   H27   S    
C28   O16   A    
C23   C142  S    
C66   H28   S    
C26   C86   S    
C16   C203  S    
C23   O40   A    
C73   C84   A    
C197  C215  A    
C25   O43   A    
C155  C173  A    
Cu1   O1    S    
C207  C224  A    
C6    Cl7   S    
Cu6   O44   S    
C165  C178  A    
C25   C124  S    
C58   C75   A    
C201  H5    S    
Cu9   O6    S    
C40   C206  A    
C60   C77   A    
Cu9   Cu11  S    
C60   H21   S    
C148  O23   A    
C53   C93   A    
C119  C137  A    
C68   C136  A    
C120  C142  A    
C154  H86   S    
Cu6   O11   S    
C12   C170  S    
Cu12  O27   S    
C44   C62   A    
C152  H84   S    
C18   C101  S    
C41   C211  A    
C70   H31   S    
C156  C191  A    
C29   O17   A    
Cu10  O3    S    
C52   C92   A    
C31   O19   A    
C61   C78   A    
C37   C202  A    
C87   C96   S    
C153  C171  A    
C118  H52   S    
C146  H78   S    
C136  H70   S    
C110  C113  A    
C162  C179  A    
C196  H110  S    
C157  C175  A    
C158  C176  A    
C77   C86   A    
C48   C89   A    
C156  H88   S    
C95   C104  S    
C92   C100  S    
C46   C193  S    
C17   O33   A    
C71   C84   A    
C144  C188  A    
C34   C196  A    
C1    O1    A    
C76   H38   S    
C33   O26   A    
C149  C166  A    
C107  C126  A    
C118  C142  A    
C77   H39   S    
C162  H94   S    
C109  H44   S    
C170  O5    A    
C31   C81   S    
C43   C87   A    
C47   C88   A    
Cu5   Cu7   S    
C105  H40   S    
C203  O6    A    
C196  C213  A    
Cu3   O38   S    
C42   C186  S    
C148  O46   A    
C39   C205  A    
C22   C141  S    
C108  C127  A    
C23   O38   A    
C52   C70   A    
C154  C194  A    
Cu8   O48   S    
C54   C72   A    
C163  C180  A    
C146  C190  A    
C36   C204  A    
C44   C88   A    
C205  H8    S    
C155  C195  A    
Cu8   O7    S    
