data_mof_unit_54640.cif
_audit_creation_date              2012-12-11T15:17:33-0500
_audit_creation_method            fapswitch 2.2
_symmetry_space_group_name_H-M    P1
_symmetry_Int_Tables_number       1
_space_group_crystal_system       triclinic
_cell_length_a                    15.708124
_cell_length_b                    15.707931
_cell_length_c                    34.448559
_cell_angle_alpha                 89.999896
_cell_angle_beta                  90.003064
_cell_angle_gamma                 120.0006
_cell_volume                      7361.09412158

loop_
_atom_site_label
_atom_site_type_symbol
_atom_type_description
_atom_site_fract_x
_atom_site_fract_y
_atom_site_fract_z
_atom_type_partial_charge
C1    C     C_R   0.579455 0.440956 0.555499 0.630730
C2    C     C_R   0.540920 0.010689 0.209291 0.422375
C3    C     C_2   0.691093 0.083111 0.146334 0.342111
C4    C     C_2   0.392190 0.308898 0.146294 0.342104
C5    C     C_2   0.916779 0.607822 0.146317 0.342085
C6    C     C_2   0.001104 0.363227 0.823064 0.363952
C7    C     C_2   0.636716 0.637968 0.823056 0.363909
C8    C     C_2   0.362028 0.998722 0.823039 0.363902
C9    C     C_2   0.363248 0.001169 0.323055 0.363905
C10   C     C_2   0.637906 0.636692 0.323045 0.363872
C11   C     C_2   0.998833 0.362083 0.323063 0.363920
C12   C     C_R   0.469536 0.459055 0.209309 0.422688
C13   C     C_R   0.989383 0.530273 0.209295 0.422422
C14   C     C_R   0.027489 0.452740 0.846580 -0.041185
C15   C     C_R   0.547230 0.574799 0.846573 -0.041181
C16   C     C_R   0.425207 0.972431 0.846568 -0.041175
C17   C     C_R   0.452736 0.027495 0.346579 -0.041175
C18   C     C_R   0.574718 0.547238 0.346580 -0.041163
C19   C     C_R   0.972503 0.425243 0.346583 -0.041182
C20   C     C_R   0.050968 0.454529 0.886173 0.158560
C21   C     C_R   0.559049 0.138500 0.555499 0.630726
C22   C     C_R   0.545452 0.596472 0.886168 0.158563
C23   C     C_R   0.403513 0.948963 0.886161 0.158557
C24   C     C_R   0.454523 0.050984 0.386171 0.158529
C25   C     C_R   0.596456 0.545460 0.386168 0.158542
C26   C     C_R   0.949009 0.403539 0.386174 0.158547
C27   C     C_R   0.061974 0.614436 0.893115 0.215058
C28   C     C_R   0.385546 0.447556 0.893104 0.215047
C29   C     C_R   0.552467 0.938050 0.893122 0.215051
C30   C     C_R   0.614412 0.061933 0.393124 0.215055
C31   C     C_R   0.447461 0.385626 0.393144 0.215053
C32   C     C_R   0.861501 0.420547 0.555500 0.630699
C33   C     C_R   0.938071 0.552482 0.393125 0.215060
C34   C     C_R   0.041121 0.613860 0.853533 0.235036
C35   C     C_R   0.386125 0.427283 0.853522 0.235051
C36   C     C_R   0.572759 0.958914 0.853541 0.235033
C37   C     C_R   0.613827 0.041051 0.353545 0.235042
C38   C     C_R   0.427116 0.386209 0.353569 0.235041
C39   C     C_R   0.958962 0.572784 0.353547 0.235037
C40   C     C_R   0.029940 0.536221 0.829817 -0.031539
C41   C     C_R   0.463760 0.493752 0.829809 -0.031547
C42   C     C_R   0.506284 0.970049 0.829817 -0.031549
C43   C     C_R   0.440956 0.579448 0.055496 0.630862
C44   C     C_R   0.536200 0.029890 0.329825 -0.031539
C45   C     C_R   0.493589 0.463797 0.329839 -0.031550
C46   C     C_R   0.970117 0.506317 0.329828 -0.031540
C47   C     C_R   0.077537 0.539671 0.908786 -0.017451
C48   C     C_R   0.460315 0.537880 0.908780 -0.017459
C49   C     C_R   0.462117 0.922448 0.908784 -0.017474
C50   C     C_R   0.539660 0.077529 0.408788 -0.017476
C51   C     C_R   0.537852 0.460348 0.408794 -0.017488
C52   C     C_R   0.922467 0.462130 0.408789 -0.017476
C53   C     C_R   0.577014 0.442476 0.445462 0.592513
C54   C     C_R   0.138501 0.559047 0.055499 0.630768
C55   C     C_R   0.557524 0.134541 0.445462 0.592524
C56   C     C_R   0.865457 0.422983 0.445462 0.592527
C57   C     C_R   0.442470 0.577017 0.945460 0.592553
C58   C     C_R   0.134541 0.557526 0.945461 0.592543
C59   C     C_R   0.422980 0.865455 0.945461 0.592513
C60   C     C_R   0.912497 0.452263 0.593200 0.016792
C61   C     C_R   0.547749 0.460235 0.593198 0.016820
C62   C     C_R   0.539792 0.087532 0.593202 0.016808
C63   C     C_R   0.452264 0.912483 0.093202 0.016861
C64   C     C_R   0.460192 0.547749 0.093206 0.016969
C65   C     C_R   0.420550 0.861503 0.055499 0.630756
C66   C     C_R   0.087552 0.539795 0.093205 0.016843
C67   C     C_R   0.887004 0.382407 0.623290 0.226311
C68   C     C_R   0.617604 0.504550 0.623297 0.226336
C69   C     C_R   0.495534 0.113119 0.623304 0.226316
C70   C     C_R   0.382411 0.886955 0.123295 0.226355
C71   C     C_R   0.504284 0.617572 0.123325 0.226392
C72   C     C_R   0.113174 0.495571 0.123308 0.226332
C73   C     C_R   0.924842 0.413090 0.660538 0.253137
C74   C     C_R   0.586929 0.511715 0.660544 0.253174
C75   C     C_R   0.488408 0.075309 0.660555 0.253150
C76   C     C_R   0.010775 0.540922 0.709281 0.422356
C77   C     C_R   0.413092 0.924764 0.160547 0.253149
C78   C     C_R   0.511296 0.586874 0.160586 0.253131
C79   C     C_R   0.075396 0.488469 0.160563 0.253158
C80   C     C_R   0.986530 0.513475 0.668536 -0.016333
C81   C     C_R   0.486552 0.473087 0.668531 -0.016331
C82   C     C_R   0.527021 0.013543 0.668542 -0.016335
C83   C     C_R   0.513474 0.986463 0.168545 -0.016351
C84   C     C_R   0.472746 0.486500 0.168565 -0.016278
C85   C     C_R   0.013622 0.527066 0.168551 -0.016326
C86   C     C_R   0.015842 0.584375 0.638579 -0.013517
C87   C     C_R   0.459091 0.469872 0.709273 0.422300
C88   C     C_R   0.415657 0.431558 0.638565 -0.013544
C89   C     C_R   0.568493 0.984129 0.638572 -0.013536
C90   C     C_R   0.584371 0.015818 0.138584 -0.013551
C91   C     C_R   0.431457 0.415625 0.138577 -0.013507
C92   C     C_R   0.984169 0.568503 0.138580 -0.013532
C93   C     C_R   0.978726 0.552767 0.600681 0.173529
C94   C     C_R   0.447254 0.426018 0.600670 0.173525
C95   C     C_R   0.573989 0.021237 0.600673 0.173481
C96   C     C_R   0.552764 0.978723 0.100683 0.173503
C97   C     C_R   0.426077 0.447269 0.100666 0.173323
C98   C     C_R   0.530235 0.989296 0.709285 0.422390
C99   C     C_R   0.021250 0.573979 0.100678 0.173460
C100  C     C_R   0.026698 0.544629 0.787423 0.402430
C101  C     C_R   0.455365 0.482095 0.787415 0.402441
C102  C     C_R   0.517970 0.973324 0.787425 0.402450
C103  C     C_R   0.544608 0.026625 0.287432 0.402445
C104  C     C_R   0.481859 0.455371 0.287448 0.402455
C105  C     C_R   0.973402 0.518005 0.287435 0.402464
C106  C     C_2   0.083117 0.691101 0.646330 0.342207
C107  C     C_2   0.308949 0.392207 0.646304 0.342139
C108  C     C_2   0.607833 0.916754 0.646309 0.342153
Cl1   Cl    Cl    0.800263 0.256140 0.616275 -0.451204
Cl2   Cl    Cl    0.638429 0.017211 0.061951 -0.462526
Cl3   Cl    Cl    0.379171 0.361696 0.061893 -0.462864
Cl4   Cl    Cl    0.982674 0.621046 0.061934 -0.462557
Cl5   Cl    Cl    0.041630 0.347167 0.907382 -0.398330
Cl6   Cl    Cl    0.652830 0.694497 0.907378 -0.398288
Cl7   Cl    Cl    0.305445 0.958259 0.907354 -0.398274
Cl8   Cl    Cl    0.347157 0.041680 0.407370 -0.398333
Cl9   Cl    Cl    0.694585 0.652811 0.407351 -0.398264
Cl10  Cl    Cl    0.958304 0.305474 0.407376 -0.398273
Cl11  Cl    Cl    0.889686 0.324682 0.698217 -0.340453
Cl12  Cl    Cl    0.743854 0.543999 0.616290 -0.451326
Cl13  Cl    Cl    0.675328 0.564902 0.698233 -0.340461
Cl14  Cl    Cl    0.435279 0.110568 0.698247 -0.340476
Cl15  Cl    Cl    0.324692 0.889570 0.198229 -0.340429
Cl16  Cl    Cl    0.564235 0.675245 0.198297 -0.340547
Cl17  Cl    Cl    0.110702 0.435381 0.198256 -0.340398
Cl18  Cl    Cl    0.067920 0.710403 0.922193 -0.326687
Cl19  Cl    Cl    0.289569 0.357530 0.922177 -0.326716
Cl20  Cl    Cl    0.642503 0.932148 0.922211 -0.326723
Cl21  Cl    Cl    0.710373 0.067868 0.422208 -0.326670
Cl22  Cl    Cl    0.357442 0.289707 0.422242 -0.326680
Cl23  Cl    Cl    0.456105 0.199935 0.616295 -0.451391
Cl24  Cl    Cl    0.932141 0.642508 0.422209 -0.326654
Cl25  Cl    Cl    0.037300 0.715471 0.833171 -0.368439
Cl26  Cl    Cl    0.284525 0.321843 0.833155 -0.368395
Cl27  Cl    Cl    0.678237 0.962812 0.833191 -0.368429
Cl28  Cl    Cl    0.715414 0.037168 0.333190 -0.368333
Cl29  Cl    Cl    0.321566 0.284669 0.333232 -0.368163
Cl30  Cl    Cl    0.962871 0.678267 0.333192 -0.368347
Cl31  Cl    Cl    0.256148 0.800210 0.116277 -0.451224
Cl32  Cl    Cl    0.543648 0.743801 0.116315 -0.451588
Cl33  Cl    Cl    0.199991 0.456149 0.116295 -0.451354
Cl34  Cl    Cl    0.017183 0.638437 0.561952 -0.462416
Cl35  Cl    Cl    0.361585 0.378843 0.561934 -0.462379
Cl36  Cl    Cl    0.621094 0.982698 0.561931 -0.462469
Cr1   Cr    Cr6+3 0.522350 0.263930 0.500020 1.228182
Cr2   Cr    Cr6+3 0.736070 0.258420 0.500020 1.228190
Cr3   Cr    Cr6+3 0.741580 0.477650 0.500020 1.228193
Cr4   Cr    Cr6+3 0.263930 0.522350 0.000020 1.228177
Cr5   Cr    Cr6+3 0.258420 0.736070 0.000020 1.228174
Cr6   Cr    Cr6+3 0.477650 0.741580 0.000020 1.228180
H1    H     H_    0.087352 0.746093 0.626193 0.198465
H2    H     H_    0.316541 0.031564 0.330139 0.205022
H3    H     H_    0.715024 0.683350 0.330114 0.205029
H4    H     H_    0.968479 0.285010 0.330153 0.205090
H5    H     H_    0.253937 0.341400 0.626182 0.198435
H6    H     H_    0.658453 0.912374 0.626143 0.198453
H7    H     H_    0.746086 0.087394 0.126186 0.198462
H8    H     H_    0.342200 0.253917 0.125977 0.198502
H9    H     H_    0.912321 0.658363 0.126135 0.198455
H10   H     H_    0.031388 0.316475 0.830164 0.205130
H11   H     H_    0.683408 0.715069 0.830142 0.205042
H12   H     H_    0.284928 0.968306 0.830119 0.205068
N1    N     N_R   0.954879 0.555326 0.770299 -0.082842
N2    N     N_R   0.552857 0.946623 0.231841 -0.107190
N3    N     N_R   0.393588 0.447208 0.231872 -0.106781
N4    N     N_R   0.053438 0.606267 0.231852 -0.107212
N5    N     N_R   0.083464 0.531734 0.726368 -0.113694
N6    N     N_R   0.468209 0.551726 0.726355 -0.113669
N7    N     N_R   0.448393 0.916521 0.726357 -0.113747
N8    N     N_R   0.531842 0.083452 0.226369 -0.113900
N9    N     N_R   0.551359 0.468046 0.226374 -0.114094
N10   N     N_R   0.916608 0.448432 0.226366 -0.113832
N11   N     N_R   0.091726 0.534305 0.764821 -0.171575
N12   N     N_R   0.444746 0.399607 0.770297 -0.082838
N13   N     N_R   0.465629 0.557419 0.764808 -0.171636
N14   N     N_R   0.442680 0.908237 0.764809 -0.171638
N15   N     N_R   0.534403 0.091718 0.264822 -0.171661
N16   N     N_R   0.557100 0.465488 0.264826 -0.171696
N17   N     N_R   0.908320 0.442717 0.264818 -0.171625
N18   N     N_R   0.600448 0.045234 0.770317 -0.082843
N19   N     N_R   0.555186 0.954726 0.270317 -0.082797
N20   N     N_R   0.399399 0.444881 0.270347 -0.082767
N21   N     N_R   0.045313 0.600482 0.270327 -0.082826
N22   N     N_R   0.946784 0.552992 0.731823 -0.107371
N23   N     N_R   0.447092 0.393844 0.731821 -0.107408
N24   N     N_R   0.606231 0.053355 0.731841 -0.107308
O1    O     O_R   0.498680 0.159540 0.541860 -0.450387
O2    O     O_R   0.358060 0.532760 0.040030 -0.439236
O3    O     O_R   0.174700 0.641940 0.040030 -0.439237
O4    O     O_R   0.467240 0.825300 0.040030 -0.439169
O5    O     O_R   0.498590 0.161190 0.456930 -0.434950
O6    O     O_R   0.838810 0.337400 0.456930 -0.434925
O7    O     O_R   0.662600 0.501410 0.456930 -0.434926
O8    O     O_R   0.161190 0.498590 0.956930 -0.434922
O9    O     O_R   0.337400 0.838810 0.956930 -0.434930
O10   O     O_R   0.501410 0.662600 0.956930 -0.434946
O11   O     O_R   0.532680 0.359580 0.461300 -0.465469
O12   O     O_R   0.840460 0.339140 0.541860 -0.450388
O13   O     O_R   0.640420 0.173100 0.461300 -0.465457
O14   O     O_R   0.826900 0.467320 0.461300 -0.465455
O15   O     O_R   0.359580 0.532680 0.961300 -0.465456
O16   O     O_R   0.173100 0.640420 0.961300 -0.465464
O17   O     O_R   0.467320 0.826900 0.961300 -0.465473
O18   O     O_3   0.666667 0.333333 0.499990 -0.350386
O19   O     O_3   0.333333 0.666667 0.999990 -0.350376
O20   O     O_2   0.136028 0.719439 0.674938 -0.433884
O21   O     O_2   0.280656 0.416940 0.674882 -0.433839
O22   O     O_2   0.583313 0.863916 0.674938 -0.433868
O23   O     O_R   0.660860 0.501320 0.541860 -0.450409
O24   O     O_2   0.719428 0.135985 0.174954 -0.433918
O25   O     O_2   0.416023 0.280521 0.175091 -0.433958
O26   O     O_2   0.864014 0.583374 0.174963 -0.433980
O27   O     O_2   0.943101 0.339153 0.796121 -0.380503
O28   O     O_2   0.660839 0.604002 0.796130 -0.380378
O29   O     O_2   0.395983 0.056798 0.796109 -0.380400
O30   O     O_2   0.339140 0.943089 0.296125 -0.380368
O31   O     O_2   0.603939 0.660827 0.296122 -0.380397
O32   O     O_2   0.056871 0.396025 0.296127 -0.380445
O33   O     O_R   0.159540 0.498680 0.041860 -0.450421
O34   O     O_R   0.339140 0.840460 0.041860 -0.450429
O35   O     O_R   0.501320 0.660860 0.041860 -0.450411
O36   O     O_R   0.532760 0.358060 0.540030 -0.439218
O37   O     O_R   0.641940 0.174700 0.540030 -0.439254
O38   O     O_R   0.825300 0.467240 0.540030 -0.439223

loop_
_geom_bond_atom_site_label_1
_geom_bond_atom_site_label_2
_ccdc_geom_bond_type
N6    N13   A    
C104  N20   A    
C63   C65   S    
C9    H2    S    
C89   C95   A    
C73   Cl11  S    
C54   O3    A    
C75   Cl14  S    
C102  N18   A    
C36   C42   A    
C108  O22   D    
C8    O29   D    
C56   O6    A    
C2    C83   S    
C19   C46   A    
C54   O33   A    
C87   N23   A    
C29   C49   A    
C33   C52   A    
C7    H11   S    
C29   C36   A    
C11   C19   S    
C33   C39   A    
C82   C89   A    
Cr1   O1    S    
C3    C90   S    
C34   C40   A    
C94   Cl35  S    
Cr3   O18   S    
C45   C104  S    
C14   C40   A    
C31   Cl22  S    
N12   N23   A    
C20   Cl5   S    
C97   Cl3   S    
C27   Cl18  S    
C23   C49   A    
C6    C14   S    
C77   C83   A    
C68   C74   A    
C46   C105  S    
C53   O7    A    
C12   C84   S    
C76   N5    A    
C73   C80   A    
C64   C71   A    
Cr2   O13   S    
C83   C90   A    
C19   C26   A    
C38   C45   A    
C80   C86   A    
N2    N19   A    
C11   H4    S    
C98   N7    A    
C67   Cl1   S    
C13   N10   A    
C66   C72   A    
C28   C35   A    
C5    H9    S    
Cr4   O15   S    
Cr2   O18   S    
C9    O30   D    
N9    N16   A    
C69   C75   A    
C67   C73   A    
C84   C91   A    
C78   Cl16  S    
C102  N14   A    
C107  O21   D    
C28   Cl19  S    
N5    N11   A    
C4    C91   S    
C60   C93   A    
C3    O24   D    
C7    C15   S    
C79   Cl17  S    
C39   Cl30  S    
C95   Cl36  S    
C8    C16   S    
C62   C95   A    
Cr1   O5    S    
C70   C77   A    
Cr5   O9    S    
C82   C98   S    
Cr2   O6    S    
Cr3   O14   S    
C86   C106  S    
C18   C25   A    
Cr6   O17   S    
C105  N17   A    
C42   C102  S    
C10   H3    S    
C32   O38   A    
C85   C92   A    
C43   C64   S    
C21   O1    A    
C12   N9    A    
C88   C94   A    
C15   C22   A    
C27   C34   A    
C24   C50   A    
C72   Cl33  S    
C4    H8    S    
C17   C24   A    
C57   O10   A    
C1    O23   A    
C5    C92   S    
C14   C20   A    
C48   C57   S    
C60   C67   A    
C2    N2    A    
C12   N3    A    
C88   C107  S    
C61   C94   A    
Cr1   O36   S    
N8    N15   A    
C34   Cl25  S    
C59   O9    A    
C10   O31   D    
C96   Cl2   S    
C63   C96   A    
C58   O8    A    
C78   C84   A    
C105  N21   A    
C30   C37   A    
C25   Cl9   S    
C1    O36   A    
C103  N15   A    
Cr5   O34   S    
C55   O5    A    
C66   C99   A    
Cr2   O12   S    
C25   C51   A    
Cr1   O11   S    
C77   Cl15  S    
C86   C93   A    
C26   C52   A    
Cr6   O4    S    
C87   N6    A    
C108  H6    S    
C63   C70   A    
C35   Cl26  S    
C69   Cl23  S    
Cr6   O10   S    
C37   Cl28  S    
C70   Cl31  S    
C91   C97   A    
C4    O25   D    
C11   O32   D    
C15   C41   A    
C21   C62   S    
C81   C87   S    
N18   N24   A    
Cr4   O19   S    
C2    N8    A    
C39   C46   A    
N10   N17   A    
Cr4   O8    S    
C64   C97   A    
C106  O20   D    
C22   C48   A    
C24   Cl8   S    
C16   C23   A    
C81   C88   A    
Cr6   O35   S    
C101  N13   A    
C32   C60   S    
C74   C81   A    
Cr5   O19   S    
C76   N22   A    
C18   C45   A    
C16   C42   A    
C79   C85   A    
C101  N12   A    
C33   Cl24  S    
C27   C47   A    
C36   Cl27  S    
C5    O26   D    
C28   C48   A    
C106  H1    S    
C21   O37   A    
C43   O35   A    
N1    N22   A    
C103  N19   A    
C32   O12   A    
N3    N20   A    
N4    N21   A    
C76   C80   S    
Cr6   O19   S    
C31   C51   A    
C1    C61   S    
C40   C100  S    
C65   O34   A    
C6    H10   S    
C72   C79   A    
C38   Cl29  S    
C75   C82   A    
C90   C96   A    
C71   Cl32  S    
C54   C66   S    
Cr4   O2    S    
C30   Cl21  S    
C26   Cl10  S    
Cr5   O3    S    
C50   C55   S    
C49   C59   S    
C31   C38   A    
C53   O11   A    
C37   C44   A    
C44   C103  S    
C17   C44   A    
C98   N24   A    
C8    H12   S    
C68   Cl12  S    
C47   C58   S    
Cr2   O37   S    
C61   C68   A    
Cr1   O18   S    
C6    O27   D    
C13   N4    A    
C43   O2    A    
C10   C18   S    
C99   Cl4   S    
C89   C108  S    
N7    N14   A    
C41   C101  S    
Cr3   O7    S    
C100  N1    A    
C9    C17   S    
C30   C50   A    
C35   C41   A    
Cr4   O33   S    
C7    O28   D    
Cr3   O38   S    
C23   Cl7   S    
C93   Cl34  S    
C59   O17   A    
C22   Cl6   S    
C74   Cl13  S    
C65   O4    A    
C62   C69   A    
C29   Cl20  S    
C13   C85   S    
C100  N11   A    
C3    H7    S    
C104  N16   A    
C51   C53   S    
Cr3   O23   S    
C58   O16   A    
Cr5   O16   S    
C71   C78   A    
C107  H5    S    
C20   C47   A    
C52   C56   S    
C92   C99   A    
C55   O13   A    
C56   O14   A    
C57   O15   A    
