data_mof_unit_38519.cif
_audit_creation_date              2012-12-10T19:04:12-0500
_audit_creation_method            fapswitch 2.2
_symmetry_space_group_name_H-M    P1
_symmetry_Int_Tables_number       1
_space_group_crystal_system       triclinic
_cell_length_a                    10.628162
_cell_length_b                    10.850089
_cell_length_c                    9.540156
_cell_angle_alpha                 89.812259
_cell_angle_beta                  89.508342
_cell_angle_gamma                 90.172421
_cell_volume                      1100.08594916

loop_
_atom_site_label
_atom_site_type_symbol
_atom_type_description
_atom_site_fract_x
_atom_site_fract_y
_atom_site_fract_z
_atom_type_partial_charge
C1    C     C_R   0.499875 0.262553 0.500013 0.805737
C2    C     C_3   0.961221 0.497266 0.366756 -0.129820
C3    C     C_3   0.042663 0.397508 0.437518 -0.168252
C4    C     C_3   0.122410 0.500142 0.501956 0.027357
C5    C     C_R   0.539878 0.062013 0.614054 0.097446
C6    C     C_R   0.502640 0.129583 0.497497 -0.139734
C7    C     C_R   0.469402 0.067370 0.374630 -0.200021
C8    C     C_R   0.459188 0.938851 0.372999 -0.010330
C9    C     C_R   0.491284 0.871359 0.495938 -0.189887
C10   C     C_R   0.535403 0.935139 0.612833 0.086547
C11   C     C_3   0.490162 0.929619 0.761714 -0.386020
C12   C     C_R   0.259268 0.500042 0.500619 0.769879
C13   C     C_3   0.495255 0.069290 0.762542 -0.423324
C14   C     C_R   0.557557 0.593076 0.072741 0.282521
C15   C     C_R   0.432670 0.415303 0.075411 -0.073082
C16   C     C_R   0.432594 0.415347 0.926480 -0.081721
C17   C     C_R   0.557945 0.592797 0.925320 0.275270
C18   C     C_3   0.693960 0.626681 0.918326 -0.513461
C19   C     C_3   0.693249 0.627702 0.077359 -0.504728
C20   C     C_R   0.493810 0.737541 0.499266 0.781863
C21   C     C_R   0.740772 0.499997 0.499464 0.791710
C22   C     C_3   0.039060 0.502743 0.633959 -0.139332
C23   C     C_3   0.956970 0.400116 0.569288 -0.172962
C24   C     C_3   0.877716 0.499903 0.498587 0.019310
C25   C     C_3   0.957498 0.602533 0.563235 -0.173282
C26   C     C_3   0.043185 0.599943 0.431410 -0.166237
Cu1   Cu    Cu3+1 0.499990 0.499980 0.640670 0.937378
Cu2   Cu    Cu3+1 0.500010 0.500020 0.359330 0.935795
H1    H     H_    0.918530 0.318357 0.625519 0.128707
H2    H     H_    0.560290 0.886908 0.832379 0.201276
H3    H     H_    0.401019 0.112764 0.773003 0.193633
H4    H     H_    0.568586 0.106848 0.833119 0.201865
H5    H     H_    0.380106 0.345312 0.132000 0.141256
H6    H     H_    0.379910 0.345472 0.871399 0.137987
H7    H     H_    0.753693 0.552292 0.873788 0.220191
H8    H     H_    0.709735 0.719243 0.871200 0.189570
H9    H     H_    0.752501 0.554017 0.122962 0.209468
H10   H     H_    0.707716 0.721017 0.122305 0.204765
H11   H     H_    0.073518 0.504999 0.743456 0.137463
H12   H     H_    0.919378 0.686324 0.614629 0.127234
H13   H     H_    0.081619 0.681707 0.375162 0.122065
H14   H     H_    0.928339 0.494263 0.256881 0.127343
H15   H     H_    0.080678 0.313625 0.386239 0.125472
H16   H     H_    0.441540 0.119416 0.282838 0.190258
H17   H     H_    0.393060 0.891948 0.772043 0.204261
N1    N     N_R   0.500800 0.500930 0.147930 -0.193873
N2    N     N_R   0.500800 0.500890 0.852020 -0.189705
O1    O     O_R   0.500000 0.319640 0.618810 -0.582513
O2    O     O_R   0.500010 0.319680 0.381230 -0.588758
O3    O     O_R   0.316850 0.499950 0.618770 -0.587967
O4    O     O_R   0.316860 0.499990 0.381190 -0.589411
O5    O     O_R   0.499990 0.680320 0.618770 -0.571000
O6    O     O_R   0.500000 0.680360 0.381190 -0.595208
O7    O     O_R   0.683140 0.500010 0.618810 -0.583147
O8    O     O_R   0.683150 0.500050 0.381230 -0.583527
C27   C     C_2   0.402596 0.880990 0.247162 0.350658
H18   H     H_    0.348150 0.796638 0.256132 0.088184
O9    O     O_2   0.413750 0.928922 0.131669 -0.575172

loop_
_geom_bond_atom_site_label_1
_geom_bond_atom_site_label_2
_ccdc_geom_bond_type
Cu1   O1    S    
C12   O3    A    
Cu2   O6    S    
C18   H8    S    
C1    O1    A    
C6    C7    A    
C19   H10   S    
C4    C12   S    
C4    C22   S    
C18   H7    S    
C9    C20   S    
C4    C26   S    
Cu1   O3    S    
C23   C24   S    
Cu2   N1    S    
C8    C27   S    
C17   C18   S    
Cu1   O7    S    
C5    C10   A    
C2    C26   S    
C7    H16   S    
C27   H18   S    
C11   C13   S    
C14   C17   A    
C3    H15   S    
C5    C6    A    
C1    O2    A    
C2    H14   S    
C22   H11   S    
C23   H1    S    
C16   N2    A    
C24   C25   S    
Cu2   O8    S    
C13   H3    S    
C2    C3    S    
C25   H12   S    
C2    C24   S    
C21   O7    A    
Cu2   O4    S    
C11   H17   S    
C10   C11   S    
C1    C6    S    
C9    C10   A    
C17   N2    A    
C7    C8    A    
C12   O4    A    
Cu1   O5    S    
C26   H13   S    
C20   O5    A    
C18   C19   S    
Cu2   O2    S    
C21   C24   S    
Cu1   N2    S    
Cu1   Cu2   S    
C21   O8    A    
C3    C23   S    
C22   C23   S    
C20   O6    A    
C19   H9    S    
C15   N1    A    
C16   H6    S    
C25   C26   S    
C13   H4    S    
C5    C13   S    
C14   C19   S    
C15   H5    S    
C15   C16   A    
C3    C4    S    
C11   H2    S    
C27   O9    D    
C8    C9    A    
C14   N1    A    
C22   C25   S    
