data_mof_unit_42318.cif
_audit_creation_date              2012-12-10T17:59:46-0500
_audit_creation_method            fapswitch 2.2
_symmetry_space_group_name_H-M    P1
_symmetry_Int_Tables_number       1
_space_group_crystal_system       triclinic
_cell_length_a                    10.796486
_cell_length_b                    9.522346
_cell_length_c                    15.94111
_cell_angle_alpha                 89.984935
_cell_angle_beta                  90.129871
_cell_angle_gamma                 89.978935
_cell_volume                      1638.86727076

loop_
_atom_site_label
_atom_site_type_symbol
_atom_type_description
_atom_site_fract_x
_atom_site_fract_y
_atom_site_fract_z
_atom_type_partial_charge
C1    C     C_R   0.262512 0.500026 0.499934 0.787349
C2    C     C_3   0.645377 0.506280 0.951209 -0.103887
C3    C     C_3   0.641329 0.529789 0.050924 -0.160515
C4    C     C_1   0.504178 0.499552 0.823850 -0.109498
C5    C     C_1   0.501472 0.499591 0.176199 -0.053432
C6    C     C_1   0.500629 0.499941 0.251336 -0.091764
C7    C     C_R   0.065982 0.412982 0.444437 -0.240902
C8    C     C_R   0.066217 0.587063 0.555343 -0.252674
C9    C     C_R   0.937375 0.415711 0.441137 -0.037448
C10   C     C_R   0.937658 0.584011 0.558719 -0.017500
C11   C     C_R   0.872120 0.499860 0.499931 -0.073531
C12   C     C_R   0.129343 0.500077 0.499878 0.003673
C13   C     C_R   0.424887 0.074460 0.446648 0.002504
C14   C     C_R   0.424897 0.925660 0.446644 -0.005006
C15   C     C_R   0.499779 0.500015 0.340417 0.873235
C16   C     C_R   0.575208 0.925557 0.553367 -0.013793
C17   C     C_R   0.575227 0.074350 0.553354 -0.012080
C18   C     C_R   0.737788 0.499960 0.499955 0.922863
C19   C     C_R   0.499961 0.499973 0.659612 0.873232
C20   C     C_3   0.410644 0.618836 0.048266 -0.099483
C21   C     C_3   0.457378 0.348840 0.048592 -0.124320
C22   C     C_3   0.438939 0.363210 0.950262 -0.220858
C23   C     C_3   0.428437 0.627698 0.949187 -0.281802
C24   C     C_1   0.501905 0.499879 0.748713 -0.132148
C25   C     C_3   0.502695 0.499197 0.083499 -0.001131
C26   C     C_3   0.507239 0.499091 0.916441 0.032622
Cu1   Cu    Cu3+1 0.500020 0.640660 0.500000 0.988567
Cu2   Cu    Cu3+1 0.500020 0.359340 0.500000 0.985437
H1    H     H_    0.335658 0.615820 0.919401 0.085795
H2    H     H_    0.338957 0.381835 0.937365 0.184063
H3    H     H_    0.635480 0.869520 0.596093 0.156724
H4    H     H_    0.635541 0.130351 0.596053 0.131153
H5    H     H_    0.117553 0.348086 0.400776 0.132403
H6    H     H_    0.117947 0.651958 0.599045 0.133446
H7    H     H_    0.364590 0.130557 0.403935 0.120698
H8    H     H_    0.364626 0.869663 0.403915 0.135851
N1    N     N_R   0.500030 0.852070 0.500020 -0.169670
N2    N     N_R   0.500030 0.147930 0.500020 -0.162523
O1    O     O_R   0.319660 0.618740 0.500000 -0.590958
O2    O     O_R   0.319660 0.381260 0.500000 -0.592819
O3    O     O_R   0.500020 0.618840 0.379440 -0.581653
O4    O     O_R   0.500020 0.381160 0.379440 -0.562660
O5    O     O_R   0.680370 0.618830 0.500010 -0.565891
O6    O     O_R   0.680370 0.381170 0.500010 -0.568432
O7    O     O_R   0.500010 0.618730 0.620560 -0.562995
O8    O     O_R   0.500010 0.381270 0.620560 -0.591748
C27   C     C_2   0.275370 0.585685 0.068575 0.334292
H9    H     H_    0.209735 0.557962 0.019670 0.108881
O9    O     O_2   0.238114 0.586404 0.140990 -0.534830
C28   C     C_2   0.339551 0.296709 0.091577 0.442230
H10   H     H_    0.335429 0.292711 0.159585 0.080223
O10   O     O_2   0.249828 0.254953 0.051944 -0.498583
C29   C     C_1   0.547326 0.235819 0.068873 0.288059
N3    N     N_1   0.616030 0.146122 0.084586 -0.169239
C30   C     C_1   0.429853 0.757040 0.089884 0.414409
N4    N     N_1   0.443113 0.864463 0.122735 -0.218833
C31   C     C_2   0.463895 0.228576 0.901452 0.435008
H11   H     H_    0.533949 0.224073 0.852975 0.092320
O11   O     O_2   0.402846 0.123276 0.915436 -0.485924
C32   C     C_2   0.468821 0.768647 0.912705 0.447244
H12   H     H_    0.428096 0.803738 0.853981 0.090742
O12   O     O_2   0.548148 0.841671 0.945455 -0.495270
C33   C     C_1   0.682635 0.673043 0.074996 0.301950
N5    N     N_1   0.717000 0.783774 0.094045 -0.181510
C34   C     C_1   0.734944 0.442416 0.095647 0.257331
N6    N     N_1   0.808378 0.375628 0.130611 -0.186287
C35   C     C_1   0.717881 0.616721 0.907346 0.332269
N7    N     N_1   0.774914 0.701979 0.872934 -0.208338
C36   C     C_1   0.712676 0.375695 0.928320 0.200975
N8    N     N_1   0.766209 0.274623 0.910552 -0.222116
C37   C     C_2   0.877532 0.333489 0.372944 0.390798
H13   H     H_    0.925923 0.244502 0.345816 0.084615
O13   O     O_2   0.777848 0.367771 0.343092 -0.537678
C38   C     C_2   0.878066 0.665628 0.627087 0.340986
H14   H     H_    0.925725 0.755596 0.653745 0.082808
O14   O     O_2   0.779520 0.629649 0.657625 -0.555025

loop_
_geom_bond_atom_site_label_1
_geom_bond_atom_site_label_2
_ccdc_geom_bond_type
C30   N4    T    
C11   C18   S    
C22   C31   S    
C19   O8    A    
C27   O9    D    
C29   N3    T    
C16   H3    S    
Cu2   O8    S    
C38   O14   D    
C23   H1    S    
C13   H7    S    
C14   H8    S    
C5    C6    T    
C4    C24   T    
C31   O11   D    
C20   C25   S    
Cu2   O2    S    
C32   O12   D    
C23   C26   S    
C1    O2    A    
C6    C15   S    
Cu1   O1    S    
C16   C17   A    
C28   O10   D    
C2    C36   S    
C16   N1    A    
Cu1   O7    S    
C13   C14   A    
C7    H5    S    
C3    C34   S    
C1    C12   S    
C20   C30   S    
C21   C28   S    
C23   C32   S    
C38   H14   S    
C35   N7    T    
C3    C25   S    
C15   O3    A    
C2    C35   S    
C37   O13   D    
Cu2   O6    S    
C32   H12   S    
C18   O6    A    
Cu1   O3    S    
C27   H9    S    
C20   C23   S    
Cu2   N2    S    
C8    C12   A    
C28   H10   S    
C2    C26   S    
C8    H6    S    
C9    C11   A    
C13   N2    A    
C5    C25   S    
C7    C12   A    
C7    C9    A    
C21   C25   S    
C22   H2    S    
C9    C37   S    
C15   O4    A    
C4    C26   S    
C19   O7    A    
C3    C33   S    
C2    C3    S    
C37   H13   S    
C18   O5    A    
C14   N1    A    
C21   C29   S    
C10   C38   S    
C31   H11   S    
Cu1   N1    S    
Cu2   O4    S    
C19   C24   S    
C17   N2    A    
C36   N8    T    
C20   C27   S    
C10   C11   A    
C1    O1    A    
C33   N5    T    
Cu1   O5    S    
C8    C10   A    
C34   N6    T    
C22   C26   S    
Cu1   Cu2   S    
C17   H4    S    
C21   C22   S    
