data_mof_unit_41946.cif
_audit_creation_date              2012-12-10T17:02:55-0500
_audit_creation_method            fapswitch 2.2
_symmetry_space_group_name_H-M    P1
_symmetry_Int_Tables_number       1
_space_group_crystal_system       triclinic
_cell_length_a                    9.781376
_cell_length_b                    11.045823
_cell_length_c                    13.488224
_cell_angle_alpha                 94.296292
_cell_angle_beta                  81.660534
_cell_angle_gamma                 111.268102
_cell_volume                      1343.30696456

loop_
_atom_site_label
_atom_site_type_symbol
_atom_type_description
_atom_site_fract_x
_atom_site_fract_y
_atom_site_fract_z
_atom_type_partial_charge
C1    C     C_R   0.556632 0.745560 0.507170 0.853828
C2    C     C_R   0.379566 0.500509 0.801953 -0.131691
C3    C     C_2   0.588708 0.884685 0.510972 -0.357006
C4    C     C_R   0.423905 0.496227 0.691271 0.796665
C5    C     C_2   0.484425 0.930539 0.497401 -0.156349
C6    C     C_2   0.411477 0.115311 0.488521 -0.361608
C7    C     C_2   0.516080 0.069463 0.501321 -0.151078
C8    C     C_2   0.922350 0.489933 0.491464 -0.069722
C9    C     C_2   0.077662 0.510138 0.508483 -0.078476
C10   C     C_R   0.443412 0.254446 0.492716 0.878703
C11   C     C_R   0.579073 0.520240 0.310237 0.812284
C12   C     C_R   0.448214 0.524864 0.973392 0.082260
C13   C     C_R   0.812936 0.586782 0.057801 -0.201892
C14   C     C_R   0.626397 0.547147 0.203021 -0.065765
C15   C     C_R   0.227366 0.446893 0.843038 0.169968
C16   C     C_R   0.190323 0.427323 0.945932 -0.153511
C17   C     C_R   0.298465 0.459875 0.008910 -0.238859
C18   C     C_3   0.415310 0.626150 0.189228 -0.829798
C19   C     C_3   0.100931 0.404322 0.780459 -0.824066
C20   C     C_R   0.490096 0.547021 0.869297 0.047283
C21   C     C_R   0.559192 0.558468 0.038488 0.074523
C22   C     C_R   0.708166 0.587303 0.997206 0.132566
C23   C     C_R   0.749923 0.621606 0.897211 -0.236768
C24   C     C_R   0.642605 0.612931 0.836825 -0.187688
C25   C     C_R   0.527645 0.565244 0.143457 0.104802
C26   C     C_R   0.769344 0.557885 0.159111 -0.244819
Cu1   Cu    Cu3+1 0.362000 0.479240 0.482530 0.928361
Cu2   Cu    Cu3+1 0.638000 0.520760 0.517470 0.933420
H1    H     H_    0.848899 0.549672 0.203822 0.162190
H2    H     H_    0.926659 0.604384 0.026215 0.145155
H3    H     H_    0.262925 0.429337 0.085436 0.158130
H4    H     H_    0.076095 0.381128 0.977938 0.142349
H5    H     H_    0.682978 0.657872 0.764992 0.173446
H6    H     H_    0.626010 0.134624 0.514940 0.180961
H7    H     H_    0.463250 0.701338 0.246596 0.235105
H8    H     H_    0.386030 0.676936 0.132189 0.224613
H9    H     H_    0.312253 0.552475 0.224632 0.240086
H10   H     H_    0.991435 0.368797 0.827197 0.213386
H11   H     H_    0.103452 0.487794 0.738344 0.231344
H12   H     H_    0.374668 0.865383 0.483410 0.180489
H13   H     H_    0.107318 0.323178 0.728496 0.247394
H14   H     H_    0.301730 0.049891 0.474915 0.149701
H15   H     H_    0.698277 0.950095 0.524960 0.150488
H16   H     H_    0.127217 0.579028 0.566372 0.154731
H17   H     H_    0.872779 0.421040 0.433555 0.156164
H18   H     H_    0.105492 0.384000 0.401145 0.187712
H19   H     H_    0.895171 0.617247 0.598007 0.184572
H20   H     H_    0.865710 0.659037 0.866503 0.141018
N1    N     N_2   0.845330 0.551960 0.543750 -0.285739
N2    N     N_2   0.154690 0.448120 0.456210 -0.287570
O1    O     O_R   0.426290 0.668220 0.490680 -0.581367
O2    O     O_R   0.659360 0.703290 0.520190 -0.580789
O3    O     O_R   0.326580 0.473880 0.629020 -0.570715
O4    O     O_R   0.559660 0.508940 0.658530 -0.578686
O5    O     O_R   0.340640 0.296710 0.479810 -0.572158
O6    O     O_R   0.573710 0.331780 0.509320 -0.573293
O7    O     O_R   0.440340 0.491060 0.341470 -0.570046
O8    O     O_R   0.673420 0.526120 0.370980 -0.584237

loop_
_geom_bond_atom_site_label_1
_geom_bond_atom_site_label_2
_ccdc_geom_bond_type
C12   C17   A    
C6    C10   S    
C2    C4    S    
C23   C24   A    
Cu1   O3    S    
C18   H8    S    
C6    C7    D    
C10   O5    A    
C19   H10   S    
Cu2   O8    S    
C4    O3    A    
C16   H4    S    
C11   O8    A    
C10   O6    A    
Cu2   N1    S    
H18   N2    S    
C24   H5    S    
C1    O1    A    
Cu1   N2    S    
C3    C5    D    
C12   C20   A    
Cu2   O6    S    
H19   N1    S    
C21   C22   A    
C14   C26   A    
C15   C19   S    
C2    C15   A    
Cu2   O2    S    
C3    H15   S    
C18   C25   S    
C19   H11   S    
C8    N1    D    
C7    H6    S    
C18   H9    S    
Cu1   O1    S    
C13   C22   A    
C14   C25   A    
Cu1   O7    S    
C17   H3    S    
C1    O2    A    
Cu1   O5    S    
C13   C26   A    
C8    H17   S    
C2    C20   A    
C15   C16   A    
C20   C24   A    
C13   H2    S    
Cu1   Cu2   S    
C26   H1    S    
C18   H7    S    
C5    H12   S    
C11   C14   S    
C5    C7    S    
Cu2   O4    S    
C22   C23   A    
C16   C17   A    
C9    H16   S    
C21   C25   A    
C23   H20   S    
C4    O4    A    
C11   O7    A    
C6    H14   S    
C12   C21   A    
C9    N2    D    
C19   H13   S    
C8    C9    S    
C1    C3    S    
