data_mof_unit_22188.cif
_audit_creation_date              2013-03-05T16:45:09-0500
_audit_creation_method            fapswitch 2.2
_symmetry_space_group_name_H-M    P1
_symmetry_Int_Tables_number       1
_space_group_crystal_system       triclinic
_cell_length_a                    14.981483
_cell_length_b                    15.191636
_cell_length_c                    9.894281
_cell_angle_alpha                 90.954886
_cell_angle_beta                  90.361778
_cell_angle_gamma                 90.184306
_cell_volume                      2251.50140014

loop_
_atom_site_label
_atom_site_type_symbol
_atom_site_description
_atom_site_fract_x
_atom_site_fract_y
_atom_site_fract_z
_atom_type_partial_charge
O1    O     O_R   0.408400 0.908380 0.614690 -0.645740
O2    O     O_R   0.408400 0.091620 0.614690 -0.585872
O3    O     O_R   0.908400 0.408380 0.614690 -0.645745
O4    O     O_R   0.908400 0.591620 0.614690 -0.585837
O5    O     O_R   0.408370 0.908370 0.385350 -0.594332
O6    O     O_R   0.408370 0.091630 0.385350 -0.628357
O7    O     O_R   0.908370 0.408370 0.385350 -0.594378
O8    O     O_R   0.908370 0.591630 0.385350 -0.628303
C1    C     C_R   0.379906 0.880807 0.499195 0.930091
C2    C     C_R   0.382375 0.122076 0.500762 0.878382
C3    C     C_R   0.879899 0.380814 0.499196 0.929080
C4    C     C_R   0.882374 0.622075 0.500762 0.878436
Zn1   Zn    Zn3+2 0.500010 0.000000 0.653130 0.957526
Zn2   Zn    Zn3+2 0.000010 0.500000 0.653130 0.957439
Zn3   Zn    Zn3+2 0.499980 1.000000 0.346870 0.962852
Zn4   Zn    Zn3+2 0.999980 0.500000 0.346870 0.962740
O9    O     O_R   0.591610 0.091610 0.614650 -0.634181
O10   O     O_R   0.591610 0.908390 0.614650 -0.642735
O11   O     O_R   0.091610 0.591610 0.614650 -0.634146
O12   O     O_R   0.091610 0.408390 0.614650 -0.642697
O13   O     O_R   0.591590 0.091600 0.385310 -0.613835
O14   O     O_R   0.591590 0.908400 0.385310 -0.596936
O15   O     O_R   0.091590 0.591600 0.385310 -0.613803
O16   O     O_R   0.091590 0.408400 0.385310 -0.597096
C5    C     C_R   0.618691 0.120855 0.500837 0.895001
C6    C     C_R   0.623019 0.882861 0.499184 0.918681
C7    C     C_R   0.118691 0.620855 0.500838 0.895222
C8    C     C_R   0.123020 0.382861 0.499184 0.917717
C9    C     C_R   0.289435 0.226533 0.623398 0.200757
C10   C     C_R   0.318623 0.748037 0.587312 0.087917
C11   C     C_R   0.789398 0.726497 0.623394 0.200776
C12   C     C_R   0.818590 0.248076 0.587339 0.087710
C13   C     C_R   0.328500 0.198613 0.503364 -0.192311
C14   C     C_R   0.311815 0.817482 0.499145 -0.060704
C15   C     C_R   0.828494 0.698607 0.503368 -0.192313
C16   C     C_R   0.811781 0.317515 0.499171 -0.060406
C17   C     C_R   0.317715 0.247687 0.386152 -0.228533
C18   C     C_R   0.234039 0.830612 0.423667 -0.236386
C19   C     C_R   0.817726 0.747698 0.386170 -0.228444
C20   C     C_R   0.734013 0.330632 0.423671 -0.235973
H1    H     H_    0.355040 0.231148 0.295733 0.189507
H2    H     H_    0.227014 0.888834 0.362589 0.143954
H3    H     H_    0.855069 0.731175 0.295762 0.189506
H4    H     H_    0.726989 0.388848 0.362579 0.143893
C21   C     C_R   0.752994 0.812907 0.381424 0.145498
C22   C     C_R   0.666520 0.267317 0.425343 0.172881
C23   C     C_R   0.252986 0.312900 0.381408 0.145563
C24   C     C_R   0.166535 0.767311 0.425349 0.172890
C25   C     C_R   0.700091 0.827666 0.498701 -0.179864
C26   C     C_R   0.680250 0.191280 0.503599 -0.039757
C27   C     C_R   0.200103 0.327678 0.498702 -0.180115
C28   C     C_R   0.180258 0.691273 0.503600 -0.039881
C29   C     C_R   0.725726 0.790508 0.621093 0.083154
C30   C     C_R   0.753390 0.185783 0.590478 0.017131
C31   C     C_R   0.225770 0.290551 0.621103 0.083164
C32   C     C_R   0.253407 0.685760 0.590454 0.017162
C33   C     C_3   0.670894 0.746706 0.727756 -0.284255
C34   C     C_3   0.818901 0.113430 0.620292 -0.281558
C35   C     C_3   0.170973 0.246791 0.727848 -0.284185
C36   C     C_3   0.318884 0.613385 0.620282 -0.282124
C37   C     C_3   0.242313 0.174684 0.729521 -0.286477
C38   C     C_3   0.392318 0.684257 0.617922 -0.253060
C39   C     C_3   0.742249 0.674614 0.729451 -0.286539
C40   C     C_3   0.892311 0.184323 0.617896 -0.253308
H5    H     H_    0.605526 0.722752 0.688119 0.097794
H6    H     H_    0.810479 0.086635 0.722997 0.133055
H7    H     H_    0.105581 0.222847 0.688294 0.097455
H8    H     H_    0.310441 0.586583 0.722976 0.133231
H9    H     H_    0.217400 0.110170 0.689722 0.100346
H10   H     H_    0.421795 0.697818 0.719607 0.098885
H11   H     H_    0.717364 0.610102 0.689600 0.100344
H12   H     H_    0.921815 0.197927 0.719551 0.098808
C41   C     C_R   0.422537 0.986558 0.069892 0.199365
C42   C     C_R   0.922539 0.486543 0.069892 0.199378
N1    N     N_R   0.499140 0.000000 0.142800 -0.131914
N2    N     N_R   0.999140 0.500000 0.142800 -0.131909
C43   C     C_R   0.574552 0.020341 0.074831 -0.122179
C44   C     C_R   0.074548 0.520356 0.074832 -0.122228
H13   H     H_    0.634626 0.035348 0.132112 0.171297
H14   H     H_    0.134619 0.535373 0.132113 0.171311
C45   C     C_R   0.575400 0.020326 0.931421 0.231004
C46   C     C_R   0.075396 0.520341 0.931423 0.230860
N3    N     N_R   0.499160 0.000000 0.857150 -0.110125
N4    N     N_R   0.999160 0.500000 0.857150 -0.110121
C47   C     C_R   0.422599 0.986307 0.927596 0.209678
C48   C     C_R   0.922602 0.486292 0.927595 0.209769
C49   C     C_3   0.365445 0.905857 0.919643 -0.528788
C50   C     C_3   0.865463 0.405832 0.919643 -0.528824
C51   C     C_3   0.365127 0.906276 0.073036 -0.480899
C52   C     C_3   0.865145 0.406250 0.073036 -0.480809
H15   H     H_    0.298839 0.919507 0.874647 0.203551
H16   H     H_    0.400790 0.848213 0.874802 0.213214
H17   H     H_    0.798855 0.419468 0.874646 0.203559
H18   H     H_    0.900820 0.348194 0.874802 0.213212
H19   H     H_    0.298348 0.920337 0.116530 0.200480
H20   H     H_    0.400064 0.848787 0.116816 0.241304
H21   H     H_    0.798363 0.420299 0.116530 0.200493
H22   H     H_    0.900094 0.348768 0.116816 0.241375
C53   C     C_3   0.739403 0.859317 0.248952 -0.735863
H23   H     H_    0.676153 0.836961 0.200206 0.251655
H24   H     H_    0.738285 0.931583 0.265748 0.263819
H25   H     H_    0.794198 0.845072 0.176759 0.248758
C54   C     C_3   0.582474 0.281574 0.343875 -0.855811
H26   H     H_    0.523185 0.274093 0.409512 0.227953
H27   H     H_    0.580519 0.348609 0.300806 0.234880
H28   H     H_    0.578588 0.233389 0.258514 0.264523
C55   C     C_3   0.239381 0.359296 0.248928 -0.735924
H29   H     H_    0.176125 0.336938 0.200204 0.251518
H30   H     H_    0.238271 0.431564 0.265706 0.263907
H31   H     H_    0.294167 0.345039 0.176724 0.248763
C56   C     C_3   0.082482 0.781585 0.343904 -0.855779
H32   H     H_    0.078577 0.733401 0.258543 0.264490
H33   H     H_    0.023199 0.774115 0.409556 0.227937
H34   H     H_    0.080536 0.848621 0.300836 0.234921
C57   C     C_2   0.661520 0.802348 0.854879 0.460336
H35   H     H_    0.598179 0.803475 0.907426 0.040926
O17   O     O_2   0.724191 0.845346 0.900427 -0.578360
C58   C     C_2   0.822972 0.041744 0.512642 0.402120
H36   H     H_    0.830417 0.973831 0.542658 0.062570
O18   O     O_2   0.819845 0.059089 0.392598 -0.551347
C59   C     C_2   0.161669 0.302471 0.854945 0.460316
H37   H     H_    0.098349 0.303636 0.907549 0.040953
O19   O     O_2   0.224373 0.345456 0.900413 -0.578395
C60   C     C_2   0.322943 0.541713 0.512609 0.401394
H38   H     H_    0.330344 0.473792 0.542605 0.062919
O20   O     O_2   0.319862 0.559080 0.392570 -0.551895
C61   C     C_2   0.294394 0.165883 0.859932 0.548439
H39   H     H_    0.262642 0.135690 0.945898 0.013142
O21   O     O_2   0.371389 0.191951 0.870544 -0.548515
C62   C     C_2   0.463481 0.670970 0.511361 0.495675
H40   H     H_    0.514633 0.621843 0.527751 0.029637
O22   O     O_2   0.464607 0.713186 0.407509 -0.554957
C63   C     C_2   0.794286 0.665797 0.859898 0.548433
H41   H     H_    0.762513 0.635574 0.945820 0.013158
O23   O     O_2   0.871270 0.691886 0.870588 -0.548520
C64   C     C_2   0.963436 0.171111 0.511251 0.495626
H42   H     H_    0.015135 0.122599 0.528167 0.028879
O24   O     O_2   0.963861 0.212635 0.406674 -0.553786
C65   C     C_3   0.661782 0.042802 0.865215 -0.772128
H43   H     H_    0.719056 0.035487 0.936002 0.220723
H44   H     H_    0.674757 0.998316 0.778223 0.273190
H45   H     H_    0.660488 0.112653 0.834683 0.235746
C66   C     C_3   0.161773 0.542830 0.865218 -0.772176
H46   H     H_    0.219048 0.535524 0.936005 0.220732
H47   H     H_    0.174751 0.498345 0.778226 0.273236
H48   H     H_    0.160468 0.612681 0.834685 0.235764

loop_
_geom_bond_atom_site_label_1
_geom_bond_atom_site_label_2
_geom_bond_distance
_ccdc_geom_bond_type
C35   C59   1.511236 S    
C66   H48   1.108345 S    
Zn3   N1    2.019087 S    
C40   C64   1.515779 S    
C45   C65   1.495247 S    
C31   C35   1.504067 S    
C41   N1    1.364644 A    
C38   C62   1.515748 S    
C62   O22   1.220472 D    
C56   H32   1.109534 S    
O10   C6    1.292368 A    
Zn2   N4    2.018753 S    
C33   C57   1.511239 S    
O7    C3    1.283218 A    
Zn1   N3    2.018753 S    
C26   C30   1.391980 A    
C42   N2    1.364645 A    
Zn1   O10   1.991544 S    
C39   C63   1.511721 S    
C3    C16   1.399933 S    
N4    C48   1.363118 A    
C18   H2    1.084536 S    
C49   H15   1.111627 S    
C65   H45   1.108345 S    
C44   H14   1.082172 S    
C66   H46   1.111193 S    
C9    C13   1.387990 A    
C34   C58   1.512203 S    
C38   H10   1.112024 S    
C36   C38   1.537398 S    
C36   C60   1.512209 S    
O2    Zn1   1.997222 S    
C58   H36   1.084241 S    
C35   H7    1.110563 S    
O6    Zn3   1.991859 S    
C5    C26   1.410063 S    
C34   H6    1.108754 S    
Zn3   O14   1.997008 S    
C56   H33   1.110284 S    
C57   O17   1.221563 D    
C55   H29   1.110204 S    
O15   C7    1.282578 A    
C17   C23   1.389681 A    
O11   C7    1.285049 A    
C52   H21   1.111514 S    
C18   C24   1.393655 A    
C19   C21   1.389678 A    
C43   H13   1.082172 S    
O8    Zn4   1.991859 S    
C14   C18   1.396671 A    
C49   H16   1.112257 S    
C17   H1    1.084390 S    
C55   H30   1.107808 S    
C56   H34   1.110865 S    
C12   C30   1.358688 A    
C45   N3    1.385474 A    
C33   C39   1.533101 S    
C50   H18   1.112255 S    
C47   C49   1.490720 S    
C34   C40   1.537396 S    
C9    C37   1.501556 S    
C35   C37   1.533111 S    
O5    Zn3   1.994556 S    
C10   C14   1.383691 A    
Zn2   O12   1.991544 S    
C16   C20   1.396644 A    
O1    C1    1.280732 A    
C12   C40   1.503883 S    
C64   O24   1.220834 D    
C21   C53   1.511574 S    
C6    C25   1.429170 S    
C33   H5    1.110574 S    
C29   C33   1.504065 S    
C46   C66   1.495228 S    
C19   H3    1.084391 S    
C9    C31   1.364737 A    
C27   C31   1.396764 A    
C10   C32   1.358700 A    
C13   C17   1.397885 A    
C32   C36   1.507420 S    
C51   H19   1.111514 S    
C15   C19   1.397882 A    
C61   O21   1.221702 D    
O5    C1    1.283201 A    
C11   C39   1.501557 S    
C44   C46   1.419069 A    
C53   H23   1.110204 S    
C24   C28   1.416120 A    
O8    C4    1.287920 A    
C53   H25   1.111012 S    
C21   C25   1.424419 A    
C54   H27   1.110865 S    
C11   C29   1.364735 A    
C4    C15   1.417504 S    
N1    C43   1.355895 A    
C41   C47   1.407870 A    
C59   H37   1.084963 S    
O3    Zn2   1.982177 S    
O7    Zn4   1.994556 S    
N3    C47   1.363117 A    
C39   H11   1.112587 S    
Zn4   O15   1.981966 S    
C46   N4    1.385473 A    
C49   C51   1.517661 S    
C1    C14   1.399914 S    
C55   H31   1.111011 S    
C11   C15   1.387990 A    
O4    C4    1.284415 A    
C20   C22   1.393674 A    
C61   H39   1.084828 S    
O2    C2    1.284423 A    
C12   C16   1.383653 A    
C7    C28   1.410054 S    
C60   O20   1.221558 D    
C2    C13   1.417520 S    
C30   C34   1.507490 S    
C37   H9    1.112587 S    
C66   H47   1.104054 S    
O13   C5    1.282577 A    
C50   H17   1.111627 S    
C50   C52   1.517660 S    
C53   H24   1.107802 S    
Zn4   N2    2.019087 S    
Zn2   O11   1.994240 S    
O16   C8    1.284816 A    
N2    C44   1.355890 A    
C64   H42   1.084984 S    
O6    C2    1.287920 A    
C23   C27   1.424424 A    
C65   H43   1.111194 S    
C37   C61   1.511723 S    
C42   C48   1.407870 A    
O12   C8    1.292370 A    
C22   C54   1.508918 S    
C22   C26   1.416154 A    
C23   C55   1.511577 S    
Zn1   O9    1.994240 S    
O9    C5    1.285054 A    
C42   C52   1.490983 S    
C51   H20   1.112217 S    
C10   C38   1.503975 S    
C62   H40   1.084759 S    
C41   C51   1.490983 S    
C65   H44   1.104050 S    
C57   H35   1.084962 S    
C63   H41   1.084827 S    
Zn3   O13   1.981966 S    
C25   C29   1.396748 A    
C8    C27   1.429192 S    
C54   H28   1.109534 S    
C48   C50   1.490721 S    
C40   H12   1.112021 S    
O4    Zn2   1.997222 S    
C58   O18   1.221548 D    
C59   O19   1.221563 D    
O3    C3    1.280723 A    
C20   H4    1.084532 S    
C24   C56   1.508921 S    
O1    Zn1   1.982178 S    
C36   H8    1.108742 S    
Zn4   O16   1.997008 S    
C43   C45   1.419074 A    
O14   C6    1.284809 A    
C54   H26   1.110283 S    
C63   O23   1.221701 D    
C52   H22   1.112218 S    
C28   C32   1.391972 A    
C60   H38   1.084239 S    
