data_mof_unit_37698.cif
_audit_creation_date              2013-03-05T15:55:18-0500
_audit_creation_method            fapswitch 2.2
_symmetry_space_group_name_H-M    P1
_symmetry_Int_Tables_number       1
_space_group_crystal_system       triclinic
_cell_length_a                    27.63478
_cell_length_b                    10.707312
_cell_length_c                    9.868044
_cell_angle_alpha                 89.246022
_cell_angle_beta                  89.818815
_cell_angle_gamma                 91.638913
_cell_volume                      2918.43162838

loop_
_atom_site_label
_atom_site_type_symbol
_atom_site_description
_atom_site_fract_x
_atom_site_fract_y
_atom_site_fract_z
_atom_type_partial_charge
O1    O     O_R   0.500000 0.316780 0.614690 -0.654225
O2    O     O_R   0.500000 0.316750 0.385360 -0.637735
C1    C     C_R   0.503416 0.259980 0.501910 0.874525
O3    O     O_R   0.428760 0.500030 0.614650 -0.646733
O4    O     O_R   0.428750 0.500010 0.385320 -0.636585
C2    C     C_R   0.405946 0.499202 0.500364 0.855357
Zn1   Zn    Zn3+2 0.500000 0.500020 0.653130 0.925170
Zn2   Zn    Zn3+2 0.500000 0.499980 0.346870 0.935033
O5    O     O_R   0.500000 0.683250 0.614640 -0.623722
O6    O     O_R   0.500000 0.683220 0.385310 -0.617817
O7    O     O_R   0.571250 0.499990 0.614680 -0.617019
O8    O     O_R   0.571240 0.499970 0.385350 -0.614764
C3    C     C_R   0.495193 0.739040 0.499771 0.882283
C4    C     C_R   0.594069 0.500814 0.499764 0.894269
C5    C     C_R   0.177064 0.363187 0.502418 0.504592
O9    O     O_2   0.202361 0.259931 0.477394 -0.554111
N1    N     N_R   0.200733 0.475998 0.515963 -0.358196
C6    C     C_R   0.176576 0.582535 0.542104 0.504434
C7    C     C_R   0.276327 0.474560 0.386163 -0.097619
C8    C     C_R   0.326687 0.481314 0.381997 -0.222419
C9    C     C_R   0.328495 0.502065 0.626976 -0.221170
C10   C     C_R   0.278325 0.495626 0.630681 -0.104906
C11   C     C_R   0.252255 0.481835 0.510558 0.321918
C12   C     C_R   0.100876 0.462714 0.543979 -0.054209
C13   C     C_R   0.126642 0.354410 0.516069 -0.021564
C14   C     C_R   0.101788 0.239770 0.505142 -0.134181
C15   C     C_R   0.126238 0.577880 0.557190 -0.021440
C16   C     C_R   0.353064 0.495000 0.502611 -0.038504
H1    H     H_    0.347946 0.512363 0.721487 0.165986
H2    H     H_    0.259566 0.501056 0.726863 0.138431
H3    H     H_    0.120957 0.154591 0.487416 0.191551
C17   C     C_R   0.646861 0.492003 0.502234 -0.086140
C18   C     C_R   0.972973 0.337435 0.539461 -0.007173
C19   C     C_R   0.974000 0.557143 0.610638 0.057864
C20   C     C_R   0.948060 0.445554 0.576086 0.074514
C21   C     C_R   0.945684 0.229794 0.502897 -0.193360
C22   C     C_R   0.894876 0.225323 0.502593 0.157776
C23   C     C_R   0.870035 0.336957 0.530483 -0.090036
C24   C     C_R   0.896790 0.443884 0.574821 -0.063064
C25   C     C_R   0.872240 0.550920 0.616184 -0.006541
C26   C     C_R   0.822063 0.553046 0.606198 0.548271
N2    N     N_R   0.797316 0.455426 0.549492 -0.336484
C27   C     C_R   0.819446 0.348533 0.512841 0.524747
C28   C     C_R   0.715101 0.406113 0.619947 -0.134710
C29   C     C_R   0.665849 0.418696 0.606954 -0.255548
C30   C     C_R   0.678315 0.553674 0.406409 0.091441
C31   C     C_R   0.728874 0.538315 0.419947 0.167407
C32   C     C_R   0.746526 0.465761 0.528259 0.259984
O10   O     O_2   0.792404 0.256936 0.455473 -0.578013
C33   C     C_R   0.024455 0.340574 0.538470 0.056808
C34   C     C_R   0.049846 0.455997 0.558405 0.076696
C35   C     C_R   0.024749 0.564983 0.592152 0.046145
C36   C     C_R   0.051737 0.232541 0.516861 -0.220298
H4    H     H_    0.642304 0.370373 0.679766 0.171443
H5    H     H_    0.729138 0.350477 0.702641 0.157411
H6    H     H_    0.963600 0.148742 0.468660 0.158741
H7    H     H_    0.035807 0.139844 0.511051 0.138055
O11   O     O_2   0.201343 0.692375 0.553847 -0.552106
C37   C     C_R   0.100997 0.685624 0.584895 -0.136032
H8    H     H_    0.344873 0.475038 0.285035 0.165013
H9    H     H_    0.255995 0.463958 0.293197 0.140348
H10   H     H_    0.119634 0.775601 0.593263 0.190493
C38   C     C_R   0.948119 0.658118 0.661679 -0.215320
C39   C     C_R   0.898123 0.654808 0.664363 -0.137637
O12   O     O_2   0.798028 0.653397 0.648966 -0.548464
C40   C     C_R   0.051194 0.679594 0.601962 -0.217791
H11   H     H_    0.965539 0.741024 0.701701 0.142730
H12   H     H_    0.879829 0.735973 0.701088 0.191483
H13   H     H_    0.034262 0.767575 0.618316 0.140951
H14   H     H_    0.511622 0.114182 0.288022 0.171860
C41   C     C_R   0.510204 0.107958 0.761954 -0.160850
H15   H     H_    0.531584 0.192693 0.776097 0.168785
C42   C     C_R   0.494169 0.045171 0.879174 -0.142762
H16   H     H_    0.500853 0.085460 0.977680 0.144633
C43   C     C_R   0.468406 0.932442 0.868965 -0.155211
H17   H     H_    0.453945 0.886079 0.959098 0.141983
C44   C     C_R   0.463086 0.876830 0.742841 -0.146084
H18   H     H_    0.442798 0.789052 0.738638 0.161556
C45   C     C_R   0.483553 0.934450 0.624901 0.099796
C46   C     C_R   0.500323 0.058364 0.631780 0.095811
C47   C     C_R   0.506064 0.126110 0.507506 -0.120466
C48   C     C_R   0.506188 0.064524 0.383540 -0.213483
H19   H     H_    0.503577 0.891091 0.284596 0.169787
C49   C     C_R   0.499811 0.937573 0.380815 -0.216296
C50   C     C_R   0.489674 0.871746 0.500936 -0.125365
H20   H     H_    0.553414 0.642712 0.123193 0.146770
C51   C     C_R   0.436406 0.335983 0.143066 -0.176188
H21   H     H_    0.433984 0.330182 0.250487 0.210395
C52   C     C_R   0.405034 0.255735 0.073781 -0.210978
H22   H     H_    0.380606 0.192853 0.129416 0.164336
C53   C     C_R   0.404967 0.256211 0.933577 -0.178205
H23   H     H_    0.380626 0.193394 0.879784 0.165021
C54   C     C_R   0.436387 0.336651 0.861948 -0.165530
H24   H     H_    0.434475 0.330645 0.754626 0.212356
C55   C     C_R   0.468704 0.419163 0.928852 0.148108
C56   C     C_R   0.468731 0.419021 0.073730 0.171239
N3    N     N_R   0.499540 0.498800 0.142780 -0.120264
C57   C     C_R   0.529522 0.578364 0.070240 -0.132733
H25   H     H_    0.553681 0.641960 0.871511 0.159842
C58   C     C_R   0.529586 0.578138 0.926836 -0.112541
N4    N     N_R   0.499520 0.498720 0.857170 -0.128134
C59   C     C_3   0.658628 0.638060 0.295264 -0.394043
C60   C     C_3   0.639880 0.759659 0.352366 -0.801364
H26   H     H_    0.609291 0.741711 0.423617 0.248335
H27   H     H_    0.669444 0.810908 0.406087 0.278253
H28   H     H_    0.626932 0.819676 0.268097 0.241675
H29   H     H_    0.686169 0.663616 0.217725 0.236340
H30   H     H_    0.630050 0.588507 0.236931 0.219919
I1    I     I_    0.780794 0.622350 0.282061 -0.342942
C61   C     C_3   0.867599 0.101642 0.475022 -0.299583
C62   C     C_3   0.897042 0.982503 0.482496 -0.914569
H31   H     H_    0.922388 0.978169 0.395249 0.261331
H32   H     H_    0.917245 0.977449 0.579496 0.257184
H33   H     H_    0.872090 0.899486 0.477494 0.286712
H34   H     H_    0.838643 0.088582 0.552775 0.245523
H35   H     H_    0.850837 0.106406 0.372974 0.253813

loop_
_geom_bond_atom_site_label_1
_geom_bond_atom_site_label_2
_geom_bond_distance
_ccdc_geom_bond_type
C51   H21   1.062823 S    
C54   H24   1.063240 S    
C55   C56   1.429642 A    
C26   N2    1.360263 A    
C20   C24   1.416555 A    
C7    C8    1.391942 A    
C12   C15   1.408600 A    
Zn2   N3    2.014253 S    
C47   C48   1.397370 A    
C44   H18   1.081855 S    
Zn1   O7    2.004034 S    
C30   C59   1.523521 S    
N1    C11   1.424175 S    
C39   H12   1.083718 S    
C21   C22   1.403537 A    
C37   C40   1.385582 A    
C23   C24   1.419756 A    
O7    C4    1.295607 A    
C5    C13   1.399828 A    
C40   H13   1.077588 S    
C5    O9    1.349938 S    
C18   C21   1.410745 A    
C5    N1    1.365413 A    
C19   C20   1.421611 A    
C42   H16   1.082918 S    
O5    C3    1.283374 A    
C61   C62   1.533634 S    
C19   C38   1.410821 A    
C19   C35   1.413647 A    
C6    O11   1.350218 S    
C2    C16   1.460897 S    
H19   C49   1.083902 S    
C1    C47   1.437699 S    
C59   H30   1.106120 S    
C8    H8    1.083132 S    
C12   C34   1.416624 A    
C14   H3    1.083643 S    
C54   C55   1.409954 A    
C9    C10   1.386530 A    
C51   C56   1.411147 A    
C42   C43   1.388684 A    
O3    Zn1   2.006172 S    
H20   C57   1.081360 S    
C41   C46   1.420748 A    
N3    C57   1.365457 A    
C44   C45   1.418467 A    
C38   H11   1.077821 S    
C33   C36   1.416789 A    
C34   C35   1.417298 A    
C12   C13   1.407842 A    
O3    C2    1.293775 A    
C53   H23   1.082773 S    
C41   C42   1.394843 A    
C36   H7    1.076505 S    
C27   O10   1.347642 S    
C26   O12   1.350846 S    
C8    C16   1.404771 A    
C33   C34   1.419889 A    
C18   C33   1.422132 A    
C31   I1    2.145051 S    
C9    H1    1.083225 S    
C38   C39   1.381239 A    
O1    C1    1.279762 A    
C60   H28   1.110617 S    
C7    C11   1.398486 A    
C43   H17   1.082596 S    
C22   C23   1.424828 A    
C21   H6    1.069429 S    
C53   C54   1.390208 A    
C31   C32   1.409596 A    
Zn2   O8    2.006169 S    
C56   N3    1.377035 A    
N1    C6    1.365154 A    
C59   H29   1.103842 S    
C62   H32   1.111116 S    
C17   C29   1.401771 A    
N2    C32   1.426976 S    
C49   C50   1.394618 A    
C43   C44   1.393158 A    
C22   C61   1.532853 S    
C25   C26   1.391233 A    
C9    C16   1.404599 A    
O8    C4    1.295097 A    
C29   H4    1.084125 S    
C48   C49   1.366301 A    
C51   C52   1.390677 A    
C60   H27   1.111023 S    
C52   C53   1.383492 A    
N2    C27   1.365395 A    
C14   C36   1.387477 A    
C61   H35   1.110948 S    
C45   C50   1.415140 A    
C35   C40   1.414809 A    
C28   C29   1.377774 A    
Zn1   O5    1.993417 S    
C30   C31   1.418019 A    
C37   H10   1.083609 S    
C10   H2    1.083072 S    
C62   H31   1.110448 S    
O1    Zn1   2.003235 S    
C17   C30   1.425219 A    
O2    Zn2   1.993415 S    
C6    C15   1.397969 A    
C4    C17   1.464892 S    
C46   C47   1.422683 A    
O6    C3    1.293066 A    
O4    Zn2   2.004037 S    
C57   C58   1.415139 A    
C25   C39   1.394838 A    
H25   C58   1.081791 S    
O2    C1    1.298749 A    
C13   C14   1.394922 A    
C41   H15   1.079313 S    
C15   C37   1.394743 A    
C28   H5    1.083348 S    
O4    C2    1.296503 A    
C7    H9    1.082849 S    
C58   N4    1.365525 A    
C18   C20   1.414137 A    
C62   H33   1.111013 S    
C59   C60   1.528795 S    
H14   C48   1.083993 S    
C45   C46   1.395399 A    
C24   C25   1.412578 A    
C28   C32   1.388808 A    
C23   C27   1.418103 A    
Zn2   O6    2.003235 S    
Zn1   N4    2.013339 S    
C3    C50   1.433607 S    
C60   H26   1.108709 S    
C10   C11   1.396388 A    
C52   H22   1.082762 S    
C61   H34   1.111522 S    
C55   N4    1.374787 A    
