data_mof_unit_21154.cif
_audit_creation_date              2012-12-10T16:47:56-0500
_audit_creation_method            fapswitch 2.2
_symmetry_space_group_name_H-M    P1
_symmetry_Int_Tables_number       1
_space_group_crystal_system       triclinic
_cell_length_a                    7.812938
_cell_length_b                    8.569267
_cell_length_c                    10.610964
_cell_angle_alpha                 90.699579
_cell_angle_beta                  86.619649
_cell_angle_gamma                 93.298906
_cell_volume                      707.977336417

loop_
_atom_site_label
_atom_site_type_symbol
_atom_type_description
_atom_site_fract_x
_atom_site_fract_y
_atom_site_fract_z
_atom_type_partial_charge
Br1   Br    Br    0.696392 0.801718 0.832080 -0.536184
Br2   Br    Br    0.038780 0.319892 0.344083 -0.431610
C1    C     C_R   0.545351 0.794424 0.499228 0.957482
C2    C     C_2   0.568967 0.957934 0.502613 -0.344536
C3    C     C_R   0.773449 0.695623 0.113971 0.196203
C4    C     C_R   0.939054 0.661396 0.066690 -0.077953
C5    C     C_R   0.083186 0.745398 0.109860 -0.116103
C6    C     C_R   0.063565 0.862182 0.201626 -0.085579
C7    C     C_R   0.899346 0.897731 0.248161 -0.102035
C8    C     C_R   0.754613 0.816200 0.203573 -0.104547
C9    C     C_2   0.430510 0.042119 0.505162 -0.360937
C10   C     C_R   0.503392 0.498483 0.737133 0.978598
C11   C     C_R   0.454633 0.205571 0.503715 0.963866
C12   C     C_R   0.498475 0.510950 0.262948 0.942894
C13   C     C_2   0.619729 0.615056 0.061002 -0.025027
C14   C     C_2   0.491473 0.541593 0.131739 -0.430958
C15   C     C_2   0.601426 0.620830 0.924971 0.235895
C16   C     C_2   0.516166 0.501436 0.869146 -0.374909
H1    H     H_    0.370272 0.505352 0.092231 0.160883
H2    H     H_    0.627839 0.848483 0.237073 0.105728
H3    H     H_    0.465167 0.397483 0.918989 0.130230
H4    H     H_    0.699668 0.008662 0.503029 0.193132
H5    H     H_    0.299456 0.991598 0.506208 0.189701
H6    H     H_    0.987220 0.615393 0.595784 0.186408
H7    H     H_    0.956203 0.571522 0.995127 0.146434
H8    H     H_    0.209918 0.721944 0.070741 0.146125
H9    H     H_    0.175377 0.926694 0.235233 0.144698
H10   H     H_    0.884219 0.990092 0.317353 0.164921
N1    N     N_2   0.950320 0.457950 0.466680 0.054126
N2    N     N_2   0.049680 0.542050 0.533320 -0.119026
O1    O     O_R   0.389250 0.738570 0.508180 -0.620530
O2    O     O_R   0.678390 0.711630 0.486820 -0.629812
O3    O     O_R   0.355470 0.513470 0.691600 -0.612972
O4    O     O_R   0.644610 0.486520 0.670240 -0.605187
O5    O     O_R   0.321610 0.288370 0.513180 -0.585565
O6    O     O_R   0.610750 0.261430 0.491820 -0.603659
O7    O     O_R   0.355390 0.513480 0.329760 -0.582874
O8    O     O_R   0.644530 0.486530 0.308400 -0.585665
Zn1   Zn    Zn3+2 0.306940 0.517990 0.514260 1.014318
Zn2   Zn    Zn3+2 0.693060 0.482010 0.485740 1.024025

loop_
_geom_bond_atom_site_label_1
_geom_bond_atom_site_label_2
_ccdc_geom_bond_type
O5    Zn1   S    
N1    N2    D    
C12   O8    A    
C16   H3    S    
C2    H4    S    
C7    C8    A    
Br1   C15   S    
C15   C16   D    
C5    C6    A    
O7    Zn1   S    
C2    C9    D    
C1    O1    A    
C9    C11   S    
O3    Zn1   S    
C5    H8    S    
C14   H1    S    
O4    Zn2   S    
C3    C4    A    
N1    Zn2   S    
C9    H5    S    
O8    Zn2   S    
O1    Zn1   S    
N2    Zn1   S    
C11   O5    A    
C4    C5    A    
H6    N2    S    
O2    Zn2   S    
C1    O2    A    
C12   C14   S    
C3    C13   S    
C4    H7    S    
C10   O4    A    
C1    C2    S    
O6    Zn2   S    
Br2   N1    S    
C11   O6    A    
C10   C16   S    
C13   C15   S    
C6    H9    S    
C3    C8    A    
C10   O3    A    
C13   C14   D    
C7    H10   S    
C8    H2    S    
C6    C7    A    
C12   O7    A    
