data_mof_unit_19845.cif
_audit_creation_date              2013-03-05T15:54:53-0500
_audit_creation_method            fapswitch 2.2
_symmetry_space_group_name_H-M    P1
_symmetry_Int_Tables_number       1
_space_group_crystal_system       triclinic
_cell_length_a                    12.362
_cell_length_b                    13.307924
_cell_length_c                    14.435731
_cell_angle_alpha                 93.84373
_cell_angle_beta                  107.757736
_cell_angle_gamma                 116.622701
_cell_volume                      1963.1860586

loop_
_atom_site_label
_atom_site_type_symbol
_atom_site_description
_atom_site_fract_x
_atom_site_fract_y
_atom_site_fract_z
_atom_type_partial_charge
O1    O     O_R   0.545970 0.684450 0.528810 -0.555777
O2    O     O_R   0.687130 0.639470 0.490120 -0.612010
C1    C     C_R   0.650525 0.713980 0.508055 0.819136
O3    O     O_R   0.519670 0.535100 0.660030 -0.574331
O4    O     O_R   0.660830 0.490120 0.621340 -0.594127
C2    C     C_R   0.618387 0.516570 0.685984 0.812630
Cu1   Cu    Cu3+1 0.416420 0.526630 0.522910 1.001853
Cu2   Cu    Cu3+1 0.583580 0.473370 0.477090 0.994966
O5    O     O_R   0.312870 0.360530 0.509880 -0.576128
O6    O     O_R   0.454030 0.315550 0.471190 -0.543179
O7    O     O_R   0.339170 0.509880 0.378660 -0.584737
O8    O     O_R   0.480330 0.464900 0.339970 -0.590674
C3    C     C_R   0.349191 0.285731 0.490227 0.840075
C4    C     C_R   0.380465 0.482052 0.313523 0.809141
C5    C     C_R   0.678236 0.516493 0.790268 -0.043768
C6    C     C_R   0.310573 0.468604 0.206799 -0.058613
C7    C     C_R   0.668910 0.504839 0.953562 -0.116235
C8    C     C_R   0.618429 0.517122 0.857889 -0.168583
C9    C     C_R   0.791272 0.507069 0.820010 -0.168600
C10   C     C_R   0.841185 0.489045 0.914904 0.064520
C11   C     C_R   0.778910 0.489258 0.982942 0.094379
C12   C     C_R   0.950986 0.471119 0.943698 0.058024
C13   C     C_R   0.006353 0.466857 0.044360 0.019801
C14   C     C_R   0.939559 0.463973 0.108990 -0.159520
C15   C     C_R   0.826472 0.472477 0.078288 0.199720
C16   C     C_R   0.005094 0.454168 0.874564 -0.108140
C17   C     C_R   0.114418 0.440394 0.904476 -0.149341
C18   C     C_R   0.176659 0.446867 0.004601 0.143257
C19   C     C_R   0.124659 0.461906 0.076111 0.109825
C20   C     C_R   0.291302 0.439197 0.034018 -0.149915
C21   C     C_R   0.357341 0.449229 0.134339 -0.152669
C22   C     C_R   0.195337 0.475121 0.177423 -0.180372
H1    H     H_    0.164729 0.494175 0.235418 0.164327
H2    H     H_    0.445976 0.443604 0.155290 0.182802
H3    H     H_    0.152193 0.427086 0.848916 0.162835
H4    H     H_    0.619296 0.506435 0.003120 0.167104
H5    H     H_    0.531073 0.524934 0.836417 0.171030
H6    H     H_    0.838853 0.514825 0.767550 0.151488
H7    H     H_    0.969503 0.449920 0.182949 0.188526
H8    H     H_    0.963085 0.447468 0.795642 0.174901
H9    H     H_    0.330633 0.426536 0.979415 0.143057
C23   C     C_R   0.176319 0.960026 0.411034 -0.146532
H10   H     H_    0.186756 0.893099 0.374274 0.222285
C24   C     C_R   0.263795 0.162533 0.482590 -0.173567
C25   C     C_R   0.724014 0.921451 0.565837 -0.203047
C26   C     C_R   0.819588 0.037944 0.593665 0.386591
C27   C     C_R   0.931305 0.069718 0.571278 -0.165071
C28   C     C_R   0.943608 0.988664 0.512385 0.072005
C29   C     C_R   0.840799 0.872087 0.478759 0.032352
C30   C     C_R   0.054824 0.019318 0.485999 0.081123
C31   C     C_R   0.062330 0.932960 0.429275 -0.027235
C32   C     C_R   0.954890 0.821378 0.389496 0.351484
C33   C     C_R   0.843871 0.793668 0.410149 -0.223655
C34   C     C_R   0.157418 0.133740 0.511513 -0.182562
C35   C     C_R   0.278585 0.073397 0.439281 0.318840
C36   C     C_R   0.736970 0.837139 0.514030 -0.138220
H11   H     H_    0.155129 0.203793 0.550633 0.187820
H12   H     H_    0.641079 0.896039 0.587784 0.216250
H13   H     H_    0.006726 0.158605 0.601356 0.177127
H14   H     H_    0.759462 0.710291 0.369456 0.191664
C37   C     C_R   0.245132 0.660653 0.676621 0.069906
N1    N     N_R   0.290690 0.566960 0.557640 -0.238555
C38   C     C_R   0.649897 0.334495 0.371721 0.033677
C39   C     C_R   0.720853 0.285723 0.349517 0.220852
C40   C     C_R   0.858401 0.344612 0.397280 0.250648
C41   C     C_R   0.924077 0.451582 0.470792 -0.085027
C42   C     C_R   0.842452 0.490279 0.495155 0.229364
C43   C     C_R   0.064869 0.519337 0.525365 -0.011179
C44   C     C_R   0.114348 0.610214 0.610570 0.010230
C45   C     C_R   0.032430 0.649949 0.626707 0.124910
C46   C     C_R   0.900008 0.587723 0.573035 -0.179191
C47   C     C_R   0.160266 0.504392 0.499183 0.060238
C48   C     C_R   0.334068 0.645735 0.644820 0.294201
N2    N     N_R   0.709100 0.433710 0.442970 -0.230616
H15   H     H_    0.134786 0.448065 0.430297 0.192699
H16   H     H_    0.544770 0.289837 0.334734 0.200067
H17   H     H_    0.844800 0.619865 0.595074 0.209838
I1    I     I_    0.728444 0.454002 0.178917 -0.292797
N3    N     N_R   0.395442 0.095328 0.423334 0.120288
O9    O     O_R   0.387253 0.044101 0.339484 -0.302240
O10   O     O_R   0.506330 0.144067 0.499332 -0.294256
N4    N     N_R   0.955558 0.735959 0.324564 0.114269
O11   O     O_R   0.943218 0.743351 0.232865 -0.327490
O12   O     O_R   0.996558 0.667788 0.362696 -0.377389
N5    N     N_R   0.805612 0.123539 0.647900 0.149037
O13   O     O_R   0.707600 0.092832 0.676710 -0.293138
O14   O     O_R   0.888459 0.233299 0.666252 -0.380472
I2    I     I_    0.536887 0.758971 0.731984 -0.207085
I3    I     I_    0.097281 0.821600 0.703684 -0.275637
I4    I     I_    0.298976 0.717753 0.834958 -0.229667
N6    N     N_R   0.926796 0.290259 0.373988 0.121518
O15   O     O_R   0.922987 0.270970 0.283166 -0.331038
O16   O     O_R   0.977071 0.245458 0.439556 -0.375355
N7    N     N_R   0.651416 0.175061 0.279172 0.186756
O17   O     O_R   0.544159 0.147120 0.204336 -0.287103
O18   O     O_R   0.685221 0.096460 0.296354 -0.234597

loop_
_geom_bond_atom_site_label_1
_geom_bond_atom_site_label_2
_geom_bond_distance
_ccdc_geom_bond_type
C5    C8    1.394368 A    
C41   C43   1.457672 A    
C9    C10   1.405665 A    
Cu1   Cu2   2.700662 S    
C48   I2    2.139072 S    
N5    O13   1.301689 A    
C32   C33   1.385338 A    
C6    C21   1.400422 A    
Cu1   O7    1.957508 S    
C16   C17   1.386787 A    
C30   C34   1.404235 A    
C13   C19   1.426486 A    
C18   C19   1.418198 A    
C8    H5    1.083427 S    
C19   C22   1.407701 A    
O3    Cu1   1.964686 S    
C20   C21   1.391705 A    
O7    C4    1.302862 A    
C38   H16   1.081284 S    
C14   H7    1.076857 S    
C40   N6    1.428295 S    
O5    C3    1.308947 A    
C2    C5    1.461217 S    
C5    C9    1.396769 A    
C25   C36   1.401980 A    
C43   C44   1.424197 A    
C13   C14   1.414220 A    
N1    C48   1.370411 A    
C45   C46   1.375211 A    
C7    H4    1.079677 S    
Cu2   O8    1.964686 S    
C23   C31   1.403181 A    
C26   N5    1.442110 S    
C28   C30   1.428056 A    
C41   C42   1.437001 A    
N7    O17   1.301504 A    
C47   H15   1.071149 S    
C33   H14   1.079865 S    
C30   C31   1.419734 A    
N5    O14   1.301744 A    
C25   H12   1.080569 S    
C31   C32   1.397023 A    
C14   C15   1.390727 A    
O3    C2    1.301392 A    
N6    O15   1.301326 A    
N3    O10   1.301456 A    
C37   C48   1.396485 A    
C25   C26   1.395020 A    
C7    C11   1.408785 A    
C15   I1    2.119861 S    
O1    C1    1.308269 A    
N7    O18   1.301399 A    
Cu1   N1    2.035203 S    
C9    H6    1.076057 S    
C23   C35   1.390831 A    
N6    O16   1.298678 A    
C35   N3    1.434924 S    
C1    C36   1.480137 S    
C27   C28   1.418574 A    
C43   C47   1.430085 A    
Cu2   N2    2.023410 S    
C7    C8    1.385495 A    
C21   H2    1.082618 S    
N1    C47   1.370266 A    
C20   H9    1.084192 S    
C42   N2    1.380579 A    
C32   N4    1.428688 S    
C28   C29   1.418915 A    
O8    C4    1.303321 A    
N4    O11   1.301139 A    
N4    O12   1.300696 A    
C4    C6    1.471262 S    
C45   I3    2.137897 S    
C23   H10   1.083014 S    
C46   H17   1.061034 S    
C37   I4    2.151916 S    
C37   C44   1.405292 A    
Cu1   O5    1.954871 S    
C11   C15   1.398317 A    
C26   C27   1.399189 A    
O1    Cu1   1.965053 S    
O2    Cu2   1.954872 S    
C10   C12   1.425294 A    
C38   C39   1.395452 A    
O6    C3    1.297544 A    
O4    Cu2   1.957508 S    
C38   N2    1.352603 A    
C6    C22   1.401372 A    
C29   C36   1.420693 A    
C17   H3    1.084551 S    
C22   H1    1.076639 S    
C18   C20   1.402707 A    
O2    C1    1.301613 A    
C39   N7    1.439329 S    
C39   C40   1.413841 A    
C24   C35   1.412830 A    
C16   H8    1.076859 S    
O4    C2    1.300057 A    
C29   C33   1.411163 A    
C42   C46   1.393378 A    
C44   C45   1.402379 A    
C27   H13   1.073702 S    
N3    O9    1.301133 A    
C24   C34   1.398288 A    
C10   C11   1.421323 A    
Cu2   O6    1.965052 S    
C40   C41   1.431050 A    
C12   C16   1.416514 A    
C17   C18   1.390721 A    
C12   C13   1.422127 A    
C3    C24   1.472471 S    
C34   H11   1.073151 S    
