data_mof_unit_11672.cif
_audit_creation_date              2012-12-10T19:42:31-0500
_audit_creation_method            fapswitch 2.2
_symmetry_space_group_name_H-M    P1
_symmetry_Int_Tables_number       1
_space_group_crystal_system       triclinic
_cell_length_a                    11.108074
_cell_length_b                    11.04033
_cell_length_c                    9.87594
_cell_angle_alpha                 99.407741
_cell_angle_beta                  98.111597
_cell_angle_gamma                 93.127198
_cell_volume                      1179.16804227

loop_
_atom_site_label
_atom_site_type_symbol
_atom_type_description
_atom_site_fract_x
_atom_site_fract_y
_atom_site_fract_z
_atom_type_partial_charge
C1    C     C_R   0.499574 0.261723 0.498626 0.788803
C2    C     C_R   0.501204 0.737970 0.501321 0.796869
C3    C     C_R   0.874232 0.502755 0.503835 -0.105559
C4    C     C_R   0.129294 0.510066 0.496674 -0.076519
C5    C     C_R   0.960012 0.550904 0.625391 0.069836
C6    C     C_R   0.044855 0.460236 0.376467 0.050834
C7    C     C_R   0.307554 0.016912 0.005193 -0.108375
C8    C     C_R   0.723009 0.965172 0.976791 -0.150120
C9    C     C_R   0.331953 0.008057 0.145423 -0.176120
C10   C     C_R   0.686642 0.978182 0.839003 -0.192749
C11   C     C_R   0.439087 0.066820 0.228553 0.126592
C12   C     C_R   0.571709 0.929099 0.768352 0.135752
C13   C     C_R   0.520685 0.134758 0.167431 -0.056558
C14   C     C_R   0.494637 0.863518 0.837393 -0.052403
C15   C     C_R   0.490318 0.151412 0.029679 -0.162598
C16   C     C_R   0.533835 0.846213 0.973412 -0.163061
C17   C     C_R   0.384153 0.092440 0.948873 -0.141773
C18   C     C_R   0.647036 0.898554 0.043557 -0.055290
C19   C     C_R   0.474498 0.913169 0.378506 -0.236813
C20   C     C_R   0.528500 0.085613 0.621611 -0.257407
C21   C     C_R   0.501479 0.872126 0.504967 -0.080365
C22   C     C_R   0.500284 0.126995 0.494918 -0.085267
C23   C     C_R   0.262680 0.504091 0.499971 0.806074
C24   C     C_R   0.738554 0.500090 0.500317 0.792995
C25   C     C_R   0.530016 0.960180 0.629227 0.002818
C26   C     C_R   0.472936 0.038232 0.370386 0.004983
C27   C     C_2   0.497234 0.518711 0.077466 -0.085932
C28   C     C_2   0.489583 0.489559 0.920182 -0.078022
C29   C     C_R   0.151837 0.464548 0.029359 0.261138
C30   C     C_R   0.821913 0.480935 0.931158 0.159420
C31   C     C_R   0.120120 0.502284 0.161805 -0.149015
C32   C     C_R   0.872949 0.466355 0.809611 -0.084221
C33   C     C_R   0.082787 0.416671 0.240229 0.025803
C34   C     C_R   0.926619 0.567538 0.766635 0.098072
C35   C     C_R   0.079981 0.291112 0.188406 -0.252179
C36   C     C_R   0.949320 0.680050 0.858447 -0.262840
C37   C     C_R   0.099207 0.250431 0.051380 0.228844
C38   C     C_R   0.912668 0.693545 0.990987 0.282056
C39   C     C_R   0.137190 0.337231 0.971520 -0.032897
C40   C     C_R   0.842235 0.594369 0.024928 -0.015634
C41   C     C_R   0.919719 0.456236 0.382782 -0.242610
C42   C     C_R   0.084796 0.561477 0.616752 -0.158156
Cu1   Cu    Cu3+1 0.521120 0.521140 0.639640 0.947459
Cu2   Cu    Cu3+1 0.478880 0.478860 0.360360 0.959089
H1    H     H_    0.607774 0.173463 0.226218 0.116328
H2    H     H_    0.403423 0.828653 0.787259 0.111550
H3    H     H_    0.550488 0.205497 0.982384 0.151141
H4    H     H_    0.475109 0.796283 0.026845 0.122422
H5    H     H_    0.454784 0.846538 0.283088 0.151341
H6    H     H_    0.550853 0.151909 0.717066 0.149058
H7    H     H_    0.429072 0.411558 0.864076 0.153491
H8    H     H_    0.545377 0.604393 0.131492 0.183601
H9    H     H_    0.610270 0.625716 0.904942 0.219797
H10   H     H_    0.397736 0.368452 0.095896 0.206766
H11   H     H_    0.129418 0.598051 0.208456 0.140548
H12   H     H_    0.858166 0.378156 0.740252 0.144602
H13   H     H_    0.051926 0.225282 0.250397 0.148892
H14   H     H_    0.995612 0.757269 0.826743 0.131027
H15   H     H_    0.857031 0.413086 0.293290 0.143284
H16   H     H_    0.148511 0.602622 0.707516 0.167497
H17   H     H_    0.366584 0.097537 0.839677 0.118230
H18   H     H_    0.673548 0.892250 0.151508 0.187443
H19   H     H_    0.230508 0.963079 0.939355 0.144175
H20   H     H_    0.808334 0.010103 0.033605 0.146850
H21   H     H_    0.270766 0.949965 0.187566 0.117413
H22   H     H_    0.745156 0.031374 0.788097 0.130477
N1    N     N_2   0.447120 0.447110 0.150550 -0.290830
N2    N     N_2   0.552880 0.552890 0.849450 -0.292359
O1    O     O_R   0.517830 0.337490 0.617920 -0.598435
O2    O     O_R   0.482170 0.662510 0.382080 -0.585487
O3    O     O_R   0.482150 0.301790 0.382070 -0.577032
O4    O     O_R   0.517850 0.698210 0.617930 -0.582675
O5    O     O_R   0.337480 0.517860 0.617920 -0.579627
O6    O     O_R   0.662520 0.482140 0.382080 -0.582711
O7    O     O_R   0.301810 0.482160 0.382070 -0.570107
O8    O     O_R   0.698190 0.517840 0.617930 -0.580376
C43   C     C_2   0.163724 0.293868 0.829655 0.296585
H23   H     H_    0.214163 0.214182 0.808882 0.090773
O9    O     O_2   0.123317 0.342629 0.732690 -0.566958
C44   C     C_2   0.780249 0.607455 0.149183 0.305504
H24   H     H_    0.739500 0.526501 0.177169 0.148340
O10   O     O_2   0.766749 0.707010 0.216928 -0.573224
N3    N     N_2   0.198595 0.552068 0.953570 -0.405546
H25   H     H_    0.251985 0.517945 0.881679 0.281204
C45   C     C_3   0.239883 0.676373 0.021990 -0.762160
H26   H     H_    0.274573 0.727963 0.946267 0.214485
H27   H     H_    0.312941 0.675936 0.110876 0.241987
H28   H     H_    0.163457 0.725160 0.057870 0.249363
N4    N     N_2   0.735872 0.386307 0.947742 -0.445123
H29   H     H_    0.681526 0.344758 0.856737 0.277500
C46   C     C_3   0.783419 0.298081 0.029014 -0.803561
H30   H     H_    0.728638 0.291554 0.112960 0.236061
H31   H     H_    0.877412 0.326052 0.075971 0.259901
H32   H     H_    0.781492 0.207384 0.962593 0.237120
N5    N     N_2   0.078043 0.122065 0.996399 -0.441566
H33   H     H_    0.065052 0.066582 0.068243 0.244665
C47   C     C_3   0.003280 0.082829 0.861794 -0.745637
H34   H     H_    0.944315 0.999216 0.862792 0.208538
H35   H     H_    0.062251 0.056249 0.781912 0.232396
H36   H     H_    0.945359 0.155981 0.831900 0.249510
N6    N     N_2   0.936469 0.810933 0.079916 -0.409412
H37   H     H_    0.966665 0.880679 0.033034 0.226833
C48   C     C_3   0.997622 0.819857 0.221574 -0.630216
H38   H     H_    0.093944 0.855808 0.230919 0.170373
H39   H     H_    0.995184 0.730522 0.258336 0.240725
H40   H     H_    0.952177 0.885758 0.291206 0.250293

loop_
_geom_bond_atom_site_label_1
_geom_bond_atom_site_label_2
_ccdc_geom_bond_type
Cu1   O5    S    
C30   C32   A    
C5    C42   A    
Cu1   O4    S    
N5    H33   S    
C15   H3    S    
C16   H4    S    
C47   H34   S    
C14   H2    S    
C43   H23   S    
C1    O3    A    
C39   C43   S    
C35   C37   A    
C29   N3    S    
C38   N6    S    
C36   H14   S    
C28   H7    S    
C20   C25   A    
C37   N5    S    
Cu2   O3    S    
C7    C9    A    
C19   C26   A    
H9    N2    S    
C20   H6    S    
C17   H17   S    
Cu1   N2    S    
C7    C17   A    
C6    C41   A    
C40   C44   S    
Cu2   O2    S    
N4    C46   S    
C43   O9    D    
C1    C22   S    
N6    C48   S    
C38   C40   A    
C3    C24   S    
C23   O5    A    
C30   N4    S    
C2    O4    A    
C47   H35   S    
C9    H21   S    
C10   H22   S    
C45   H27   S    
N6    H37   S    
C41   H15   S    
C44   O10   D    
C42   H16   S    
C46   H30   S    
C4    C23   S    
C24   O8    A    
H10   N1    S    
C11   C26   S    
C45   H26   S    
C8    C18   A    
C32   C34   A    
Cu2   O7    S    
Cu1   Cu2   S    
C46   H31   S    
C19   H5    S    
N3    H25   S    
C29   C31   A    
C5    C34   S    
C29   C39   A    
C2    C21   S    
C31   C33   A    
C30   C40   A    
C48   H39   S    
C16   C18   A    
Cu2   O6    S    
C9    C11   A    
C7    H19   S    
C10   C12   A    
C8    H20   S    
C4    C6    A    
N3    C45   S    
C12   C14   A    
C13   C15   A    
C14   C16   A    
C20   C22   A    
C48   H38   S    
C47   H36   S    
C27   H8    S    
C45   H28   S    
Cu1   O8    S    
C15   C17   A    
C21   C25   A    
C3    C41   A    
C28   N2    D    
C8    C10   A    
C18   H18   S    
C23   O7    A    
C44   H24   S    
C3    C5    A    
N5    C47   S    
C6    C33   S    
C12   C25   S    
C35   H13   S    
C36   C38   A    
C37   C39   A    
C46   H32   S    
C13   H1    S    
C11   C13   A    
C24   O6    A    
C4    C42   A    
C33   C35   A    
C48   H40   S    
C34   C36   A    
C1    O1    A    
C27   N1    D    
Cu1   O1    S    
C22   C26   A    
C27   C28   S    
Cu2   N1    S    
C31   H11   S    
N4    H29   S    
C2    O2    A    
C32   H12   S    
C19   C21   A    
