data_mof_unit_44109.cif
_audit_creation_date              2012-12-10T17:42:35-0500
_audit_creation_method            fapswitch 2.2
_symmetry_space_group_name_H-M    P1
_symmetry_Int_Tables_number       1
_space_group_crystal_system       triclinic
_cell_length_a                    9.943214
_cell_length_b                    10.719663
_cell_length_c                    13.152173
_cell_angle_alpha                 91.011255
_cell_angle_beta                  70.140681
_cell_angle_gamma                 89.484548
_cell_volume                      1318.12027621

loop_
_atom_site_label
_atom_site_type_symbol
_atom_type_description
_atom_site_fract_x
_atom_site_fract_y
_atom_site_fract_z
_atom_type_partial_charge
C1    C     C_R   0.502479 0.739537 0.491085 0.865535
C2    C     C_R   0.368532 0.492431 0.821766 -0.118093
C3    C     C_R   0.256123 0.893347 0.472641 -0.232214
C4    C     C_R   0.420309 0.495655 0.703851 0.835959
C5    C     C_R   0.122347 0.953442 0.512481 0.203279
C6    C     C_R   0.104872 0.056279 0.584810 0.194029
C7    C     C_R   0.227704 0.115076 0.590535 -0.233304
C8    C     C_R   0.364644 0.062782 0.535912 0.060518
C9    C     C_R   0.373994 0.940744 0.496463 0.057377
C10   C     C_R   0.502314 0.873108 0.480896 -0.101298
C11   C     C_R   0.627233 0.935189 0.474217 -0.230512
C12   C     C_R   0.432851 0.488663 0.983968 0.083356
C13   C     C_R   0.624345 0.062483 0.487452 -0.218008
C14   C     C_R   0.493423 0.127197 0.517791 -0.106297
C15   C     C_R   0.795365 0.659726 0.645192 -0.147414
C16   C     C_R   0.496578 0.260599 0.508830 0.867808
C17   C     C_R   0.832998 0.735386 0.717985 -0.209213
C18   C     C_R   0.971678 0.732664 0.719054 -0.204359
C19   C     C_R   0.073828 0.654794 0.646865 -0.170053
C20   C     C_R   0.039210 0.575694 0.573084 0.138039
C21   C     C_R   0.894981 0.576720 0.572668 0.161133
C22   C     C_R   0.961699 0.430301 0.427798 -0.148100
C23   C     C_R   0.459301 0.449081 0.876185 0.089106
C24   C     C_R   0.104522 0.430013 0.428046 -0.117397
C25   C     C_R   0.579572 0.500002 0.296244 0.874035
C26   C     C_R   0.770853 0.372624 0.018463 -0.198862
C27   C     C_R   0.627814 0.485281 0.179673 -0.059007
C28   C     C_R   0.236928 0.549720 0.880132 -0.202029
C29   C     C_R   0.200432 0.572206 0.990557 -0.147406
C30   C     C_R   0.298443 0.545423 0.041974 -0.199273
C31   C     C_3   0.005614 0.908657 0.472094 -0.420178
C32   C     C_3   0.037725 0.944369 0.354253 -0.894728
C33   C     C_3   0.959792 0.104071 0.656216 -0.467979
C34   C     C_R   0.541639 0.468797 0.029131 0.081514
C35   C     C_3   0.903929 0.206068 0.601476 -0.821271
C36   C     C_R   0.665028 0.395564 0.972295 0.177962
C37   C     C_R   0.678774 0.342970 0.871867 -0.255173
C38   C     C_R   0.576511 0.368303 0.824790 -0.195159
C39   C     C_R   0.531355 0.519978 0.129406 -0.260786
C40   C     C_R   0.750923 0.415488 0.123214 -0.202035
H1    H     H_    0.826591 0.388149 0.161959 0.151761
H2    H     H_    0.768990 0.282688 0.829622 0.156322
H3    H     H_    0.184568 0.371667 0.369906 0.159361
H4    H     H_    0.864986 0.316447 0.975771 0.135501
H5    H     H_    0.444547 0.582434 0.173239 0.144346
H6    H     H_    0.164476 0.581020 0.839900 0.155992
H7    H     H_    0.264524 0.567201 0.127402 0.132657
H8    H     H_    0.098253 0.615567 0.035669 0.147206
H9    H     H_    0.588574 0.322814 0.748215 0.161029
H10   H     H_    0.726991 0.884768 0.457328 0.176444
H11   H     H_    0.042301 0.047440 0.346907 0.259308
H12   H     H_    0.268216 0.812935 0.419211 0.179221
H13   H     H_    0.141164 0.902475 0.301929 0.260170
H14   H     H_    0.952748 0.909462 0.324616 0.249317
H15   H     H_    0.997734 0.805856 0.477925 0.216018
H16   H     H_    0.900173 0.948737 0.520428 0.217575
H17   H     H_    0.930256 0.184756 0.513943 0.258383
H18   H     H_    0.786228 0.214280 0.638693 0.244150
H19   H     H_    0.951680 0.296185 0.612421 0.264851
H20   H     H_    0.882538 0.026717 0.679483 0.201820
H21   H     H_    0.966620 0.141688 0.733589 0.193559
H22   H     H_    0.215715 0.199621 0.639383 0.165346
H23   H     H_    0.724570 0.109786 0.472955 0.175672
H24   H     H_    0.934932 0.372185 0.369557 0.143052
H25   H     H_    0.688524 0.672044 0.646589 0.209445
H26   H     H_    0.754452 0.798224 0.772633 0.148750
H27   H     H_    0.001176 0.793163 0.774584 0.147013
H28   H     H_    0.179473 0.660952 0.649309 0.208643
N1    N     N_R   0.856860 0.501200 0.500990 -0.113578
N2    N     N_R   0.142450 0.501280 0.501020 -0.122600
O1    O     O_R   0.385310 0.683220 0.500000 -0.645258
O2    O     O_R   0.614640 0.683250 0.500010 -0.636459
O3    O     O_R   0.328400 0.499950 0.653610 -0.634736
O4    O     O_R   0.557730 0.499970 0.653620 -0.625389
O5    O     O_R   0.385360 0.316750 0.499990 -0.606120
O6    O     O_R   0.614690 0.316780 0.500000 -0.624459
O7    O     O_R   0.442270 0.500030 0.346380 -0.613985
O8    O     O_R   0.671600 0.500050 0.346390 -0.612802
Zn1   Zn    Zn3+2 0.346880 0.499980 0.499990 0.921876
Zn2   Zn    Zn3+2 0.653120 0.500020 0.500010 0.921099

loop_
_geom_bond_atom_site_label_1
_geom_bond_atom_site_label_2
_ccdc_geom_bond_type
C16   O5    A    
C19   C20   A    
O1    Zn1   S    
C24   N2    A    
C7    C8    A    
C7    H22   S    
C38   H9    S    
C12   C23   A    
C28   H6    S    
C17   H26   S    
C29   C30   A    
C35   H18   S    
C25   O7    A    
C28   C29   A    
C5    C6    A    
O8    Zn2   S    
C15   H25   S    
C35   H19   S    
C18   C19   A    
C37   H2    S    
C27   C39   A    
C8    C9    A    
C14   C16   S    
C31   H16   S    
C9    C10   A    
C22   N1    A    
C4    O4    A    
C39   H5    S    
O4    Zn2   S    
C13   C14   A    
C20   N2    A    
C32   H14   S    
O7    Zn1   S    
C1    O2    A    
C29   H8    S    
C26   H4    S    
C34   C39   A    
C30   H7    S    
C18   H27   S    
C25   O8    A    
C21   N1    A    
C2    C4    S    
C32   H11   S    
C37   C38   A    
C3    C9    A    
C31   C32   S    
C13   H23   S    
C27   C40   A    
C17   C18   A    
O3    Zn1   S    
C19   H28   S    
C1    O1    A    
C4    O3    A    
C26   C36   A    
C40   H1    S    
C33   H20   S    
C22   C24   A    
C12   C34   A    
C32   H13   S    
C15   C17   A    
C36   C37   A    
C8    C14   A    
C12   C30   A    
N2    Zn1   S    
C16   O6    A    
C1    C10   S    
O6    Zn2   S    
C3    C5    A    
C3    H12   S    
C6    C7    A    
C25   C27   S    
C23   C38   A    
C6    C33   S    
C35   H17   S    
O2    Zn2   S    
C11   H10   S    
C11   C13   A    
C26   C40   A    
C33   C35   S    
C34   C36   A    
C10   C11   A    
C22   H24   S    
C15   C21   A    
C20   C21   A    
C33   H21   S    
C2    C23   A    
C24   H3    S    
N1    Zn2   S    
C2    C28   A    
C31   H15   S    
O5    Zn1   S    
C5    C31   S    
