data_mof_unit_64531.cif
_audit_creation_date              2012-10-26T18:02:16-0400
_audit_creation_method            fapswitch 2.2
_symmetry_space_group_name_H-M    P1
_symmetry_Int_Tables_number       1
_space_group_crystal_system       triclinic
_cell_length_a                    18.914455
_cell_length_b                    18.85391
_cell_length_c                    18.733949
_cell_angle_alpha                 109.373668
_cell_angle_beta                  109.54311
_cell_angle_gamma                 109.717122
_cell_volume                      5128.7757991

loop_
_atom_site_label
_atom_site_type_symbol
_atom_type_description
_atom_site_fract_x
_atom_site_fract_y
_atom_site_fract_z
_atom_type_partial_charge
C1    C     C_R   0.119225 0.000587 0.619404 0.592884
C2    C     C_R   0.534525 0.430420 0.797663 -0.110775
C3    C     C_R   0.551819 0.516309 0.831465 -0.100643
C4    C     C_R   0.118085 0.118745 0.499372 0.600365
C5    C     C_R   0.495585 0.537006 0.783971 -0.090741
C6    C     C_R   0.422120 0.471899 0.702430 -0.057474
C7    C     C_R   0.404561 0.385558 0.667885 0.094950
C8    C     C_R   0.234761 0.964297 0.666232 -0.076678
C9    C     C_R   0.189694 0.005303 0.687595 0.024268
C10   C     C_R   0.216205 0.053956 0.776602 -0.116091
C11   C     C_R   0.279328 0.052231 0.840675 -0.152664
C12   C     C_R   0.937011 0.999227 0.176674 0.411814
C13   C     C_R   0.316598 0.002498 0.816168 0.034295
C14   C     C_R   0.298010 0.963763 0.729786 0.084663
C15   C     C_3   0.269470 0.872028 0.669336 0.680429
C16   C     C_R   0.881277 0.999906 0.380758 0.537561
C17   C     C_3   0.200677 0.872921 0.599392 -0.148313
C18   C     C_R   0.816595 0.742582 0.497486 0.054854
C19   C     C_R   0.813584 0.815397 0.498798 0.014095
C20   C     C_R   0.742408 0.823219 0.500375 -0.158863
C21   C     C_R   0.677108 0.757917 0.499551 -0.147186
C22   C     C_R   0.684135 0.685924 0.500247 0.015890
C23   C     C_R   0.237437 0.252174 0.424034 -0.165754
C24   C     C_R   0.755884 0.681815 0.500134 -0.036325
C25   C     C_3   0.798978 0.628682 0.499726 -0.210205
C26   C     C_3   0.868752 0.698547 0.497528 0.261445
C27   C     C_R   0.763184 0.930112 0.228453 0.065279
C28   C     C_R   0.881156 0.881360 0.499796 0.567445
C29   C     C_R   0.817640 0.002175 0.312991 0.006070
C30   C     C_R   0.812660 0.078336 0.329905 -0.168044
C31   C     C_R   0.747889 0.078067 0.265472 -0.163379
C32   C     C_R   0.686293 0.001011 0.184985 0.019739
C33   C     C_R   0.698165 0.929365 0.165603 0.048857
C34   C     C_R   0.314351 0.316694 0.503232 -0.058375
C35   C     C_3   0.635558 0.836155 0.129986 -0.272290
C36   C     C_3   0.707116 0.836827 0.199043 -0.265112
C37   C     C_R   0.500885 0.619213 0.619146 0.545403
C38   C     C_R   0.381212 0.382335 0.501463 0.546555
C39   C     C_R   0.499925 0.381568 0.381179 0.549651
C40   C     C_R   0.006373 0.983846 0.200689 -0.073294
C41   C     C_R   0.618498 0.618714 0.499952 0.550921
C42   C     C_R   0.500122 0.118840 0.118679 0.539322
C43   C     C_R   0.381581 0.000167 0.881382 0.581568
C44   C     C_R   0.500392 0.880946 0.881651 0.570765
C45   C     C_R   0.326395 0.316364 0.581824 -0.022352
C46   C     C_R   0.618703 0.000163 0.118847 0.546384
C47   C     C_R   0.431495 0.666055 0.700241 -0.022880
C48   C     C_R   0.502533 0.685287 0.687538 0.023205
C49   C     C_R   0.579259 0.765886 0.748645 -0.138068
C50   C     C_R   0.579408 0.830392 0.813335 -0.130827
C51   C     C_R   0.503529 0.813330 0.818778 0.026348
C52   C     C_R   0.083571 0.045096 0.280467 -0.133120
C53   C     C_R   0.432290 0.728601 0.765458 0.005155
C54   C     C_3   0.338638 0.697308 0.709250 -0.219480
C55   C     C_3   0.338056 0.628622 0.637539 -0.272007
C56   C     C_R   0.260993 0.250484 0.578999 0.341624
C57   C     C_R   0.425304 0.243128 0.243577 0.016073
C58   C     C_R   0.501341 0.316929 0.314797 0.022244
C59   C     C_R   0.580610 0.325592 0.321150 -0.152100
C60   C     C_R   0.580639 0.260960 0.256016 -0.151300
C61   C     C_R   0.501525 0.185835 0.185744 0.021232
C62   C     C_R   0.425462 0.179725 0.183050 0.015310
C63   C     C_3   0.329058 0.124132 0.132355 -0.264198
C64   C     C_R   0.091258 0.121652 0.337031 0.022334
C65   C     C_3   0.328968 0.196156 0.202135 -0.269860
C66   C     C_R   0.021533 0.136845 0.312699 -0.159268
C67   C     C_R   0.184689 0.185730 0.499383 0.021480
C68   C     C_R   0.944842 0.075944 0.232420 -0.079502
C69   C     C_R   0.172554 0.186420 0.421344 -0.074752
C70   C     C_R   0.461034 0.365105 0.716238 -0.030419
Cu1   Cu    Cu3+1 0.000020 0.938200 0.438220 0.955457
Cu2   Cu    Cu3+1 0.999980 0.061800 0.561780 0.996412
Cu3   Cu    Cu3+1 0.438190 0.500040 0.438260 0.940352
Cu4   Cu    Cu3+1 0.561780 0.500000 0.561820 0.955033
Cu5   Cu    Cu3+1 0.561810 0.061820 0.000020 0.971166
Cu6   Cu    Cu3+1 0.438190 0.938280 0.000080 0.979905
F1    F     F_    0.862207 0.939823 0.099326 -0.638611
F2    F     F_    0.332275 0.864962 0.650293 -0.633014
F3    F     F_    0.235166 0.814563 0.695298 -0.618833
F4    F     F_    0.948151 0.747112 0.574319 -0.608618
F5    F     F_    0.271446 0.249545 0.654097 -0.628576
H1    H     H_    0.608678 0.566780 0.894531 0.119144
H2    H     H_    0.622394 0.764341 0.499821 0.135217
H3    H     H_    0.822793 0.626792 0.561573 0.188224
H4    H     H_    0.759538 0.564356 0.438578 0.077721
H5    H     H_    0.872466 0.675271 0.436799 0.114422
H6    H     H_    0.857392 0.137149 0.393103 0.138815
H7    H     H_    0.743483 0.136508 0.279753 0.121771
H8    H     H_    0.579224 0.827301 0.140169 0.146286
H9    H     H_    0.692366 0.828251 0.249313 0.127578
H10   H     H_    0.137043 0.032761 0.298433 0.121587
H11   H     H_    0.731401 0.795206 0.170893 0.158958
H12   H     H_    0.508942 0.603482 0.810485 0.120730
H13   H     H_    0.637319 0.780271 0.743612 0.132050
H14   H     H_    0.637706 0.893795 0.857284 0.151368
H15   H     H_    0.329062 0.746028 0.693105 0.251114
H16   H     H_    0.297063 0.561284 0.621822 0.132964
H17   H     H_    0.328004 0.637724 0.579960 0.177150
H18   H     H_    0.641876 0.382248 0.375435 0.123498
H19   H     H_    0.641969 0.268915 0.261337 0.126851
H20   H     H_    0.026708 0.195768 0.355722 0.118577
H21   H     H_    0.306640 0.062066 0.133396 0.152295
H22   H     H_    0.299846 0.230818 0.176499 0.149804
H23   H     H_    0.378761 0.488421 0.666226 0.093573
H24   H     H_    0.228163 0.252489 0.363797 0.146384
H25   H     H_    0.448345 0.298798 0.690637 0.133254
H26   H     H_    0.578046 0.414442 0.834582 0.113831
H27   H     H_    0.618618 0.794108 0.062092 0.150405
H28   H     H_    0.297927 0.669600 0.734785 0.161546
H29   H     H_    0.300558 0.117636 0.066557 0.135702
H30   H     H_    0.307133 0.175817 0.243848 0.134954
H31   H     H_    0.891325 0.088042 0.213637 0.141131
H32   H     H_    0.185733 0.090042 0.796370 0.148576
H33   H     H_    0.297165 0.087427 0.908576 0.109336
H34   H     H_    0.212017 0.869789 0.544186 0.135942
H35   H     H_    0.133086 0.827891 0.579852 0.179380
H36   H     H_    0.736729 0.878686 0.501044 0.131270
H37   H     H_    0.000442 0.924573 0.157464 0.130617
O1    O     O_R   0.090190 0.947810 0.538000 -0.510711
O2    O     O_R   0.447820 0.038100 0.090220 -0.514964
O3    O     O_R   0.462030 0.052220 0.909860 -0.506247
O4    O     O_R   0.090150 0.052180 0.642350 -0.497722
O5    O     O_R   0.357640 0.947890 0.909900 -0.474011
O6    O     O_R   0.552180 0.962000 0.909880 -0.502274
O7    O     O_R   0.447790 0.857670 0.909930 -0.502857
O8    O     O_R   0.642360 0.052210 0.090200 -0.510797
O9    O     O_R   0.537970 0.947880 0.090240 -0.518527
O10   O     O_R   0.090200 0.037990 0.447830 -0.518421
O11   O     O_R   0.090160 0.142360 0.552180 -0.464943
O12   O     O_R   0.552160 0.590170 0.642390 -0.506601
O13   O     O_R   0.909850 0.947820 0.357650 -0.508689
O14   O     O_R   0.909810 0.052190 0.462000 -0.525486
O15   O     O_R   0.909840 0.857640 0.447820 -0.515126
O16   O     O_R   0.909800 0.962010 0.552170 -0.509900
O17   O     O_R   0.447790 0.590200 0.538040 -0.508336
O18   O     O_R   0.357620 0.409850 0.447860 -0.513628
O19   O     O_R   0.461990 0.409820 0.552210 -0.502555
O20   O     O_R   0.447810 0.409860 0.357690 -0.508994
O21   O     O_R   0.552180 0.409830 0.462050 -0.512070
O22   O     O_R   0.537970 0.590210 0.447870 -0.511526
O23   O     O_R   0.642350 0.590180 0.552220 -0.506915
O24   O     O_R   0.552210 0.142430 0.090170 -0.519535

loop_
_geom_bond_atom_site_label_1
_geom_bond_atom_site_label_2
_ccdc_geom_bond_type
C66   C68   A    
C63   C65   S    
C27   C29   A    
C59   H18   S    
Cu3   Cu4   S    
C23   C69   A    
C40   H37   S    
C35   C36   S    
C18   C26   S    
C7    C70   A    
C57   C62   A    
C53   C54   S    
C27   C33   A    
C12   C68   A    
C29   C30   A    
C28   O16   A    
C7    C45   S    
C21   C22   A    
C68   H31   S    
C30   C31   A    
C50   H14   S    
C22   C41   S    
Cu3   O20   S    
C23   H24   S    
C2    H26   S    
C37   O12   A    
C18   C19   A    
C1    O1    A    
C16   O13   A    
C11   H33   S    
C1    O4    A    
C65   H30   S    
C41   O22   A    
C35   H27   S    
C15   F3    S    
Cu3   O17   S    
C45   C56   A    
C8    C9    A    
C42   O24   A    
C25   H3    S    
C37   O17   A    
C6    H23   S    
C49   H13   S    
C9    C10   A    
C43   O3    A    
C54   H15   S    
C47   C53   A    
C36   H11   S    
C39   O20   A    
C59   C60   A    
C34   C38   S    
C13   C14   A    
Cu6   O7    S    
C66   H20   S    
C63   H21   S    
C20   H36   S    
C25   C26   S    
Cu2   O14   S    
Cu4   O19   S    
C39   O21   A    
C44   O7    A    
C4    O10   A    
Cu5   O6    S    
C21   H2    S    
C46   O9    A    
Cu2   O11   S    
C1    C9    S    
C24   C25   S    
C52   C64   A    
C3    C5    A    
C16   C29   S    
C40   C52   A    
C39   C58   S    
C44   O6    A    
C26   F4    S    
C28   O15   A    
C54   H28   S    
C60   C61   A    
C67   C69   A    
C64   C66   A    
C12   C40   A    
Cu5   Cu6   S    
C41   O23   A    
C62   C63   S    
Cu5   O24   S    
Cu2   O16   S    
C47   C48   A    
Cu3   O18   S    
C26   H5    S    
C23   C34   A    
C12   F1    S    
C55   H16   S    
C3    H1    S    
C25   H4    S    
C50   C51   A    
C34   C45   A    
Cu6   O2    S    
C64   C69   S    
C37   C48   S    
C19   C28   S    
C42   C61   S    
C6    C7    A    
C10   H32   S    
C35   H8    S    
C44   C51   S    
C48   C49   A    
Cu4   O23   S    
C38   O18   A    
Cu4   O12   S    
C70   H25   S    
C18   C24   A    
Cu1   O10   S    
C65   H22   S    
C43   O5    A    
C13   C43   S    
C17   H34   S    
C47   C55   S    
C36   H9    S    
C15   C17   S    
C54   C55   S    
C8    C14   A    
C31   H7    S    
Cu2   O4    S    
Cu5   O3    S    
Cu6   O5    S    
C32   C46   S    
C46   O8    A    
C31   C32   A    
C57   C65   S    
C60   H19   S    
Cu1   O15   S    
C4    C67   S    
C5    H12   S    
C4    O11   A    
Cu3   O22   S    
C27   C36   S    
C56   C67   A    
Cu4   O21   S    
C8    C17   S    
Cu1   O1    S    
Cu5   O8    S    
C32   C33   A    
C19   C20   A    
C2    C3    A    
C58   C59   A    
Cu1   Cu2   S    
C11   C13   A    
C42   O2    A    
C57   C58   A    
C5    C6    A    
C63   H29   S    
C55   H17   S    
C33   C35   S    
C38   O19   A    
C56   F5    S    
C22   C24   A    
C61   C62   A    
C16   O14   A    
C10   C11   A    
Cu1   O13   S    
C15   F2    S    
C20   C21   A    
C49   C50   A    
Cu6   O9    S    
C14   C15   S    
C52   H10   S    
C51   C53   A    
C30   H6    S    
C2    C70   A    
C17   H35   S    
