data_mof_unit_29457.cif
_audit_creation_date              2012-12-10T20:07:05-0500
_audit_creation_method            fapswitch 2.2
_symmetry_space_group_name_H-M    P1
_symmetry_Int_Tables_number       1
_space_group_crystal_system       triclinic
_cell_length_a                    19.124604
_cell_length_b                    18.416612
_cell_length_c                    10.594409
_cell_angle_alpha                 90.582423
_cell_angle_beta                  91.351016
_cell_angle_gamma                 89.644636
_cell_volume                      3730.16476702

loop_
_atom_site_label
_atom_site_type_symbol
_atom_type_description
_atom_site_fract_x
_atom_site_fract_y
_atom_site_fract_z
_atom_type_partial_charge
C1    C     C_R   0.365177 0.500165 0.497517 0.847902
C2    C     C_R   0.634558 0.499719 0.496279 0.854303
C3    C     C_R   0.708633 0.498854 0.470013 -0.034910
C4    C     C_R   0.289546 0.500487 0.479020 -0.039103
C5    C     C_R   0.959943 0.560860 0.444236 -0.182329
C6    C     C_R   0.034861 0.441419 0.352380 -0.187000
C7    C     C_R   0.032257 0.561381 0.449794 -0.184012
C8    C     C_R   0.962167 0.440595 0.348171 -0.189689
C9    C     C_R   0.070201 0.501182 0.406035 0.109761
C10   C     C_R   0.924676 0.499872 0.396179 0.105678
C11   C     C_R   0.552737 0.726303 0.561721 0.429082
C12   C     C_R   0.445764 0.274023 0.442701 0.416588
C13   C     C_R   0.448286 0.725364 0.434317 0.452845
C14   C     C_R   0.554081 0.274202 0.557991 0.426938
C15   C     C_R   0.553334 0.803579 0.561201 0.274100
C16   C     C_R   0.442034 0.197054 0.451732 0.296665
C17   C     C_R   0.447411 0.802325 0.430342 0.296211
C18   C     C_R   0.558082 0.197098 0.549086 0.295260
C19   C     C_R   0.500767 0.841724 0.494233 -0.254419
C20   C     C_R   0.500166 0.158164 0.500247 -0.228530
C21   C     C_R   0.548843 0.961375 0.425344 -0.176331
C22   C     C_R   0.452949 0.037941 0.571759 -0.141363
C23   C     C_R   0.452602 0.961691 0.569358 -0.186549
C24   C     C_R   0.548296 0.037602 0.425873 -0.151221
C25   C     C_R   0.500494 0.076843 0.499390 0.302727
C26   C     C_R   0.500626 0.922745 0.496273 0.263285
C27   C     C_R   0.512040 0.499440 0.261409 0.863767
C28   C     C_R   0.490434 0.500501 0.740205 0.875812
C29   C     C_R   0.554593 0.628433 0.115317 -0.370896
C30   C     C_R   0.456359 0.369620 0.888517 -0.378434
C31   C     C_R   0.473282 0.636096 0.895444 -0.336732
C32   C     C_R   0.537638 0.364307 0.108582 -0.381424
C33   C     C_R   0.541972 0.697195 0.059925 0.493015
C34   C     C_R   0.471170 0.301577 0.943794 0.479497
C35   C     C_R   0.496065 0.701156 0.954865 0.502170
C36   C     C_R   0.517291 0.298449 0.048501 0.469755
C37   C     C_R   0.493014 0.567532 0.943473 0.025680
C38   C     C_R   0.516273 0.432163 0.059639 0.033715
C39   C     C_R   0.525006 0.564710 0.062480 0.024501
C40   C     C_R   0.484207 0.434440 0.940622 0.022173
C41   C     C_R   0.481330 0.501511 0.876694 -0.163061
C42   C     C_R   0.526024 0.498080 0.126608 -0.155086
C43   C     C_R   0.749827 0.438172 0.500941 -0.191255
C44   C     C_R   0.255796 0.563559 0.435891 -0.189310
C45   C     C_R   0.251279 0.436668 0.494638 -0.176398
C46   C     C_R   0.737280 0.556685 0.404008 -0.226046
C47   C     C_R   0.820098 0.436856 0.470848 -0.185159
C48   C     C_R   0.184813 0.562869 0.407496 -0.193218
C49   C     C_R   0.179765 0.436328 0.468384 -0.184663
C50   C     C_R   0.807403 0.555463 0.374302 -0.178661
C51   C     C_R   0.849253 0.496092 0.409368 0.121877
C52   C     C_R   0.146174 0.499537 0.424711 0.121829
H1    H     H_    0.587535 0.623210 0.199039 0.168926
H2    H     H_    0.423108 0.372281 0.804865 0.180760
H3    H     H_    0.438908 0.638698 0.813373 0.179501
H4    H     H_    0.570906 0.363475 0.192334 0.183156
H5    H     H_    0.728023 0.392541 0.549969 0.179477
H6    H     H_    0.284225 0.613164 0.421621 0.210516
H7    H     H_    0.276485 0.387290 0.527536 0.162830
H8    H     H_    0.705374 0.602489 0.374374 0.135225
H9    H     H_    0.852243 0.391050 0.499809 0.130290
H10   H     H_    0.160090 0.611955 0.372271 0.134735
H11   H     H_    0.150598 0.387220 0.484643 0.125472
H12   H     H_    0.829358 0.601236 0.325827 0.129896
H13   H     H_    0.931529 0.606471 0.483769 0.132443
H14   H     H_    0.063380 0.394924 0.316464 0.129187
H15   H     H_    0.058308 0.607470 0.493858 0.132590
H16   H     H_    0.935190 0.393304 0.310402 0.130331
H17   H     H_    0.586152 0.932387 0.367958 0.145792
H18   H     H_    0.416504 0.066490 0.631240 0.140324
H19   H     H_    0.415397 0.932953 0.625646 0.144317
H20   H     H_    0.584736 0.065889 0.367635 0.133677
N1    N     N_R   0.500000 0.689440 0.500000 -0.217262
N2    N     N_R   0.500000 0.310560 0.500000 -0.203722
O1    O     O_R   0.398180 0.560840 0.499970 -0.576395
O2    O     O_R   0.601820 0.439160 0.500030 -0.570890
O3    O     O_R   0.601820 0.560840 0.500030 -0.590868
O4    O     O_R   0.398180 0.439160 0.499970 -0.571351
O5    O     O_R   0.499990 0.560810 0.316770 -0.602828
O6    O     O_R   0.500010 0.439190 0.683230 -0.594749
O7    O     O_R   0.500010 0.560810 0.683230 -0.579625
O8    O     O_R   0.499990 0.439190 0.316770 -0.596721
Zn1   Zn    Zn3+2 0.500000 0.581210 0.500000 1.003080
Zn2   Zn    Zn3+2 0.500000 0.418790 0.500000 1.006540
O9    O     O_3   0.534979 0.229329 0.092711 -0.567375
C53   C     C_3   0.594655 0.228130 0.173392 -0.333723
H21   H     H_    0.581789 0.249388 0.268635 0.145269
H22   H     H_    0.639133 0.257902 0.132573 0.156370
H23   H     H_    0.611613 0.170850 0.185136 0.191756
O10   O     O_3   0.479474 0.770297 0.910137 -0.603134
C54   C     C_3   0.413950 0.773932 0.846450 -0.380028
H24   H     H_    0.372655 0.744694 0.897743 0.158650
H25   H     H_    0.418266 0.753638 0.747785 0.173180
H26   H     H_    0.397672 0.831755 0.841114 0.196181
O11   O     O_3   0.448778 0.235758 0.891209 -0.566900
C55   C     C_3   0.381477 0.240517 0.834297 -0.348643
H27   H     H_    0.384658 0.262338 0.737227 0.154406
H28   H     H_    0.344643 0.273115 0.892247 0.152264
H29   H     H_    0.359808 0.184921 0.825580 0.192831
O12   O     O_3   0.568055 0.763254 0.106785 -0.590877
C56   C     C_3   0.613406 0.756900 0.212924 -0.364718
H30   H     H_    0.660396 0.723777 0.190410 0.168186
H31   H     H_    0.585440 0.734965 0.294735 0.142435
H32   H     H_    0.631806 0.811928 0.240540 0.196989
O13   O     O_3   0.600937 0.686900 0.633322 -0.560944
C57   C     C_3   0.669923 0.700534 0.595151 -0.201647
H33   H     H_    0.693660 0.744808 0.653096 0.191467
H34   H     H_    0.673519 0.712857 0.492689 0.115761
H35   H     H_    0.702064 0.651324 0.613738 0.172779
O14   O     O_3   0.392655 0.314077 0.385160 -0.585698
C58   C     C_3   0.381749 0.293055 0.257514 -0.187642
H36   H     H_    0.329095 0.268613 0.245758 0.171280
H37   H     H_    0.421035 0.253987 0.220490 0.192459
H38   H     H_    0.382878 0.342328 0.198202 0.161624
O15   O     O_3   0.393682 0.685251 0.382410 -0.573586
C59   C     C_3   0.387587 0.694396 0.250452 -0.213283
H39   H     H_    0.434425 0.718209 0.207389 0.143285
H40   H     H_    0.341218 0.728803 0.227960 0.182886
H41   H     H_    0.378846 0.640446 0.205450 0.164759
O16   O     O_3   0.606372 0.314441 0.617537 -0.591567
C60   C     C_3   0.615555 0.294576 0.745480 -0.198080
H42   H     H_    0.666577 0.266307 0.758395 0.173649
H43   H     H_    0.573673 0.259382 0.782142 0.189737
H44   H     H_    0.617059 0.344736 0.804377 0.164055
O17   O     O_3   0.606558 0.842200 0.621110 -0.619722
C61   C     C_3   0.590974 0.850657 0.749710 -0.156519
H45   H     H_    0.595495 0.797940 0.799354 0.219347
H46   H     H_    0.538358 0.875472 0.762785 0.182593
H47   H     H_    0.629924 0.887887 0.794147 0.172004
O18   O     O_3   0.384941 0.159128 0.403276 -0.576058
C62   C     C_3   0.327097 0.171125 0.481413 -0.300957
H48   H     H_    0.304585 0.226286 0.468167 0.187378
H49   H     H_    0.340490 0.162654 0.582939 0.128830
H50   H     H_    0.285787 0.131526 0.454429 0.186625
O19   O     O_3   0.390964 0.837472 0.372954 -0.580772
C63   C     C_3   0.412142 0.873122 0.262596 -0.270858
H51   H     H_    0.369810 0.867896 0.189746 0.177855
H52   H     H_    0.460741 0.850423 0.220797 0.183967
H53   H     H_    0.418987 0.931932 0.282508 0.195672
O20   O     O_3   0.615362 0.159209 0.597289 -0.570980
C64   C     C_3   0.673383 0.170702 0.520043 -0.294357
H54   H     H_    0.696174 0.225324 0.536793 0.187997
H55   H     H_    0.660162 0.163324 0.417893 0.122409
H56   H     H_    0.714416 0.130138 0.544858 0.187144

loop_
_geom_bond_atom_site_label_1
_geom_bond_atom_site_label_2
_ccdc_geom_bond_type
C38   C40   A    
C21   C26   A    
C56   H30   S    
C49   H11   S    
C12   N2    A    
C50   H12   S    
C14   C18   A    
O11   C55   S    
O6    Zn2   S    
C62   H50   S    
O2    Zn2   S    
C6    C9    A    
C12   O14   S    
O19   C63   S    
O9    C53   S    
C15   C19   A    
C30   H2    S    
C3    C43   A    
C61   H45   S    
C6    H14   S    
C29   H1    S    
C32   C36   A    
C38   C42   A    
C27   O5    A    
C64   H55   S    
C53   H22   S    
C20   C25   S    
O3    Zn1   S    
O15   C59   S    
C55   H29   S    
C29   C33   A    
C28   C41   S    
C59   H39   S    
C23   C26   A    
C19   C26   S    
O14   C58   S    
C60   H44   S    
C17   C19   A    
C11   C15   A    
C12   C16   A    
C44   H6    S    
C22   C25   A    
C55   H28   S    
C11   O13   S    
C32   C38   A    
C16   O18   S    
C18   C20   A    
C56   H31   S    
C1    O4    A    
C9    C52   S    
C63   H53   S    
C10   C51   S    
C22   H18   S    
O7    Zn1   S    
C39   C42   A    
C4    C45   A    
O20   C64   S    
C30   C34   A    
C1    O1    A    
C23   H19   S    
C24   C25   A    
C5    H13   S    
C11   N1    A    
C64   H56   S    
C54   H24   S    
C5    C7    A    
C53   H21   S    
C6    C8    A    
C4    C44   A    
C61   H47   S    
C31   C37   A    
C21   H17   S    
C17   O19   S    
C54   H25   S    
C48   H10   S    
C45   C49   A    
C16   C20   A    
C49   C52   A    
C55   H27   S    
C29   C39   A    
C50   C51   A    
C30   C40   A    
C58   H37   S    
C57   H33   S    
C34   O11   S    
C18   O20   S    
C60   H42   S    
C13   O15   S    
C63   H52   S    
C40   C41   A    
C13   N1    A    
C8    H16   S    
C56   H32   S    
C14   O16   S    
O17   C61   S    
C31   C35   A    
C62   H48   S    
C14   N2    A    
C2    O2    A    
O16   C60   S    
C24   H20   S    
C7    C9    A    
C45   H7    S    
C61   H46   S    
C58   H36   S    
C46   H8    S    
C28   O7    A    
C27   O8    A    
N2    Zn2   S    
C63   H51   S    
C62   H49   S    
C53   H23   S    
C47   H9    S    
C47   C51   A    
C36   O9    S    
O13   C57   S    
C46   C50   A    
C3    C46   A    
O8    Zn2   S    
C59   H41   S    
C13   C17   A    
C1    C4    S    
C33   O12   S    
O18   C62   S    
C5    C10   A    
C37   C39   A    
C2    O3    A    
C64   H54   S    
C54   H26   S    
O5    Zn1   S    
C27   C42   S    
O1    Zn1   S    
O10   C54   S    
C57   H34   S    
O12   C56   S    
C33   C35   A    
C59   H40   S    
C2    C3    S    
C58   H38   S    
C34   C36   A    
C37   C41   A    
C28   O6    A    
C60   H43   S    
C43   H5    S    
C7    H15   S    
C35   O10   S    
O4    Zn2   S    
C48   C52   A    
C8    C10   A    
C15   O17   S    
C21   C24   A    
C22   C23   A    
C31   H3    S    
C43   C47   A    
N1    Zn1   S    
C32   H4    S    
C44   C48   A    
C57   H35   S    
