data_mof_unit_12679.cif
_audit_creation_date              2012-12-10T17:45:35-0500
_audit_creation_method            fapswitch 2.2
_symmetry_space_group_name_H-M    P1
_symmetry_Int_Tables_number       1
_space_group_crystal_system       triclinic
_cell_length_a                    11.520308
_cell_length_b                    10.701063
_cell_length_c                    9.945969
_cell_angle_alpha                 92.150282
_cell_angle_beta                  89.189658
_cell_angle_gamma                 92.553171
_cell_volume                      1223.95928948

loop_
_atom_site_label
_atom_site_type_symbol
_atom_type_description
_atom_site_fract_x
_atom_site_fract_y
_atom_site_fract_z
_atom_type_partial_charge
C1    C     C_R   0.512181 0.261651 0.497884 0.947182
C2    C     C_R   0.491695 0.875235 0.510921 -0.067939
C3    C     C_R   0.374085 0.314628 0.140012 -0.206300
C4    C     C_R   0.282267 0.502700 0.500601 0.918726
C5    C     C_R   0.335420 0.204580 0.075265 -0.439975
C6    C     C_R   0.339058 0.194309 0.934698 0.485185
C7    C     C_R   0.367879 0.303991 0.864597 0.509518
C8    C     C_R   0.435746 0.405908 0.927191 -0.125011
C9    C     C_R   0.437355 0.407697 0.071323 0.088729
C10   C     C_R   0.563169 0.586313 0.073847 -0.193494
C11   C     C_R   0.566346 0.584418 0.930028 0.577434
C12   C     C_R   0.633162 0.083712 0.843113 -0.398088
C13   C     C_R   0.494865 0.740461 0.503416 0.842806
C14   C     C_R   0.717950 0.502480 0.499259 0.925592
C15   C     C_1   0.162016 0.509056 0.500973 -0.213442
C16   C     C_1   0.059868 0.512128 0.499814 -0.027120
C17   C     C_1   0.941092 0.511721 0.498189 -0.031302
C18   C     C_1   0.838675 0.508230 0.497794 -0.198643
C19   C     C_R   0.631149 0.133164 0.715307 0.494531
C20   C     C_3   0.264349 0.984890 0.933293 -0.337130
C21   C     C_3   0.193791 0.329032 0.765077 -0.263675
C22   C     C_3   0.752137 0.656369 0.887002 -0.302879
C23   C     C_R   0.574193 0.968823 0.868575 0.558689
C24   C     C_3   0.807348 0.203358 0.640408 -0.370298
C25   C     C_3   0.655039 0.954028 0.081724 -0.331031
C26   C     C_R   0.519675 0.902899 0.761074 -0.136853
C27   C     C_R   0.524684 0.947431 0.628608 -0.044383
C28   C     C_R   0.563719 0.071361 0.612111 -0.012069
C29   C     C_R   0.529944 0.129863 0.494622 -0.078219
C30   C     C_R   0.488854 0.060045 0.382972 -0.246958
C31   C     C_R   0.473501 0.933106 0.389736 -0.205692
H1    H     H_    0.465606 0.103556 0.291283 0.183140
H2    H     H_    0.243712 0.904729 0.862421 0.189168
H3    H     H_    0.178593 0.424930 0.806627 0.149989
H4    H     H_    0.151361 0.258958 0.831723 0.159304
H5    H     H_    0.149008 0.315775 0.667511 0.175882
H6    H     H_    0.804746 0.712501 0.814856 0.184688
H7    H     H_    0.775519 0.691929 0.989892 0.141696
H8    H     H_    0.776029 0.557028 0.871366 0.170055
H9    H     H_    0.798567 0.162339 0.536408 0.162837
H10   H     H_    0.848490 0.136494 0.706448 0.163592
H11   H     H_    0.867073 0.287140 0.636457 0.197517
H12   H     H_    0.679655 0.137327 0.921109 0.165856
H13   H     H_    0.644405 0.050446 0.124084 0.172913
H14   H     H_    0.741102 0.945096 0.030724 0.159133
H15   H     H_    0.652675 0.890708 0.167529 0.191534
H16   H     H_    0.468409 0.820081 0.785954 0.197429
H17   H     H_    0.445312 0.880470 0.299902 0.186217
H18   H     H_    0.613080 0.657698 0.130372 0.163812
H19   H     H_    0.353325 0.323723 0.244305 0.238537
H20   H     H_    0.296896 0.131917 0.136402 0.175259
H21   H     H_    0.184111 0.003093 0.992882 0.158143
H22   H     H_    0.335584 0.956793 0.998395 0.203668
N1    N     N_R   0.498930 0.498800 0.142780 -0.122263
N2    N     N_R   0.498900 0.498720 0.857170 -0.136120
O1    O     O_R   0.500000 0.316780 0.614690 -0.531648
O2    O     O_3   0.314460 0.313393 0.743033 -0.546706
O3    O     O_3   0.633609 0.671952 0.861669 -0.580241
O4    O     O_3   0.698820 0.240096 0.691743 -0.590078
O5    O     O_3   0.562467 0.917764 0.995320 -0.608448
O6    O     O_R   0.499990 0.316750 0.385360 -0.665266
O7    O     O_R   0.334450 0.500030 0.614670 -0.566065
O8    O     O_R   0.334440 0.500000 0.385330 -0.636036
O9    O     O_R   0.500010 0.683250 0.614640 -0.606674
O10   O     O_R   0.500000 0.683220 0.385310 -0.624473
O11   O     O_R   0.665560 0.500000 0.614670 -0.555648
O12   O     O_R   0.665550 0.499970 0.385330 -0.624557
O13   O     O_3   0.298376 0.089549 0.857719 -0.588495
Zn1   Zn    Zn3+2 0.500010 0.500020 0.653130 1.039041
Zn2   Zn    Zn3+2 0.499990 0.499980 0.346870 0.935417

loop_
_geom_bond_atom_site_label_1
_geom_bond_atom_site_label_2
_ccdc_geom_bond_type
O6    Zn2   S    
C22   O3    S    
C14   O12   A    
C21   O2    S    
C6    C7    A    
C3    C9    A    
C25   O5    S    
C25   H14   S    
C11   O3    S    
C24   H11   S    
C14   C18   S    
C21   H3    S    
N1    Zn2   S    
O8    Zn2   S    
O12   Zn2   S    
N2    Zn1   S    
C4    C15   S    
C6    O13   S    
C17   C18   T    
C14   O11   A    
C7    C8    A    
C20   H21   S    
C21   H5    S    
C13   O10   A    
C2    C27   A    
C30   H1    S    
C19   C28   A    
C22   H6    S    
C12   C23   A    
C26   C27   A    
C29   C30   A    
C13   O9    A    
C24   H10   S    
C26   H16   S    
C24   O4    S    
C21   H4    S    
C22   H8    S    
C12   C19   A    
C1    C29   S    
C28   C29   A    
C24   H9    S    
C1    O1    A    
C8    N2    A    
C12   H12   S    
C31   H17   S    
C23   O5    S    
C30   C31   A    
C10   N1    A    
C7    O2    S    
O11   Zn1   S    
C16   C17   S    
C10   C11   A    
C20   H2    S    
C15   C16   T    
C4    O8    A    
C4    O7    A    
C11   N2    A    
C25   H13   S    
C8    C9    A    
C3    H19   S    
O1    Zn1   S    
C23   C26   A    
C27   C28   A    
C5    C6    A    
C2    C13   S    
C2    C31   A    
C9    N1    A    
C19   O4    S    
O9    Zn1   S    
C10   H18   S    
C25   H15   S    
C20   O13   S    
C5    H20   S    
O10   Zn2   S    
O7    Zn1   S    
C1    O6    A    
C20   H22   S    
C3    C5    A    
C22   H7    S    
