data_mof_unit_39982.cif
_audit_creation_date              2013-03-05T15:50:10-0500
_audit_creation_method            fapswitch 2.2
_symmetry_space_group_name_H-M    P1
_symmetry_Int_Tables_number       1
_space_group_crystal_system       triclinic
_cell_length_a                    20.025961
_cell_length_b                    6.876069
_cell_length_c                    18.177925
_cell_angle_alpha                 90.001323
_cell_angle_beta                  104.200138
_cell_angle_gamma                 89.994777
_cell_volume                      2426.61548544

loop_
_atom_site_label
_atom_site_type_symbol
_atom_site_description
_atom_site_fract_x
_atom_site_fract_y
_atom_site_fract_z
_atom_type_partial_charge
O1    O     O_R   0.312200 0.620210 0.189560 -0.588428
O2    O     O_R   0.687800 0.379790 0.810440 -0.588697
O3    O     O_R   0.187800 0.120210 0.310440 -0.588426
O4    O     O_R   0.812200 0.879790 0.689560 -0.588869
O5    O     O_R   0.171590 0.286140 0.165000 -0.590372
O6    O     O_R   0.828410 0.713860 0.835000 -0.590251
O7    O     O_R   0.328410 0.786140 0.335000 -0.590372
O8    O     O_R   0.671590 0.213860 0.665000 -0.590193
C1    C     C_R   0.145651 0.459534 0.143813 1.010066
C2    C     C_R   0.854351 0.540466 0.856184 1.007715
C3    C     C_R   0.354349 0.959526 0.356187 1.010017
C4    C     C_R   0.645648 0.040475 0.643817 1.007576
O9    O     O_R   0.310670 0.290220 0.180540 -0.562419
O10   O     O_R   0.689330 0.709780 0.819460 -0.560419
O11   O     O_R   0.189330 0.790220 0.319460 -0.562492
O12   O     O_R   0.810670 0.209780 0.680540 -0.560559
O13   O     O_R   0.327870 0.124170 0.326080 -0.577388
O14   O     O_R   0.672130 0.875830 0.673920 -0.577561
O15   O     O_R   0.172130 0.624170 0.173920 -0.577356
O16   O     O_R   0.827870 0.375830 0.826080 -0.577254
C5    C     C_R   0.333232 0.458632 0.166499 1.004527
C6    C     C_R   0.666817 0.541315 0.833508 1.003337
C7    C     C_R   0.166766 0.958648 0.333498 1.004665
C8    C     C_R   0.833182 0.041288 0.666493 1.003901
O17   O     O_3   0.255480 0.455050 0.297740 -0.262997
O18   O     O_3   0.744520 0.544950 0.702260 -0.263388
O19   O     O_3   0.244520 0.955050 0.202260 -0.262955
O20   O     O_3   0.755480 0.044950 0.797740 -0.263060
V1    V     V_3+5 0.248980 0.178550 0.241140 1.287264
V2    V     V_3+5 0.751020 0.821450 0.758860 1.288344
V3    V     V_3+5 0.251020 0.678550 0.258860 1.287220
V4    V     V_3+5 0.748980 0.321450 0.741140 1.288372
C9    C     C_R   0.937633 0.170314 0.627052 0.437356
C10   C     C_R   0.063631 0.826292 0.374828 0.420507
C11   C     C_R   0.562440 0.670541 0.873060 0.437862
C12   C     C_R   0.436384 0.326275 0.125183 0.420968
C13   C     C_R   0.883832 0.033015 0.618837 -0.323707
C14   C     C_R   0.116336 0.966523 0.381517 -0.330916
C15   C     C_R   0.616217 0.533150 0.881228 -0.323704
C16   C     C_R   0.383656 0.466472 0.118475 -0.330783
C17   C     C_R   0.877453 0.886291 0.564816 -0.058367
C18   C     C_R   0.121845 0.115676 0.434436 -0.045698
C19   C     C_R   0.622602 0.386407 0.935239 -0.058755
C20   C     C_R   0.378141 0.615626 0.065559 -0.045747
C21   C     C_R   0.923116 0.871650 0.517576 -0.008981
C22   C     C_R   0.077305 0.127741 0.483081 -0.008730
C23   C     C_R   0.576924 0.371704 0.982462 -0.008504
C24   C     C_R   0.422743 0.627850 0.016991 -0.008554
C25   C     C_R   0.977433 0.007459 0.524771 0.010690
C26   C     C_R   0.023412 0.990833 0.476465 0.022223
C27   C     C_R   0.522643 0.507640 0.975325 0.010659
C28   C     C_R   0.476643 0.490941 0.023603 0.022201
C29   C     C_R   0.985523 0.159422 0.580075 -0.136581
C30   C     C_R   0.015671 0.837780 0.421634 -0.125821
C31   C     C_R   0.514631 0.659869 0.920135 -0.136108
C32   C     C_R   0.484348 0.337765 0.078378 -0.125311
C33   C     C_R   0.914175 0.723677 0.462533 0.226547
C34   C     C_R   0.086325 0.275986 0.538115 0.225542
C35   C     C_R   0.585823 0.223569 0.037440 0.226502
C36   C     C_R   0.413824 0.776413 0.962100 0.226029
C37   C     C_R   0.960074 0.704113 0.415747 0.353617
C38   C     C_R   0.041506 0.292096 0.586437 0.359997
C39   C     C_R   0.539905 0.203960 0.084203 0.353600
C40   C     C_R   0.458817 0.793061 0.914001 0.359625
H1    H     H_    0.835277 0.784398 0.559272 0.177183
H2    H     H_    0.162485 0.221626 0.437959 0.180403
H3    H     H_    0.664773 0.284492 0.940755 0.177388
H4    H     H_    0.337482 0.721553 0.062017 0.180306
C41   C     C_1   0.583141 0.027464 0.581615 -0.220582
C42   C     C_1   0.416851 0.972537 0.418396 -0.220154
C43   C     C_1   0.916857 0.527444 0.918386 -0.220246
C44   C     C_1   0.083150 0.472557 0.081605 -0.220125
C45   C     C_1   0.530836 0.010881 0.530205 0.124845
C46   C     C_1   0.469154 0.989118 0.469809 0.125311
C47   C     C_1   0.969163 0.510871 0.969796 0.124723
C48   C     C_1   0.030846 0.489128 0.030192 0.125241
N1    N     N_R   0.943161 0.316585 0.684315 0.254078
O21   O     O_R   0.965133 0.269313 0.755500 -0.371567
O22   O     O_R   0.914374 0.485541 0.666520 -0.345262
N2    N     N_R   0.058510 0.678116 0.318423 0.254456
O23   O     O_R   0.090154 0.513198 0.336485 -0.363661
O24   O     O_R   0.033516 0.720662 0.247242 -0.367435
N3    N     N_R   0.556666 0.816147 0.815519 0.253841
O25   O     O_R   0.533692 0.768501 0.744513 -0.370552
O26   O     O_R   0.586098 0.984472 0.832690 -0.344747
N4    N     N_R   0.441546 0.178196 0.181630 0.254382
O27   O     O_R   0.409813 0.013374 0.163664 -0.363312
O28   O     O_R   0.466690 0.220783 0.252781 -0.367380
N5    N     N_R   0.856572 0.593663 0.452204 0.258232
O29   O     O_R   0.858088 0.448308 0.498292 -0.379417
O30   O     O_R   0.804083 0.614962 0.394323 -0.274421
N6    N     N_R   0.143327 0.408207 0.547292 0.264999
O31   O     O_R   0.205912 0.346125 0.574434 -0.314156
O32   O     O_R   0.132531 0.592289 0.532555 -0.350369
N7    N     N_R   0.643390 0.093395 0.047715 0.258096
O33   O     O_R   0.642043 0.948981 0.001233 -0.380020
O34   O     O_R   0.695730 0.113798 0.105842 -0.274092
N8    N     N_R   0.356767 0.908476 0.952863 0.265093
O35   O     O_R   0.294246 0.846435 0.925326 -0.313842
O36   O     O_R   0.367435 0.092257 0.968266 -0.350745
Cl1   Cl    Cl    0.943852 0.505103 0.351734 -0.456953
Cl2   Cl    Cl    0.062108 0.476942 0.656482 -0.433804
Cl3   Cl    Cl    0.555976 0.004510 0.148018 -0.457505
Cl4   Cl    Cl    0.438895 0.980084 0.844825 -0.435440

loop_
_geom_bond_atom_site_label_1
_geom_bond_atom_site_label_2
_geom_bond_distance
_ccdc_geom_bond_type
C34   C38   1.405768 A    
C4    C41   1.469349 S    
O1    C5    1.293837 A    
O19   V1    1.684710 S    
O13   V1    1.955226 S    
C45   C46   1.445072 S    
O3    C7    1.293825 A    
N7    O33   1.299809 A    
C1    C44   1.469337 S    
C44   C48   1.226074 T    
O15   V3    1.955267 S    
C3    C42   1.469353 S    
N1    O21   1.301668 A    
O7    C3    1.319649 A    
C21   C33   1.407311 A    
C26   C30   1.431502 A    
C33   N5    1.434957 S    
C13   C17   1.391718 A    
O9    V1    1.999300 S    
C14   C18   1.391868 A    
C36   N8    1.436691 S    
O4    C8    1.293089 A    
N4    O28   1.300994 A    
N8    O35   1.301072 A    
O1    V3    2.001511 S    
O2    V4    2.001508 S    
C18   C22   1.404040 A    
O3    V1    2.001563 S    
C42   C46   1.226084 T    
C12   C16   1.412729 A    
C10   N2    1.431183 S    
C1    O15   1.311460 A    
C2    O16   1.311460 A    
O2    C6    1.293184 A    
C41   C45   1.226082 T    
O14   V2    1.955224 S    
N5    O30   1.300282 A    
C16   C20   1.391839 A    
C2    C43   1.469334 S    
O11   C7    1.291132 A    
O12   C8    1.291160 A    
C22   C34   1.408491 A    
O17   V1    2.150454 S    
C35   N7    1.435011 S    
O10   V2    1.999297 S    
C24   C36   1.408407 A    
O5    V1    1.952507 S    
N1    O22   1.301951 A    
C9    C29   1.434013 A    
O7    V3    1.952590 S    
O19   V3    2.150475 S    
C27   C28   1.424307 A    
O8    V4    1.952592 S    
O20   V4    2.150474 S    
N2    O24   1.300990 A    
C11   N3    1.431970 S    
O18   V4    1.684725 S    
C15   C19   1.391695 A    
C12   N4    1.431189 S    
C11   C31   1.433988 A    
C9    C13   1.412674 A    
C37   Cl1   1.773872 S    
C11   C15   1.412683 A    
C47   C48   1.445057 S    
O5    C1    1.319630 A    
C12   C32   1.433064 A    
C29   C38   1.427958 A    
N3    O25   1.301402 A    
C21   C25   1.415168 A    
O8    C4    1.319651 A    
C31   C40   1.427998 A    
N6    O32   1.300850 A    
C8    C13   1.487823 S    
C32   C39   1.427434 A    
O9    C5    1.291113 A    
C33   C37   1.403488 A    
C39   Cl3   1.773945 S    
N3    O26   1.301646 A    
C10   C30   1.433016 A    
N8    O36   1.300627 A    
C20   H4    1.082494 S    
N4    O27   1.301233 A    
O16   V4    1.955266 S    
C40   Cl4   1.774264 S    
C3    O13   1.311453 A    
O6    V2    1.952509 S    
C10   C14   1.412711 A    
O17   V3    1.684725 S    
N2    O23   1.301204 A    
O6    C2    1.319629 A    
C23   C27   1.415200 A    
N7    O34   1.300552 A    
O11   V3    1.999190 S    
C30   C37   1.427428 A    
O12   V4    1.999193 S    
C7    C14   1.489037 S    
C22   C26   1.414911 A    
C35   C39   1.403537 A    
C36   C40   1.405684 A    
O10   C6    1.291091 A    
O20   V2    1.684710 S    
C43   C47   1.226072 T    
C9    N1    1.432048 S    
C5    C16   1.489021 S    
C19   C23   1.403250 A    
C25   C29   1.431365 A    
C6    C15   1.487842 S    
N6    O31   1.301150 A    
C27   C31   1.431400 A    
C17   H1    1.082935 S    
C23   C35   1.407369 A    
C28   C32   1.431499 A    
C24   C28   1.414892 A    
C19   H3    1.082903 S    
C25   C26   1.424303 A    
C4    O14   1.311452 A    
C18   H2    1.082465 S    
C17   C21   1.403215 A    
N5    O29   1.299729 A    
C34   N6    1.436739 S    
O4    V2    2.001566 S    
C20   C24   1.404006 A    
C38   Cl2   1.774605 S    
O18   V2    2.150454 S    
