data_mof_unit_9423.cif
_audit_creation_date              2012-12-10T20:02:29-0500
_audit_creation_method            fapswitch 2.2
_symmetry_space_group_name_H-M    P1
_symmetry_Int_Tables_number       1
_space_group_crystal_system       triclinic
_cell_length_a                    10.680391
_cell_length_b                    14.758549
_cell_length_c                    14.155683
_cell_angle_alpha                 90.409808
_cell_angle_beta                  90.094435
_cell_angle_gamma                 89.790721
_cell_volume                      2231.24399583

loop_
_atom_site_label
_atom_site_type_symbol
_atom_type_description
_atom_site_fract_x
_atom_site_fract_y
_atom_site_fract_z
_atom_type_partial_charge
C1    C     C_R   0.502582 0.327078 0.499750 0.875231
C2    C     C_R   0.521583 0.819839 0.419706 -0.206104
C3    C     C_R   0.527394 0.231251 0.499908 -0.047170
C4    C     C_R   0.534611 0.768821 0.501759 -0.063024
C5    C     C_R   0.617231 0.195752 0.437869 -0.257140
C6    C     C_R   0.586893 0.807515 0.583471 -0.228048
C7    C     C_R   0.652530 0.104830 0.443110 -0.021929
C8    C     C_R   0.621222 0.898461 0.585307 -0.009101
C9    C     C_R   0.591217 0.049522 0.509694 0.061658
C10   C     C_R   0.596945 0.951151 0.504314 0.091592
C11   C     C_R   0.403602 0.458425 0.104686 -0.259868
C12   C     C_R   0.505385 0.673072 0.500391 0.878894
C13   C     C_R   0.554516 0.571351 0.895331 -0.224579
C14   C     C_R   0.405618 0.458720 0.203978 0.027778
C15   C     C_R   0.553453 0.569967 0.796039 0.041792
C16   C     C_R   0.260010 0.501921 0.499880 0.882319
C17   C     C_R   0.739894 0.498145 0.500187 0.879538
C18   C     C_R   0.594896 0.541016 0.205087 0.036904
C19   C     C_R   0.447897 0.429574 0.794928 0.028682
C20   C     C_R   0.597402 0.541333 0.105802 -0.257403
C21   C     C_R   0.447818 0.427900 0.894192 -0.275039
C22   C     C_R   0.500673 0.499840 0.053374 0.121215
C23   C     C_R   0.872209 0.497191 0.500718 -0.058336
C24   C     C_R   0.501062 0.499684 0.946628 0.128833
C25   C     C_R   0.222290 0.756455 0.331366 -0.119040
C26   C     C_R   0.771337 0.248102 0.671929 -0.074387
C27   C     C_R   0.169940 0.694921 0.394069 -0.142291
C28   C     C_R   0.835434 0.304729 0.610464 -0.182778
C29   C     C_R   0.121893 0.611993 0.361283 0.042606
C30   C     C_R   0.875864 0.390657 0.640493 0.035128
C31   C     C_R   0.127625 0.590377 0.263248 0.006038
C32   C     C_R   0.851068 0.420196 0.734682 0.022006
C33   C     C_R   0.182593 0.653148 0.201550 -0.168079
C34   C     C_R   0.127534 0.503137 0.499760 -0.065387
C35   C     C_R   0.786220 0.361495 0.795376 -0.178490
C36   C     C_R   0.229426 0.735383 0.235442 -0.136075
C37   C     C_R   0.746533 0.276417 0.764065 -0.131849
C38   C     C_R   0.932427 0.548368 0.432239 -0.176789
C39   C     C_R   0.067148 0.452008 0.568503 -0.184992
C40   C     C_2   0.753592 0.070529 0.379822 0.893623
C41   C     C_2   0.681240 0.936066 0.671976 0.897782
C42   C     C_2   0.079424 0.503696 0.222826 0.848740
C43   C     C_2   0.887220 0.511439 0.771547 0.884555
C44   C     C_R   0.938546 0.448704 0.569879 0.056407
C45   C     C_R   0.060931 0.552079 0.431011 0.054483
C46   C     C_R   0.503055 0.086503 0.572514 -0.160717
C47   C     C_R   0.550376 0.910955 0.421522 -0.134798
C48   C     C_R   0.472726 0.177342 0.568634 -0.199531
H1    H     H_    0.271058 0.783041 0.187067 0.141890
H2    H     H_    0.407649 0.369991 0.929251 0.141908
H3    H     H_    0.256985 0.820815 0.357230 0.139873
H4    H     H_    0.740072 0.182380 0.647748 0.197919
H5    H     H_    0.165041 0.712480 0.468430 0.138932
H6    H     H_    0.852705 0.281912 0.538717 0.146991
H7    H     H_    0.190095 0.638564 0.126686 0.183716
H8    H     H_    0.764239 0.381734 0.867149 0.187136
H9    H     H_    0.879218 0.587143 0.380991 0.143738
H10   H     H_    0.120163 0.413397 0.619967 0.146523
H11   H     H_    0.454317 0.044062 0.622541 0.142664
H12   H     H_    0.695908 0.232453 0.811360 0.148901
H13   H     H_    0.530490 0.951271 0.359541 0.136083
H14   H     H_    0.404941 0.205225 0.617866 0.145426
H15   H     H_    0.485987 0.789983 0.355003 0.160509
H16   H     H_    0.663037 0.240159 0.388098 0.199324
H17   H     H_    0.603478 0.766173 0.645211 0.193562
H18   H     H_    0.857238 0.090139 0.262675 0.352222
H19   H     H_    0.714457 0.922731 0.811649 0.349571
H20   H     H_    0.028508 0.433578 0.105971 0.355812
H21   H     H_    0.899130 0.595627 0.884367 0.354025
H22   H     H_    0.325493 0.426813 0.068760 0.162082
H23   H     H_    0.595482 0.629006 0.931275 0.146727
H24   H     H_    0.331231 0.425990 0.242410 0.151332
H25   H     H_    0.595394 0.625194 0.757708 0.139084
H26   H     H_    0.669597 0.573308 0.244346 0.131119
H27   H     H_    0.406509 0.374070 0.755729 0.126243
H28   H     H_    0.675785 0.572805 0.070734 0.160315
N1    N     N_R   0.500000 0.499980 0.252470 -0.098213
N2    N     N_R   0.500000 0.500020 0.747530 -0.099506
O1    O     O_R   0.500010 0.369070 0.579480 -0.625364
O2    O     O_R   0.786773 0.119789 0.299668 -0.804585
O3    O     O_2   0.744129 0.004973 0.668060 -0.638450
O4    O     O_R   0.668621 0.891085 0.758096 -0.817024
O5    O     O_2   0.058445 0.438804 0.273544 -0.621751
O6    O     O_R   0.060286 0.495658 0.125323 -0.810861
O7    O     O_2   0.927955 0.569537 0.718824 -0.619690
O8    O     O_R   0.872911 0.531512 0.867710 -0.815091
O9    O     O_R   0.499990 0.630930 0.420520 -0.616401
O10   O     O_R   0.500010 0.369060 0.420520 -0.610654
O11   O     O_R   0.499990 0.630940 0.579480 -0.627371
O12   O     O_R   0.316760 0.500010 0.579480 -0.617596
O13   O     O_R   0.683240 0.499990 0.420520 -0.630472
O14   O     O_R   0.316760 0.500000 0.420520 -0.613002
O15   O     O_R   0.683240 0.500000 0.579480 -0.609167
O16   O     O_2   0.809821 0.000519 0.398350 -0.607777
Zn1   Zn    Zn3+2 0.500000 0.500010 0.606140 0.961466
Zn2   Zn    Zn3+2 0.500000 0.499990 0.393860 0.965019

loop_
_geom_bond_atom_site_label_1
_geom_bond_atom_site_label_2
_ccdc_geom_bond_type
C33   H7    S    
O10   Zn2   S    
C16   O12   A    
C31   C42   S    
C46   H11   S    
C27   C29   A    
C17   O13   A    
C11   H22   S    
O12   Zn1   S    
C17   C23   S    
C19   C21   A    
C11   C14   A    
C15   N2    A    
C3    C48   A    
O14   Zn2   S    
C33   C36   A    
C20   H28   S    
C14   N1    A    
C38   C45   A    
C16   C34   S    
O13   Zn2   S    
C6    H17   S    
C7    C40   S    
C40   O2    S    
C4    C12   S    
C9    C10   S    
C1    O10   A    
C9    C46   A    
C18   H26   S    
C30   C44   S    
C21   H2    S    
C46   C48   A    
C34   C39   A    
H20   O6    S    
C32   C35   A    
C12   O11   A    
C42   O6    S    
C8    C41   S    
C4    C6    A    
C5    C7    A    
C28   H6    S    
C6    C8    A    
C13   H23   S    
C39   H10   S    
C23   C44   A    
C13   C24   A    
C29   C45   S    
C1    C3    S    
C43   O7    D    
O11   Zn1   S    
C19   N2    A    
C2    C4    A    
C25   H3    S    
O1    Zn1   S    
C26   H4    S    
C38   H9    S    
C48   H14   S    
N2    Zn1   S    
C41   O3    D    
O9    Zn2   S    
C31   C33   A    
C34   C45   A    
C8    C10   A    
C15   H25   S    
C20   C22   A    
C16   O14   A    
C13   C15   A    
C1    O1    A    
C22   C24   S    
C17   O15   A    
C2    H15   S    
C7    C9    A    
N1    Zn2   S    
C12   O9    A    
C35   C37   A    
C35   H8    S    
C43   O8    S    
C14   H24   S    
C42   O5    D    
C40   O16   D    
C3    C5    A    
C47   H13   S    
C27   H5    S    
C26   C37   A    
C39   C44   A    
C2    C47   A    
C25   C27   A    
C23   C38   A    
H18   O2    S    
C11   C22   A    
C26   C28   A    
C19   H27   S    
C29   C31   A    
C30   C32   A    
C18   N1    A    
C41   O4    S    
C28   C30   A    
C32   C43   S    
C18   C20   A    
C37   H12   S    
H21   O8    S    
C25   C36   A    
C5    H16   S    
H19   O4    S    
O15   Zn1   S    
C21   C24   A    
C10   C47   A    
C36   H1    S    
