data_mof_unit_50085.cif
_audit_creation_date              2012-12-10T20:53:09-0500
_audit_creation_method            fapswitch 2.2
_symmetry_space_group_name_H-M    P1
_symmetry_Int_Tables_number       1
_space_group_crystal_system       triclinic
_cell_length_a                    18.33611
_cell_length_b                    18.381605
_cell_length_c                    18.308241
_cell_angle_alpha                 60.542396
_cell_angle_beta                  60.476413
_cell_angle_gamma                 60.444313
_cell_volume                      4411.46307679

loop_
_atom_site_label
_atom_site_type_symbol
_atom_type_description
_atom_site_fract_x
_atom_site_fract_y
_atom_site_fract_z
_atom_type_partial_charge
C1    C     C_R   0.389344 0.104072 0.115678 0.803995
C2    C     C_R   0.346870 0.809331 0.805187 -0.195924
C3    C     C_R   0.975000 0.592818 0.975220 0.080151
C4    C     C_R   0.406676 0.028064 0.022233 0.080364
C5    C     C_R   0.593276 0.974069 0.975676 0.085313
C6    C     C_R   0.938777 0.953657 0.553049 -0.135767
C7    C     C_R   0.034368 0.073138 0.443500 -0.160953
C8    C     C_R   0.932174 0.555757 0.961743 -0.164778
C9    C     C_R   0.068320 0.444005 0.038003 -0.164331
C10   C     C_R   0.556214 0.961791 0.931805 -0.167719
C11   C     C_R   0.443799 0.039269 0.067014 -0.166893
C12   C     C_3   0.074081 0.648541 0.505825 -0.761447
C13   C     C_R   0.196050 0.242261 0.592831 -0.226818
C14   C     C_3   0.914307 0.356414 0.511746 -0.757270
C15   C     C_3   0.650775 0.503595 0.073114 -0.778116
C16   C     C_3   0.355834 0.508180 0.916400 -0.739982
C17   C     C_3   0.502325 0.074665 0.650430 -0.772425
C18   C     C_3   0.508459 0.911178 0.361599 -0.746615
C19   C     C_3   0.266765 0.508298 0.393816 -0.826945
C20   C     C_3   0.685938 0.550664 0.690364 -0.789838
C21   C     C_3   0.509639 0.393627 0.264718 -0.828500
C22   C     C_3   0.451177 0.713635 0.678401 -0.818401
C23   C     C_3   0.394266 0.267239 0.507008 -0.823097
C24   C     C_R   0.808675 0.782097 0.377636 -0.188375
C25   C     C_3   0.688667 0.682145 0.458041 -0.834387
C26   C     C_R   0.201665 0.551890 0.284983 0.285506
C27   C     C_R   0.815844 0.425111 0.716621 0.298834
C28   C     C_R   0.553314 0.285235 0.199276 0.287086
C29   C     C_R   0.403926 0.721054 0.828093 0.287572
C30   C     C_R   0.286113 0.201456 0.551203 0.287099
C31   C     C_R   0.717625 0.815880 0.423856 0.289396
C32   C     C_R   0.108222 0.576033 0.320352 0.036822
C33   C     C_R   0.610666 0.896180 0.884016 0.796603
C34   C     C_R   0.905513 0.420511 0.680631 0.060540
C35   C     C_R   0.576977 0.320796 0.105812 0.037805
C36   C     C_R   0.416639 0.682679 0.911423 -0.007014
C37   C     C_R   0.321656 0.108231 0.576551 0.088078
C38   C     C_R   0.681503 0.904967 0.420259 -0.001270
C39   C     C_R   0.057468 0.642342 0.265183 -0.233200
C40   C     C_R   0.958943 0.369591 0.735019 -0.323358
C41   C     C_R   0.642398 0.265772 0.054620 -0.233593
C42   C     C_R   0.375670 0.733562 0.967193 -0.171617
C43   C     C_R   0.266513 0.057859 0.643660 -0.191902
C44   C     C_R   0.103533 0.116400 0.389574 0.807715
C45   C     C_R   0.735807 0.958139 0.371228 -0.195102
C46   C     C_R   0.097603 0.687387 0.177102 0.530055
C47   C     C_R   0.925747 0.319393 0.823837 0.528139
C48   C     C_R   0.686977 0.177486 0.094313 0.535399
C49   C     C_R   0.318687 0.820379 0.944185 0.502017
C50   C     C_R   0.177122 0.098374 0.685524 0.521395
C51   C     C_R   0.825171 0.925039 0.323746 0.514467
C52   C     C_R   0.190668 0.662384 0.141983 -0.205318
C53   C     C_R   0.837386 0.323350 0.858875 -0.110694
C54   C     C_R   0.662663 0.142236 0.187395 -0.206847
C55   C     C_R   0.889794 0.890432 0.609937 0.785958
C56   C     C_R   0.304709 0.858286 0.862414 -0.268505
C57   C     C_R   0.142083 0.191145 0.659499 -0.248830
C58   C     C_R   0.861675 0.836220 0.327837 -0.233190
C59   C     C_R   0.011679 0.582597 0.472890 0.133587
C60   C     C_R   0.994633 0.417672 0.527429 0.115713
C61   C     C_R   0.582830 0.472953 0.010405 0.145973
C62   C     C_R   0.416743 0.527904 0.993522 0.136876
C63   C     C_R   0.472662 0.011489 0.582242 0.136353
C64   C     C_R   0.527636 0.992765 0.417193 0.142590
C65   C     C_R   0.951161 0.551590 0.556011 -0.112767
C66   C     C_R   0.116160 0.389290 0.103683 0.802852
C67   C     C_R   0.054043 0.448616 0.443860 -0.115730
C68   C     C_R   0.550805 0.556635 0.951194 -0.127668
C69   C     C_R   0.448644 0.443951 0.052432 -0.114987
C70   C     C_R   0.556033 0.950795 0.551533 -0.141959
C71   C     C_R   0.444191 0.053007 0.448190 -0.139467
C72   C     C_R   0.947792 0.465975 0.585889 -0.105290
C73   C     C_R   0.060236 0.533292 0.414417 -0.055098
C74   C     C_R   0.464434 0.586928 0.948259 -0.120510
C75   C     C_R   0.533730 0.414639 0.058345 -0.053984
C76   C     C_R   0.586186 0.946607 0.465675 -0.082052
C77   C     C_R   0.883963 0.610638 0.896284 0.798590
C78   C     C_R   0.415243 0.060075 0.532631 -0.032853
C79   C     C_R   0.110167 0.390486 0.389415 0.850918
C80   C     C_R   0.891113 0.609604 0.610481 0.837839
C81   C     C_R   0.390605 0.389376 0.109640 0.834300
C82   C     C_R   0.609288 0.610713 0.891149 0.835638
C83   C     C_R   0.389470 0.109681 0.390458 0.836707
C84   C     C_R   0.610494 0.891371 0.609546 0.812556
C85   C     C_R   0.047652 0.047926 0.313795 -0.177601
C86   C     C_R   0.856788 0.032349 0.663384 -0.204258
C87   C     C_R   0.055326 0.315515 0.036931 -0.209412
C88   C     C_R   0.242271 0.594687 0.195312 -0.218290
C89   C     C_R   0.945310 0.684143 0.962982 -0.188213
C90   C     C_R   0.314521 0.044106 0.048792 -0.177638
C91   C     C_R   0.685125 0.960025 0.947385 -0.206166
C92   C     C_R   0.061669 0.987135 0.280199 -0.247362
C93   C     C_R   0.854527 0.082782 0.701475 -0.269700
C94   C     C_R   0.001653 0.278362 0.042725 -0.256568
C95   C     C_R   0.998798 0.721082 0.957904 -0.244242
C96   C     C_R   0.278467 0.052052 0.992746 -0.253632
C97   C     C_R   0.721701 0.954088 0.001835 -0.256229
C98   C     C_R   0.050626 0.905369 0.338319 0.521758
C99   C     C_R   0.782750 0.375903 0.806062 -0.251326
C100  C     C_R   0.916984 0.125470 0.658617 0.514968
C101  C     C_R   0.918228 0.332002 0.033045 0.556757
C102  C     C_R   0.082147 0.667361 0.967775 0.530042
C103  C     C_R   0.333884 0.040134 0.910368 0.519399
C104  C     C_R   0.667147 0.964950 0.084769 0.530079
C105  C     C_R   0.014609 0.890891 0.429680 -0.138018
C106  C     C_R   0.976348 0.123365 0.573590 -0.170299
C107  C     C_R   0.894568 0.423565 0.007569 -0.162303
C108  C     C_R   0.105944 0.575861 0.992758 -0.154154
C109  C     C_R   0.425542 0.011065 0.890067 -0.140232
C110  C     C_R   0.595844 0.195522 0.239434 -0.225722
C111  C     C_R   0.575350 0.991438 0.107270 -0.151980
C112  C     C_R   0.992819 0.955995 0.464185 -0.021485
C113  C     C_R   0.980850 0.071176 0.533293 -0.013795
C114  C     C_R   0.950625 0.462762 0.996832 -0.017487
C115  C     C_R   0.049940 0.536901 0.002976 -0.017872
C116  C     C_R   0.463399 0.999179 0.948013 -0.009626
C117  C     C_R   0.536807 0.002489 0.050226 -0.016533
C118  C     C_R   0.024669 0.027367 0.406388 0.074196
C119  C     C_R   0.925146 0.018349 0.583763 0.091928
C120  C     C_R   0.025620 0.406905 0.024478 0.085631
H1    H     H_    0.051564 0.111934 0.266103 0.190893
H2    H     H_    0.975629 0.791650 0.945087 0.146509
H3    H     H_    0.207387 0.068009 0.013487 0.127295
H4    H     H_    0.792620 0.939943 0.979681 0.145799
H5    H     H_    0.004970 0.828066 0.472565 0.179750
H6    H     H_    0.015567 0.165571 0.541060 0.205585
H7    H     H_    0.830451 0.463168 0.999438 0.185340
H8    H     H_    0.170193 0.536005 0.000909 0.184000
H9    H     H_    0.466614 0.000970 0.826946 0.168888
H10   H     H_    0.534920 0.000313 0.171256 0.182736
H11   H     H_    0.222861 0.695012 0.073339 0.156687
H12   H     H_    0.802784 0.006440 0.697012 0.168503
H13   H     H_    0.811383 0.284850 0.927216 0.198178
H14   H     H_    0.695021 0.073494 0.219284 0.159599
H15   H     H_    0.260368 0.925411 0.843320 0.196075
H16   H     H_    0.072958 0.223387 0.690610 0.153630
H17   H     H_    0.931208 0.809051 0.292646 0.176819
H18   H     H_    0.313975 0.576004 0.167123 0.148553
H19   H     H_    0.714741 0.377254 0.834329 0.153386
H20   H     H_    0.577402 0.167164 0.311148 0.148706
H21   H     H_    0.332965 0.840538 0.743809 0.164007
H22   H     H_    0.167795 0.313779 0.573352 0.151274
H23   H     H_    0.121072 0.271780 0.039449 0.191047
H24   H     H_    0.839420 0.713759 0.380349 0.152285
H25   H     H_    0.986001 0.659664 0.291258 0.149044
H26   H     H_    0.027340 0.367405 0.707239 0.136657
H27   H     H_    0.659057 0.292007 0.983174 0.145024
H28   H     H_    0.384763 0.703893 0.031275 0.156044
H29   H     H_    0.293024 0.986558 0.662284 0.138127
H30   H     H_    0.707911 0.026450 0.368852 0.155231
H31   H     H_    0.873377 0.167614 0.756364 0.338500
H32   H     H_    0.096131 0.860596 0.242152 0.333494
H33   H     H_    0.116161 0.767393 0.932956 0.334106
H34   H     H_    0.879644 0.727962 0.960286 0.191813
H35   H     H_    0.885816 0.231918 0.064383 0.354775
H36   H     H_    0.766907 0.929214 0.120234 0.332321
H37   H     H_    0.235126 0.075692 0.873364 0.325249
H38   H     H_    0.053914 0.692821 0.386031 0.279433
H39   H     H_    0.124073 0.683095 0.464094 0.235704
H40   H     H_    0.108594 0.577632 0.537071 0.226509
H41   H     H_    0.025043 0.677691 0.559378 0.230831
H42   H     H_    0.966824 0.300222 0.614020 0.280787
H43   H     H_    0.855239 0.338608 0.565806 0.250545
H44   H     H_    0.947175 0.314910 0.468939 0.230131
H45   H     H_    0.269082 0.047486 0.113912 0.189298
H46   H     H_    0.891178 0.426722 0.470204 0.219157
H47   H     H_    0.695672 0.385454 0.049977 0.271448
H48   H     H_    0.681487 0.555845 0.024700 0.232163
H49   H     H_    0.684761 0.460726 0.123721 0.227927
H50   H     H_    0.579838 0.536148 0.106948 0.231282
H51   H     H_    0.302055 0.616068 0.958786 0.275656
H52   H     H_    0.301975 0.543546 0.887122 0.238180
H53   H     H_    0.358033 0.438332 0.954139 0.219342
H54   H     H_    0.419516 0.509621 0.860786 0.237036
H55   H     H_    0.431502 0.984753 0.718954 0.284057
H56   H     H_    0.729728 0.956726 0.882013 0.185972
H57   H     H_    0.557706 0.024781 0.676655 0.214853
H58   H     H_    0.460116 0.121170 0.688996 0.244487
H59   H     H_    0.531018 0.112804 0.580111 0.235226
H60   H     H_    0.615135 0.955745 0.304040 0.276277
H61   H     H_    0.535557 0.889352 0.303846 0.233120
H62   H     H_    0.435438 0.943520 0.377213 0.221475
H63   H     H_    0.522645 0.851333 0.419016 0.256319
H64   H     H_    0.313276 0.444313 0.304118 0.227189
H65   H     H_    0.338521 0.491625 0.379126 0.236767
H66   H     H_    0.237766 0.471636 0.464547 0.248719
H67   H     H_    0.082436 0.003379 0.208995 0.133629
H68   H     H_    0.234912 0.580572 0.382770 0.264065
H69   H     H_    0.790888 0.493704 0.596178 0.224588
H70   H     H_    0.641286 0.581301 0.651240 0.239868
H71   H     H_    0.710836 0.601278 0.677868 0.232420
H72   H     H_    0.646967 0.528233 0.761771 0.231877
H73   H     H_    0.445962 0.303970 0.311471 0.227647
H74   H     H_    0.491727 0.380207 0.336505 0.236728
H75   H     H_    0.473682 0.464094 0.234534 0.250139
H76   H     H_    0.582306 0.381520 0.234007 0.261802
H77   H     H_    0.499190 0.614553 0.782393 0.219978
H78   H     H_    0.803753 0.088630 0.764479 0.141983
H79   H     H_    0.490666 0.664459 0.642901 0.235891
H80   H     H_    0.484011 0.763995 0.646725 0.235886
H81   H     H_    0.384121 0.745051 0.672138 0.254644
H82   H     H_    0.305737 0.311834 0.442280 0.225728
H83   H     H_    0.378997 0.338952 0.490014 0.234914
H84   H     H_    0.465128 0.238641 0.470204 0.247856
H85   H     H_    0.383085 0.236012 0.579569 0.269240
H86   H     H_    0.630297 0.758431 0.541071 0.214556
H87   H     H_    0.632136 0.656634 0.493785 0.242161
H88   H     H_    0.745114 0.630639 0.481928 0.236390
H89   H     H_    0.024770 0.207727 0.055893 0.144198
H90   H     H_    0.707453 0.696390 0.385837 0.262031
H91   H     H_    0.081912 0.785942 0.070087 0.340392
H92   H     H_    0.038965 0.268993 0.842396 0.323420
H93   H     H_    0.783757 0.069736 0.077882 0.345447
H94   H     H_    0.231083 0.921676 0.982285 0.332212
H95   H     H_    0.064479 0.084321 0.773635 0.356642
H96   H     H_    0.934465 0.949624 0.239663 0.340816
N1    N     N_2   0.029371 0.659294 0.452321 -0.261869
N2    N     N_2   0.444959 0.669431 0.771111 -0.301493
N3    N     N_2   0.339388 0.254271 0.481511 -0.330465
N4    N     N_2   0.662004 0.762065 0.475309 -0.313025
N5    N     N_2   0.976304 0.341240 0.549180 -0.270591
N6    N     N_2   0.660488 0.451559 0.027559 -0.264100
N7    N     N_2   0.339803 0.550103 0.974868 -0.265235
N8    N     N_2   0.448928 0.031890 0.658406 -0.266844
N9    N     N_2   0.548920 0.972369 0.341634 -0.266809
N10   N     N_2   0.254942 0.482705 0.338162 -0.327441
N11   N     N_2   0.759165 0.476801 0.663864 -0.314829
N12   N     N_2   0.484089 0.338026 0.253033 -0.326579
O1    O     O_3   0.250000 0.250000 0.250000 -0.489514
O2    O     O_R   0.865800 0.694910 0.573470 -0.619917
O3    O     O_R   0.305090 0.426530 0.134200 -0.621926
O4    O     O_R   0.694910 0.573470 0.865800 -0.616658
O5    O     O_R   0.426530 0.134200 0.305090 -0.619239
O6    O     O_R   0.573470 0.865800 0.694910 -0.652380
O7    O     O_R   0.134190 0.426530 0.134200 -0.633797
O8    O     O_R   0.865810 0.573470 0.865800 -0.637192
O9    O     O_R   0.426530 0.134200 0.134190 -0.633871
O10   O     O_R   0.573470 0.865800 0.865810 -0.636207
O11   O     O_R   0.134200 0.134190 0.426530 -0.646859
O12   O     O_3   0.750000 0.750000 0.750000 -0.489408
O13   O     O_R   0.865800 0.865810 0.573470 -0.638085
O14   O     O_R   0.426530 0.305080 0.134210 -0.645466
O15   O     O_R   0.573470 0.694920 0.865790 -0.639505
O16   O     O_R   0.305080 0.134210 0.426530 -0.651303
O17   O     O_R   0.694920 0.865790 0.573470 -0.637200
O18   O     O_R   0.134210 0.426530 0.305080 -0.644865
O19   O     O_R   0.865790 0.573470 0.694920 -0.638677
O20   O     O_3   0.919611 0.172332 0.696790 -0.816508
O21   O     O_3   0.070681 0.840205 0.307956 -0.819511
O22   O     O_3   0.140820 0.701840 0.955287 -0.803501
O23   O     O_R   0.305080 0.134200 0.134200 -0.662848
O24   O     O_3   0.859564 0.297425 0.045608 -0.783525
O25   O     O_3   0.701127 0.952152 0.144196 -0.809059
O26   O     O_3   0.300963 0.053640 0.849678 -0.803827
O27   O     O_3   0.044205 0.755543 0.127506 -0.775723
O28   O     O_3   0.978485 0.264565 0.877026 -0.769100
O29   O     O_3   0.753806 0.127735 0.040474 -0.771441
O30   O     O_3   0.275188 0.864886 0.004454 -0.775031
O31   O     O_3   0.125771 0.045746 0.750688 -0.774743
O32   O     O_3   0.874604 0.981186 0.273660 -0.772046
O33   O     O_R   0.694920 0.865800 0.865800 -0.664394
O34   O     O_R   0.134200 0.134200 0.305080 -0.659580
O35   O     O_R   0.865800 0.865800 0.694920 -0.648997
O36   O     O_R   0.134200 0.305080 0.134200 -0.659594
O37   O     O_R   0.865800 0.694920 0.865800 -0.649887
O38   O     O_R   0.134200 0.305090 0.426530 -0.626383
Zn1   Zn    Zn3+2 0.206620 0.206630 0.380140 0.964787
Zn2   Zn    Zn3+2 0.793380 0.793370 0.619860 0.969264
Zn3   Zn    Zn3+2 0.206630 0.380140 0.206620 0.973340
Zn4   Zn    Zn3+2 0.793370 0.619860 0.793380 0.970519
Zn5   Zn    Zn3+2 0.380140 0.206620 0.206630 0.973962
Zn6   Zn    Zn3+2 0.619860 0.793380 0.793370 0.954487
Zn7   Zn    Zn3+2 0.206620 0.206620 0.206620 0.934897
Zn8   Zn    Zn3+2 0.793380 0.793380 0.793380 0.938792

loop_
_geom_bond_atom_site_label_1
_geom_bond_atom_site_label_2
_ccdc_geom_bond_type
C17   H58   S    
C16   H53   S    
C40   C47   A    
C51   O32   S    
C89   C95   A    
C33   O33   A    
O12   Zn2   S    
C14   N5    S    
C36   C42   A    
C1    C11   S    
H64   N10   S    
C6    C55   S    
O18   Zn3   S    
C42   H28   S    
C60   N5    S    
C28   N12   S    
C20   H71   S    
O1    Zn1   S    
C92   H67   S    
C92   C98   A    
H47   N6    S    
O2    Zn2   S    
C53   C99   A    
C48   C54   A    
C29   C36   A    
C27   C99   A    
C98   C105  A    
C2    C29   A    
C34   C40   A    
C108  C115  A    
C22   H80   S    
C86   C93   A    
C19   N10   S    
C26   N10   S    
C97   H4    S    
C18   H62   S    
C19   H66   S    
C20   H70   S    
C103  C109  A    
C64   C71   A    
C13   C57   A    
C50   O31   S    
C45   C51   A    
C68   C74   A    
C54   H14   S    
C87   C94   A    
C46   C52   A    
H60   N9    S    
C79   O38   A    
C54   C110  A    
C15   H49   S    
C45   H30   S    
C32   C39   A    
H95   O31   S    
C14   H43   S    
O34   Zn7   S    
C61   N6    S    
H32   O21   S    
C38   C45   A    
C33   O10   A    
C109  C116  A    
C12   H41   S    
O15   Zn6   S    
O1    Zn3   S    
C83   O5    A    
C60   C67   A    
O12   Zn8   S    
C82   O15   A    
H55   N8    S    
H42   N5    S    
C57   H16   S    
C85   H1    S    
C86   C119  A    
C67   C73   A    
C21   H74   S    
C14   H46   S    
C25   H88   S    
C70   C84   S    
C59   C73   A    
C4    C90   A    
C25   H90   S    
C96   H3    S    
C95   C102  A    
C8    C114  A    
C47   C53   A    
C25   N4    S    
H92   O28   S    
C17   H59   S    
O6    Zn6   S    
C22   N2    S    
C12   H39   S    
C65   C80   S    
C113  C119  A    
C23   H85   S    
C50   C57   A    
C7    C118  A    
C99   H19   S    
H69   N11   S    
C66   O36   A    
C16   H54   S    
C64   N9    S    
C85   C92   A    
C59   C65   A    
C71   C83   S    
C67   C79   S    
C27   C34   A    
C23   N3    S    
C48   O29   S    
O13   Zn2   S    
C106  C113  A    
C9    C115  A    
C79   O18   A    
O23   Zn7   S    
C22   H79   S    
C52   C88   A    
C53   H13   S    
C94   C101  A    
C28   C110  A    
C3    C8    A    
C59   N1    S    
H91   O27   S    
C32   C73   S    
O19   Zn4   S    
C26   C32   A    
C38   C76   S    
O33   Zn8   S    
C42   C49   A    
C18   H61   S    
C1    O9    A    
C7    C44   S    
C83   O16   A    
C77   O8    A    
C61   C75   A    
C104  O25   S    
C30   C37   A    
C23   H83   S    
C84   O17   A    
C21   H75   S    
H82   N3    S    
C37   C43   A    
C84   O6    A    
C107  C114  A    
C20   H72   S    
C100  O20   S    
C18   N9    S    
C19   H68   S    
C98   O21   S    
C81   O14   A    
C49   O30   S    
C16   H52   S    
C111  H10   S    
O12   Zn4   S    
C41   H27   S    
C63   C70   A    
O35   Zn8   S    
O1    Zn7   S    
C39   H25   S    
O8    Zn4   S    
C64   C76   A    
C80   O19   A    
O11   Zn1   S    
O9    Zn5   S    
C51   C58   A    
C13   H22   S    
C91   C97   A    
C4    C11   A    
O10   Zn6   S    
C20   N11   S    
C93   C100  A    
C88   H18   S    
C5    C91   A    
C35   C41   A    
C36   C74   S    
C39   C46   A    
C62   C69   A    
C95   H2    S    
C87   C120  A    
C29   N2    S    
C105  C112  A    
C90   H45   S    
C70   C76   A    
C8    C77   S    
C55   O35   A    
C15   H48   S    
C101  O24   S    
H96   O32   S    
H77   N2    S    
C11   C117  A    
C44   O11   A    
C34   C72   S    
C12   N1    S    
H31   O20   S    
C56   H15   S    
C10   C116  A    
H36   O25   S    
C58   H17   S    
C31   N4    S    
C37   C78   S    
C17   H57   S    
C9    C120  A    
C21   N12   S    
C82   O4    A    
C7    C113  A    
C28   C35   A    
C55   O13   A    
C22   H81   S    
H93   O29   S    
C6    C119  A    
C102  O22   S    
C52   H11   S    
C6    C112  A    
C63   N8    S    
C4    C116  A    
H94   O30   S    
C35   C75   S    
H73   N12   S    
C80   O2    A    
C12   H40   S    
C43   H29   S    
O5    Zn5   S    
C104  C111  A    
H51   N7    S    
H35   O24   S    
C1    O23   A    
C43   C50   A    
C90   C96   A    
C40   H26   S    
O7    Zn3   S    
C65   C72   A    
H33   O22   S    
C106  H6    S    
C100  C106  A    
O36   Zn7   S    
C86   H12   S    
C31   C38   A    
C105  H5    S    
C23   H84   S    
C3    C89   A    
O16   Zn1   S    
H86   N4    S    
O14   Zn5   S    
O12   Zn6   S    
C15   N6    S    
C110  H20   S    
C93   H78   S    
C24   C31   A    
C107  H7    S    
C5    C10   A    
C49   C56   A    
C3    C115  A    
H37   O26   S    
C9    C66   S    
C112  C118  A    
O1    Zn5   S    
C61   C68   A    
C27   N11   S    
C89   H34   S    
C66   O7    A    
C18   H63   S    
C24   H24   S    
H38   N1    S    
O3    Zn3   S    
C44   O34   A    
C41   C48   A    
C77   O37   A    
C91   H56   S    
C69   C75   A    
C10   C33   S    
O4    Zn4   S    
C21   H76   S    
C14   H44   S    
C85   C118  A    
C68   C82   S    
C114  C120  A    
C2    H21   S    
C97   C104  A    
C69   C81   S    
O38   Zn1   S    
C102  C108  A    
C111  C117  A    
O17   Zn2   S    
C26   C88   A    
O37   Zn8   S    
C47   O28   S    
C87   H23   S    
C13   C30   A    
C15   H50   S    
C94   H89   S    
C24   C58   A    
C46   O27   S    
C81   O3    A    
C96   C103  A    
C5    C117  A    
C101  C107  A    
C17   N8    S    
C103  O26   S    
C60   C72   A    
C62   C74   A    
C16   N7    S    
C2    C56   A    
C108  H8    S    
C62   N7    S    
C25   H87   S    
C109  H9    S    
C71   C78   A    
C19   H65   S    
C30   N3    S    
C63   C78   A    
