data_mof_unit_40270.cif
_audit_creation_date              2012-12-10T16:56:32-0500
_audit_creation_method            fapswitch 2.2
_symmetry_space_group_name_H-M    P1
_symmetry_Int_Tables_number       1
_space_group_crystal_system       triclinic
_cell_length_a                    7.774419
_cell_length_b                    8.579451
_cell_length_c                    15.695913
_cell_angle_alpha                 90.863807
_cell_angle_beta                  85.886911
_cell_angle_gamma                 93.634496
_cell_volume                      1042.06634313

loop_
_atom_site_label
_atom_site_type_symbol
_atom_type_description
_atom_site_fract_x
_atom_site_fract_y
_atom_site_fract_z
_atom_type_partial_charge
C1    C     C_R   0.545759 0.794716 0.497807 0.960832
C2    C     C_3   0.399916 0.376347 0.029778 -0.167467
C3    C     C_1   0.506419 0.499602 0.750833 -0.181024
C4    C     C_1   0.493581 0.500398 0.249167 -0.181024
C5    C     C_3   0.338652 0.508793 0.975772 -0.163973
C6    C     C_3   0.661348 0.491209 0.024228 -0.163973
C7    C     C_3   0.504055 0.499678 0.917239 0.212284
C8    C     C_3   0.495945 0.500323 0.082761 0.212284
C9    C     C_1   0.506929 0.499493 0.826212 -0.084673
C10   C     C_1   0.493071 0.500507 0.173788 -0.084673
C11   C     C_R   0.454241 0.205284 0.502193 0.960832
C12   C     C_R   0.502167 0.500036 0.661982 0.904374
C13   C     C_R   0.497833 0.499964 0.338018 0.904375
C14   C     C_2   0.569828 0.958197 0.496557 -0.379244
C15   C     C_2   0.430172 0.041803 0.503443 -0.379244
C16   C     C_3   0.434668 0.632771 0.030570 -0.165358
C17   C     C_3   0.565332 0.367230 0.969430 -0.165358
C18   C     C_3   0.600084 0.623655 0.970222 -0.167467
H1    H     H_    0.682077 0.724565 0.943652 0.131201
H2    H     H_    0.986642 0.618015 0.563579 0.192552
H3    H     H_    0.317923 0.275437 0.056348 0.131201
H4    H     H_    0.381066 0.741171 0.057780 0.131861
H5    H     H_    0.618934 0.258831 0.942220 0.131861
H6    H     H_    0.793172 0.484054 0.046246 0.132121
H7    H     H_    0.206828 0.515948 0.953754 0.132121
H8    H     H_    0.701739 0.009228 0.489988 0.180878
H9    H     H_    0.298260 0.990772 0.510012 0.180878
H10   H     H_    0.013358 0.381985 0.436421 0.192552
N1    N     N_2   0.950320 0.457950 0.477300 -0.172937
N2    N     N_2   0.049680 0.542050 0.522700 -0.172937
O1    O     O_R   0.389250 0.738570 0.505570 -0.613100
O2    O     O_R   0.610750 0.261430 0.494430 -0.613100
O3    O     O_R   0.678390 0.711630 0.491020 -0.630927
O4    O     O_R   0.321610 0.288370 0.508980 -0.630927
O5    O     O_R   0.355460 0.513480 0.630490 -0.611993
O6    O     O_R   0.644540 0.486520 0.369510 -0.611993
O7    O     O_R   0.644600 0.486540 0.615950 -0.621746
O8    O     O_R   0.355400 0.513460 0.384050 -0.621746
Zn1   Zn    Zn3+2 0.306940 0.517990 0.509710 0.946340
Zn2   Zn    Zn3+2 0.693060 0.482010 0.490290 0.946340

loop_
_geom_bond_atom_site_label_1
_geom_bond_atom_site_label_2
_ccdc_geom_bond_type
N2    Zn1   S    
O5    Zn1   S    
N1    N2    D    
C3    C9    T    
C1    C14   S    
C15   H9    S    
O6    Zn2   S    
C7    C18   S    
C6    H6    S    
C2    H3    S    
C1    O3    A    
C8    C16   S    
H2    N2    S    
C14   H8    S    
C2    C17   S    
C13   O8    A    
C17   H5    S    
C5    H7    S    
N1    Zn2   S    
C16   C18   S    
H10   N1    S    
O1    Zn1   S    
C11   O2    A    
O7    Zn2   S    
O2    Zn2   S    
O8    Zn1   S    
C6    C18   S    
C2    C5    S    
C4    C10   T    
O4    Zn1   S    
O3    Zn2   S    
C7    C9    S    
C1    O1    A    
C13   O6    A    
C8    C10   S    
C18   H1    S    
C12   O7    A    
C4    C13   S    
C5    C7    S    
C6    C17   S    
C14   C15   D    
C5    C16   S    
C6    C8    S    
C3    C12   S    
C7    C17   S    
C11   C15   S    
C11   O4    A    
C2    C8    S    
C16   H4    S    
C12   O5    A    
