data_mof_unit_47050.cif
_audit_creation_date              2012-12-10T17:11:28-0500
_audit_creation_method            fapswitch 2.2
_symmetry_space_group_name_H-M    P1
_symmetry_Int_Tables_number       1
_space_group_crystal_system       triclinic
_cell_length_a                    15.003554
_cell_length_b                    12.986897
_cell_length_c                    11.830087
_cell_angle_alpha                 99.975637
_cell_angle_beta                  92.668569
_cell_angle_gamma                 92.817571
_cell_volume                      2263.93735691

loop_
_atom_site_label
_atom_site_type_symbol
_atom_type_description
_atom_site_fract_x
_atom_site_fract_y
_atom_site_fract_z
_atom_type_partial_charge
C1    C     C_R   0.498645 0.299355 0.478527 0.884925
C2    C     C_R   0.501355 0.700645 0.521473 0.884926
C3    C     C_R   0.035674 0.331889 0.368451 0.368649
C4    C     C_R   0.964325 0.668111 0.631549 0.368650
C5    C     C_R   0.501650 0.814321 0.533751 -0.036703
C6    C     C_R   0.498350 0.185679 0.466249 -0.036703
C7    C     C_R   0.496532 0.014424 0.346304 -0.110042
C8    C     C_R   0.503468 0.985576 0.653696 -0.110042
C9    C     C_R   0.496231 0.122674 0.356917 -0.065585
C10   C     C_R   0.503769 0.877326 0.643083 -0.065586
C11   C     C_R   0.500795 0.139643 0.564989 -0.155061
C12   C     C_R   0.499205 0.860357 0.435011 -0.155061
C13   C     C_R   0.501069 0.031541 0.555097 0.136095
C14   C     C_R   0.498931 0.968459 0.444903 0.136095
C15   C     C_R   0.434762 0.380738 0.023789 0.322257
C16   C     C_R   0.565238 0.619262 0.976211 0.322257
C17   C     C_R   0.431404 0.400911 0.144178 0.454767
C18   C     C_R   0.568596 0.599089 0.855822 0.454767
C19   C     C_R   0.533773 0.548036 0.156307 0.416871
C20   C     C_R   0.466227 0.451964 0.843693 0.416871
C21   C     C_R   0.524752 0.543180 0.033972 -0.227326
C22   C     C_R   0.475248 0.456819 0.966028 -0.227326
C23   C     C_R   0.329377 0.499488 0.501147 0.940397
C24   C     C_R   0.670623 0.500511 0.498853 0.940396
C25   C     C_R   0.818315 0.593141 0.539980 0.371525
C26   C     C_R   0.181685 0.406859 0.460020 0.371525
C27   C     C_R   0.767115 0.500963 0.495968 -0.223046
C28   C     C_R   0.232885 0.499037 0.504032 -0.223046
C29   C     C_R   0.807241 0.409071 0.450558 0.325565
C30   C     C_R   0.192759 0.590929 0.549442 0.325565
C31   C     C_R   0.900249 0.412527 0.437552 -0.058961
C32   C     C_R   0.099751 0.587473 0.562448 -0.058961
C33   C     C_R   0.953026 0.500398 0.498549 -0.079141
C34   C     C_R   0.046974 0.499602 0.501451 -0.079141
C35   C     C_R   0.911658 0.589217 0.556337 -0.081645
C36   C     C_R   0.088342 0.410783 0.443663 -0.081645
C37   C     C_R   0.942058 0.333305 0.364472 0.267792
C38   C     C_R   0.057942 0.666695 0.635528 0.267791
Cu1   Cu    Cu3+1 0.506660 0.507730 0.615930 1.095734
Cu2   Cu    Cu3+1 0.493340 0.492270 0.384070 1.095734
H1    H     H_    0.497424 0.812367 0.350171 0.192741
H2    H     H_    0.502576 0.187633 0.649829 0.192741
H3    H     H_    0.505325 0.843120 0.720328 0.207031
H4    H     H_    0.494675 0.156880 0.279672 0.207031
H5    H     H_    0.494997 0.966792 0.261318 0.188755
H6    H     H_    0.505003 0.033208 0.738682 0.188755
N1    N     N_R   0.516670 0.519360 0.790130 -0.285024
N2    N     N_R   0.483330 0.480640 0.209870 -0.285024
O1    O     O_R   0.504720 0.354460 0.582000 -0.577560
O2    O     O_R   0.495280 0.645540 0.418000 -0.577560
O3    O     O_R   0.493480 0.341410 0.386200 -0.551051
O4    O     O_R   0.506520 0.658590 0.613800 -0.551051
O5    O     O_R   0.375880 0.506510 0.597910 -0.542378
O6    O     O_R   0.624120 0.493490 0.402090 -0.542378
O7    O     O_R   0.364640 0.493450 0.402110 -0.537928
O8    O     O_R   0.635360 0.506550 0.597890 -0.537927
Cl1   Cl    Cl    0.764256 0.712976 0.555925 -0.425972
Cl2   Cl    Cl    0.235743 0.287024 0.444075 -0.425972
Cl3   Cl    Cl    0.404166 0.250500 0.955179 -0.437489
Cl4   Cl    Cl    0.595834 0.749500 0.044821 -0.437489
Cl5   Cl    Cl    0.740893 0.289597 0.429736 -0.532649
Cl6   Cl    Cl    0.259107 0.710403 0.570264 -0.532649
Br1   Br    Br    0.875525 0.239906 0.239842 -0.195536
Br2   Br    Br    0.124475 0.760093 0.760158 -0.195536
Cl7   Cl    Cl    0.084815 0.241400 0.262744 -0.329449
Cl8   Cl    Cl    0.915185 0.758600 0.737256 -0.329449
Br3   Br    Br    0.370387 0.365454 0.755020 -0.309854
Br4   Br    Br    0.629613 0.634545 0.244980 -0.309854
Cl9   Cl    Cl    0.640123 0.680956 0.791557 -0.410703
Cl10  Cl    Cl    0.359877 0.319044 0.208443 -0.410703

loop_
_geom_bond_atom_site_label_1
_geom_bond_atom_site_label_2
_ccdc_geom_bond_type
C4    C38   A    
C30   C32   A    
C31   C33   A    
C23   O7    A    
C16   C21   A    
C32   C38   A    
C24   O8    A    
Cu2   O3    S    
C1    O3    A    
C20   Br3   S    
C26   C28   A    
Cu1   O8    S    
C17   N2    A    
Cu2   O7    S    
C18   N1    A    
C18   Cl9   S    
C28   C30   A    
Cu1   O4    S    
C4    C35   A    
C19   Br4   S    
C29   C31   A    
C25   C35   A    
Cu1   O5    S    
C21   C22   A    
C4    Cl8   S    
C11   C13   A    
C33   C35   A    
C8    C13   A    
C2    O4    A    
C3    C36   A    
C6    C9    A    
C24   C27   S    
C15   C17   A    
C7    H5    S    
C16   C18   A    
C37   Br1   S    
C34   C36   A    
C12   C14   A    
C23   O5    A    
Cu2   O6    S    
C30   Cl6   S    
C17   Cl10  S    
C3    Cl7   S    
C13   C14   A    
C29   Cl5   S    
C2    C5    S    
C25   C27   A    
C5    C12   A    
Cu1   Cu2   S    
C24   O6    A    
C1    C6    S    
C25   Cl1   S    
Cu2   O2    S    
C5    C10   A    
C33   C34   A    
C27   C29   A    
C3    C37   A    
C12   H1    S    
C8    C10   A    
C16   Cl4   S    
C26   C36   A    
C6    C11   A    
C7    C9    A    
C38   Br2   S    
Cu2   N2    S    
C19   N2    A    
C9    H4    S    
C15   Cl3   S    
C11   H2    S    
C2    O2    A    
C8    H6    S    
Cu1   O1    S    
C10   H3    S    
C23   C28   S    
Cu1   N1    S    
C1    O1    A    
C26   Cl2   S    
C15   C22   A    
C7    C14   A    
C20   N1    A    
C31   C37   A    
C20   C22   A    
C19   C21   A    
C32   C34   A    
