data_mof_unit_18196.cif
_audit_creation_date              2012-12-10T20:36:42-0500
_audit_creation_method            fapswitch 2.2
_symmetry_space_group_name_H-M    P1
_symmetry_Int_Tables_number       1
_space_group_crystal_system       triclinic
_cell_length_a                    10.497756
_cell_length_b                    10.662321
_cell_length_c                    9.907147
_cell_angle_alpha                 89.933093
_cell_angle_beta                  88.501552
_cell_angle_gamma                 90.286428
_cell_volume                      1108.51736777

loop_
_atom_site_label
_atom_site_type_symbol
_atom_type_description
_atom_site_fract_x
_atom_site_fract_y
_atom_site_fract_z
_atom_type_partial_charge
C1    C     C_R   0.504775 0.260113 0.499959 0.869360
C2    C     C_3   0.964417 0.484897 0.369504 -0.147371
C3    C     C_3   0.044365 0.390598 0.449515 -0.185957
C4    C     C_3   0.121990 0.500972 0.502272 0.038935
C5    C     C_R   0.527878 0.063977 0.621919 0.135776
C6    C     C_R   0.527157 0.128903 0.499975 -0.104644
C7    C     C_R   0.551637 0.065277 0.378248 -0.233514
C8    C     C_R   0.551173 0.935558 0.378166 -0.232589
C9    C     C_R   0.526157 0.871452 0.499786 -0.108507
C10   C     C_R   0.527050 0.936013 0.621822 0.137277
C11   C     C_3   0.436825 0.928767 0.740948 -0.481512
C12   C     C_R   0.257298 0.500748 0.501286 0.856159
C13   C     C_3   0.437826 0.070876 0.740947 -0.501692
C14   C     C_R   0.397275 0.541671 0.074668 0.190523
C15   C     C_R   0.606142 0.467190 0.068864 -0.144467
C16   C     C_R   0.606328 0.467786 0.925263 -0.135352
C17   C     C_R   0.395585 0.537471 0.932752 0.157736
C18   C     C_3   0.263442 0.481728 0.938378 -0.166802
C19   C     C_3   0.265311 0.492767 0.091345 -0.507409
C20   C     C_R   0.504394 0.739957 0.499816 0.876249
C21   C     C_R   0.742519 0.499106 0.498267 0.857402
C22   C     C_3   0.034504 0.514899 0.626639 -0.149106
C23   C     C_3   0.954546 0.404362 0.574426 -0.177386
C24   C     C_3   0.877485 0.498722 0.494811 0.039062
C25   C     C_3   0.955029 0.609075 0.546716 -0.182723
C26   C     C_3   0.044917 0.595272 0.421996 -0.174553
H1    H     H_    0.913465 0.326460 0.636315 0.135547
H2    H     H_    0.481979 0.887478 0.830903 0.204460
H3    H     H_    0.344874 0.112389 0.714767 0.207115
H4    H     H_    0.483250 0.111994 0.830957 0.204662
H5    H     H_    0.691018 0.438959 0.120228 0.142843
H6    H     H_    0.691537 0.440201 0.869528 0.151385
H7    H     H_    0.193817 0.546414 0.894177 0.151806
H8    H     H_    0.199095 0.565316 0.132054 0.180343
H9    H     H_    0.261567 0.402207 0.147226 0.218892
H10   H     H_    0.062507 0.530032 0.731561 0.124752
H11   H     H_    0.914017 0.698057 0.585998 0.129950
H12   H     H_    0.086396 0.673221 0.360502 0.128292
H13   H     H_    0.931722 0.472550 0.264642 0.130005
H14   H     H_    0.085585 0.301662 0.410375 0.125176
H15   H     H_    0.561570 0.114492 0.282788 0.171795
H16   H     H_    0.560960 0.886677 0.282680 0.172799
H17   H     H_    0.342793 0.887654 0.715777 0.200810
N1    N     N_R   0.499140 0.499140 0.142800 -0.102198
N2    N     N_R   0.499140 0.499180 0.857150 -0.110032
O1    O     O_R   0.500020 0.316790 0.614690 -0.624167
O2    O     O_R   0.500000 0.316760 0.385350 -0.621162
O3    O     O_R   0.313960 0.499990 0.614650 -0.639606
O4    O     O_R   0.313940 0.499950 0.385310 -0.621092
O5    O     O_R   0.500000 0.683240 0.614650 -0.613176
O6    O     O_R   0.499980 0.683210 0.385310 -0.619572
O7    O     O_R   0.686060 0.500050 0.614690 -0.628351
O8    O     O_R   0.686040 0.500010 0.385350 -0.632298
Zn1   Zn    Zn3+2 0.500010 0.500020 0.653130 0.926191
Zn2   Zn    Zn3+2 0.499990 0.499980 0.346870 0.932524
C27   C     C_3   0.253338 0.344383 0.890350 -0.316176
C28   C     C_3   0.119242 0.290953 0.920026 -0.371294
C29   C     C_3   0.103017 0.160911 0.858709 -0.922159
H18   H     H_    0.115106 0.165595 0.747075 0.256982
H19   H     H_    0.173695 0.095027 0.900244 0.269514
H20   H     H_    0.005827 0.124785 0.883607 0.253014
H21   H     H_    0.101498 0.284287 0.030863 0.224627
H22   H     H_    0.046199 0.353884 0.878062 0.218197
H23   H     H_    0.273904 0.339426 0.780489 0.238687
H24   H     H_    0.325111 0.285405 0.940995 0.196021

loop_
_geom_bond_atom_site_label_1
_geom_bond_atom_site_label_2
_ccdc_geom_bond_type
C16   N2    A    
O3    Zn1   S    
C4    C26   S    
C23   C24   S    
C27   H23   S    
C15   H5    S    
C6    C7    A    
C23   H1    S    
C2    C3    S    
C16   H6    S    
C4    C22   S    
C9    C10   A    
C9    C20   S    
C3    C23   S    
C14   C17   A    
C17   C18   S    
C18   C27   S    
C12   O3    A    
C25   H11   S    
O1    Zn1   S    
C29   H20   S    
C7    H15   S    
C12   O4    A    
C29   H18   S    
O7    Zn1   S    
C7    C8    A    
C2    C26   S    
C19   H9    S    
C24   C25   S    
C21   O8    A    
C11   C13   S    
N1    Zn2   S    
C28   C29   S    
O5    Zn1   S    
C11   H2    S    
C15   C16   A    
C5    C6    A    
C2    H13   S    
O2    Zn2   S    
C8    H16   S    
N2    Zn1   S    
C28   H22   S    
C20   O6    A    
O6    Zn2   S    
O8    Zn2   S    
C2    C24   S    
C15   N1    A    
C18   H7    S    
C1    O1    A    
C4    C12   S    
C10   C11   S    
C29   H19   S    
C27   H24   S    
C13   H4    S    
C28   H21   S    
C22   H10   S    
C27   C28   S    
C14   N1    A    
C18   C19   S    
C21   C24   S    
C13   H3    S    
C22   C23   S    
C26   H12   S    
C20   O5    A    
C11   H17   S    
C3    H14   S    
C5    C10   A    
C25   C26   S    
O4    Zn2   S    
C5    C13   S    
C14   C19   S    
C22   C25   S    
C21   O7    A    
C1    O2    A    
C3    C4    S    
C1    C6    S    
C17   N2    A    
C8    C9    A    
C19   H8    S    
