data_mof_unit_42271.cif
_audit_creation_date              2013-03-05T16:01:15-0500
_audit_creation_method            fapswitch 2.2
_symmetry_space_group_name_H-M    P1
_symmetry_Int_Tables_number       1
_space_group_crystal_system       triclinic
_cell_length_a                    14.724434
_cell_length_b                    14.848493
_cell_length_c                    17.198863
_cell_angle_alpha                 106.433166
_cell_angle_beta                  72.541981
_cell_angle_gamma                 114.557829
_cell_volume                      3207.8977507

loop_
_atom_site_label
_atom_site_type_symbol
_atom_site_description
_atom_site_fract_x
_atom_site_fract_y
_atom_site_fract_z
_atom_type_partial_charge
O1    O     O_R   0.020090 0.662480 0.528530 -0.556430
O2    O     O_R   0.979910 0.337520 0.471470 -0.554685
O3    O     O_R   0.160710 0.620650 0.491980 -0.538604
O4    O     O_R   0.839290 0.379350 0.508020 -0.540987
C1    C     C_R   0.118576 0.688015 0.512108 0.863027
C2    C     C_R   0.881217 0.312008 0.487383 0.867420
O5    O     O_R   0.921540 0.523360 0.633990 -0.585108
O6    O     O_R   0.078460 0.476640 0.366010 -0.585189
O7    O     O_R   0.062170 0.481520 0.597440 -0.563448
O8    O     O_R   0.937830 0.518480 0.402560 -0.568913
C3    C     C_R   0.988056 0.502157 0.652709 0.799151
C4    C     C_R   0.010203 0.495061 0.347066 0.801183
Cu1   Cu    Cu3+1 0.916740 0.524770 0.521640 1.041404
Cu2   Cu    Cu3+1 0.083260 0.475230 0.478360 1.048295
C5    C     C_R   0.974106 0.494567 0.738076 -0.042753
C6    C     C_R   0.012180 0.483247 0.259987 -0.015213
C7    C     C_R   0.056730 0.539384 0.777444 -0.103689
C8    C     C_R   0.993343 0.552499 0.232417 -0.094934
C9    C     C_R   0.042717 0.529426 0.858635 -0.080700
C10   C     C_R   0.994055 0.539419 0.148987 -0.090564
C11   C     C_R   0.946786 0.470644 0.899668 0.105489
C12   C     C_R   0.008594 0.454221 0.093293 0.108613
C13   C     C_R   0.863747 0.427828 0.860456 -0.058175
C14   C     C_R   0.028739 0.385813 0.121160 -0.042595
C15   C     C_R   0.877153 0.440738 0.780292 -0.176066
C16   C     C_R   0.031555 0.400831 0.204056 -0.177901
C17   C     C_2   0.932439 0.455128 0.984237 0.156327
C18   C     C_2   0.004582 0.437269 0.005398 0.158193
H1    H     H_    0.131204 0.583072 0.745795 0.205636
H2    H     H_    0.979575 0.617089 0.275117 0.161850
H3    H     H_    0.045972 0.346661 0.225047 0.164448
H4    H     H_    0.812569 0.406388 0.750390 0.197999
H5    H     H_    0.789071 0.383202 0.891339 0.178115
H6    H     H_    0.040816 0.320165 0.079080 0.178747
H7    H     H_    0.982085 0.595137 0.128064 0.156018
H8    H     H_    0.106953 0.566513 0.889065 0.166694
C19   C     C_R   0.184462 0.796147 0.523019 -0.266227
C20   C     C_R   0.814006 0.204386 0.474692 -0.256613
C21   C     C_R   0.214577 0.959912 0.612328 -0.181200
C22   C     C_R   0.780875 0.043815 0.380978 -0.187441
C23   C     C_R   0.146369 0.868733 0.579664 0.289399
C24   C     C_R   0.850384 0.132447 0.415503 0.286194
C25   C     C_R   0.290161 0.825185 0.486407 0.287016
C26   C     C_R   0.708092 0.176799 0.510897 0.296003
C27   C     C_R   0.357926 0.923548 0.512731 -0.050966
C28   C     C_R   0.638525 0.080378 0.482549 -0.053035
C29   C     C_R   0.319758 0.984515 0.583522 -0.059647
C30   C     C_R   0.675701 0.020486 0.410092 -0.051842
C31   C     C_R   0.463848 0.960901 0.475335 0.026244
C32   C     C_R   0.532191 0.044058 0.519643 0.019472
C33   C     C_R   0.491706 0.086571 0.599924 -0.169760
C34   C     C_R   0.503047 0.919619 0.394360 -0.188544
C35   C     C_R   0.387468 0.066791 0.626685 0.447539
C36   C     C_R   0.607506 0.940019 0.365789 0.467969
H9    H     H_    0.184739 0.010982 0.661505 0.219449
H10   H     H_    0.809845 0.993560 0.330191 0.218833
H11   H     H_    0.539083 0.136273 0.643163 0.199633
H12   H     H_    0.453612 0.870874 0.352183 0.192757
N1    N     N_R   0.208390 0.438070 0.445820 -0.211447
N2    N     N_R   0.791610 0.561930 0.554180 -0.215900
C37   C     C_R   0.299045 0.333680 0.357174 -0.235637
C38   C     C_R   0.698513 0.664293 0.641468 -0.243404
C39   C     C_R   0.213780 0.361276 0.381605 0.156340
C40   C     C_R   0.785425 0.639540 0.617215 0.152758
C41   C     C_R   0.285087 0.488522 0.488862 0.173059
C42   C     C_R   0.714550 0.508024 0.511963 0.168934
C43   C     C_R   0.370960 0.459009 0.471129 -0.009811
C44   C     C_R   0.626700 0.534021 0.529267 -0.030177
C45   C     C_R   0.378579 0.383596 0.400621 0.052264
C46   C     C_R   0.618268 0.610485 0.599022 0.050180
C47   C     C_R   0.451272 0.504486 0.517432 -0.075143
C48   C     C_R   0.545341 0.484848 0.483664 -0.098421
C49   C     C_R   0.553157 0.417168 0.406008 0.327679
C50   C     C_R   0.441431 0.568916 0.596168 0.336341
C51   C     C_R   0.467870 0.362704 0.370209 -0.200961
C52   C     C_R   0.526933 0.627308 0.630829 -0.217525
H13   H     H_    0.474847 0.309349 0.312817 0.192297
H14   H     H_    0.518759 0.679419 0.688808 0.192067
H15   H     H_    0.721778 0.442587 0.468020 0.196220
H16   H     H_    0.279214 0.553452 0.534651 0.180473
H17   H     H_    0.846798 0.680108 0.650431 0.177496
H18   H     H_    0.152709 0.323037 0.347911 0.168252
H19   H     H_    0.303618 0.274793 0.303567 0.167256
H20   H     H_    0.692977 0.723607 0.694498 0.168589
N3    N     N_R   0.648238 0.409204 0.356834 0.100832
O9    O     O_R   0.653461 0.321005 0.321731 -0.319579
O10   O     O_R   0.724113 0.489150 0.335249 -0.369799
N4    N     N_R   0.343963 0.566305 0.647934 0.082442
O11   O     O_R   0.271948 0.480149 0.659991 -0.368795
O12   O     O_R   0.332797 0.648780 0.693941 -0.377729
N5    N     N_R   0.080544 0.404063 0.942955 0.106539
O13   O     O_R   0.171745 0.431487 0.955973 -0.341799
O14   O     O_R   0.055846 0.338293 0.877108 -0.314560
N6    N     N_R   0.841507 0.461864 0.043959 0.104666
O15   O     O_R   0.799788 0.521936 0.039943 -0.345367
O16   O     O_R   0.794499 0.400806 0.096822 -0.291543
O17   O     O_3   0.351749 0.121915 0.700113 -0.603577
C53   C     C_3   0.362389 0.215817 0.686084 0.065625
H21   H     H_    0.285619 0.221668 0.705360 0.194614
H22   H     H_    0.391443 0.225644 0.619775 0.160904
C54   C     C_3   0.432682 0.301557 0.739196 -0.305316
H23   H     H_    0.398525 0.297909 0.805848 0.244304
H24   H     H_    0.507856 0.293150 0.724394 0.260582
C55   C     C_3   0.449125 0.404056 0.723706 -0.775207
H25   H     H_    0.484631 0.409508 0.657557 0.264111
H26   H     H_    0.500866 0.464657 0.762630 0.256505
H27   H     H_    0.375177 0.415339 0.739800 0.292532
O18   O     O_3   0.644515 0.889496 0.289679 -0.602614
C56   C     C_3   0.612488 0.785689 0.291105 0.078361
H28   H     H_    0.634114 0.747336 0.226731 0.195661
H29   H     H_    0.528114 0.750057 0.309359 0.195825
C57   C     C_3   0.665525 0.767481 0.346617 -0.404850
H30   H     H_    0.749618 0.798199 0.323826 0.240684
H31   H     H_    0.647038 0.806299 0.411469 0.232929
C58   C     C_3   0.631203 0.655707 0.347039 -0.746784
H32   H     H_    0.547256 0.623514 0.369884 0.261340
H33   H     H_    0.669457 0.646277 0.389177 0.275772
H34   H     H_    0.652232 0.614499 0.283736 0.284289
N7    N     N_R   0.670861 0.251773 0.567593 0.108020
O19   O     O_R   0.610239 0.281186 0.547779 -0.402025
O20   O     O_R   0.701691 0.294399 0.637090 -0.414518
N8    N     N_R   0.329569 0.750608 0.431748 0.105815
O21   O     O_R   0.299178 0.704389 0.362399 -0.377051
O22   O     O_R   0.391011 0.724487 0.453828 -0.404724
N9    N     N_R   0.957312 0.150543 0.385710 0.124409
O23   O     O_R   0.012650 0.164054 0.437421 -0.325236
O24   O     O_R   0.994073 0.132337 0.306485 -0.373683
N10   N     N_R   0.039130 0.849466 0.608347 0.129139
O25   O     O_R   0.984212 0.832937 0.555410 -0.333192
O26   O     O_R   0.001753 0.870460 0.687166 -0.357618

loop_
_geom_bond_atom_site_label_1
_geom_bond_atom_site_label_2
_geom_bond_distance
_ccdc_geom_bond_type
C42   C44   1.424736 A    
C54   H23   1.112005 S    
C1    C19   1.482671 S    
C58   H33   1.109056 S    
C7    H1    1.081637 S    
N10   O25   1.301312 A    
C55   H26   1.110691 S    
O17   C53   1.418782 S    
C21   C23   1.391124 A    
Cu1   N2    2.015932 S    
N3    O9    1.301536 A    
O5    C3    1.290289 A    
Cu2   N1    2.015932 S    
C43   C45   1.411217 A    
C50   C52   1.393786 A    
O1    C1    1.297793 A    
C9    C11   1.407367 A    
C14   C16   1.389963 A    
C20   C24   1.413302 A    
C9    H8    1.082944 S    
C56   H29   1.111546 S    
C5    C15   1.400698 A    
C41   C43   1.427390 A    
C58   H32   1.111069 S    
O18   C56   1.417429 S    
C38   C46   1.403644 A    
C5    C7    1.395623 A    
O4    Cu1   1.960892 S    
C37   C39   1.390818 A    
C57   H30   1.111463 S    
C38   C40   1.389511 A    
C24   N9    1.433818 S    
C10   H7    1.082924 S    
C3    C5    1.450508 S    
C21   H9    1.083750 S    
C4    C6    1.450533 S    
C26   C28   1.422134 A    
C22   H10   1.083518 S    
C2    C20   1.482708 S    
C33   H11   1.075701 S    
C43   C47   1.444158 A    
C44   C48   1.447798 A    
C29   C35   1.398607 A    
C31   C34   1.406126 A    
C15   H4    1.082055 S    
C27   C29   1.416492 A    
C11   C17   1.475818 S    
N2    C42   1.365984 A    
C16   H3    1.083795 S    
C54   H24   1.110577 S    
C41   H16   1.075190 S    
C12   C18   1.475798 S    
Cu1   Cu2   2.683533 S    
C49   C51   1.395775 A    
C23   N10   1.433706 S    
O2    C2    1.301015 A    
C57   H31   1.111260 S    
C55   H25   1.110971 S    
C34   C36   1.393704 A    
N7    O20   1.301572 A    
C6    C16   1.401345 A    
C34   H12   1.077835 S    
C28   C30   1.418383 A    
C39   H18   1.081180 S    
C57   C58   1.522310 S    
O4    C2    1.299146 A    
C37   H19   1.083833 S    
C56   C57   1.537332 S    
N5    O13   1.301363 A    
C26   N7    1.436326 S    
C35   O17   1.384162 S    
C14   H6    1.083187 S    
C33   C35   1.389874 A    
C19   C25   1.418607 A    
C30   C36   1.401127 A    
O7    Cu2   1.958036 S    
C20   C26   1.420664 A    
C42   H15   1.071833 S    
N5    O14   1.301794 A    
O7    C3    1.295808 A    
C27   C31   1.426426 A    
O6    C4    1.290926 A    
C58   H34   1.110822 S    
C32   C33   1.409279 A    
N6    O16   1.301858 A    
C51   H13   1.084831 S    
C25   N8    1.436839 S    
C49   N3    1.435235 S    
C47   C50   1.426378 A    
O3    Cu2   1.960894 S    
O8    C4    1.295165 A    
C8    H2    1.083507 S    
C44   C46   1.414540 A    
N4    O12   1.301488 A    
C53   H21   1.111636 S    
C54   C55   1.526554 S    
C53   H22   1.120013 S    
C11   C13   1.400010 A    
C46   C52   1.389537 A    
N9    O23   1.301214 A    
C12   C14   1.400237 A    
O1    Cu1   1.973719 S    
C10   C12   1.407201 A    
N8    O22   1.301660 A    
C21   C29   1.396136 A    
C37   C45   1.403345 A    
C22   C30   1.398537 A    
C38   H20   1.083854 S    
O6    Cu2   1.960932 S    
C52   H14   1.084613 S    
C48   C49   1.432285 A    
O3    C1    1.302431 A    
O8    Cu1   1.958036 S    
N10   O26   1.301369 A    
C13   H5    1.083203 S    
N7    O19   1.301690 A    
C53   C54   1.529866 S    
C28   C32   1.429240 A    
N1    C39   1.355128 A    
C36   O18   1.389033 S    
N2    C40   1.353798 A    
C47   C48   1.448475 A    
C25   C27   1.421033 A    
C56   H28   1.110843 S    
N1    C41   1.367188 A    
C22   C24   1.391035 A    
C7    C9    1.390307 A    
C45   C51   1.390321 A    
C18   N5    1.444163 S    
C8    C10   1.389891 A    
C13   C15   1.389737 A    
C19   C23   1.416308 A    
N6    O15   1.301347 A    
O2    Cu2   1.973720 S    
C40   H17   1.080933 S    
N3    O10   1.301241 A    
O5    Cu1   1.960931 S    
N4    O11   1.301756 A    
C6    C8    1.396783 A    
C31   C32   1.418774 A    
C17   C18   1.360844 D    
N9    O24   1.301304 A    
C17   N6    1.444214 S    
C50   N4    1.435436 S    
N8    O21   1.302165 A    
C55   H27   1.111219 S    
