data_mof_unit_31182.cif
_audit_creation_date              2012-12-10T16:41:58-0500
_audit_creation_method            fapswitch 2.2
_symmetry_space_group_name_H-M    P1
_symmetry_Int_Tables_number       1
_space_group_crystal_system       triclinic
_cell_length_a                    10.911704
_cell_length_b                    8.69534
_cell_length_c                    7.549696
_cell_angle_alpha                 102.590934
_cell_angle_beta                  95.895241
_cell_angle_gamma                 94.055359
_cell_volume                      692.192724843

loop_
_atom_site_label
_atom_site_type_symbol
_atom_type_description
_atom_site_fract_x
_atom_site_fract_y
_atom_site_fract_z
_atom_type_partial_charge
C1    C     C_R   0.494738 0.200116 0.453727 0.880661
C2    C     C_2   0.488945 0.032028 0.428622 -0.361914
C3    C     C_3   0.605786 0.688194 0.069010 -0.027678
C4    C     C_3   0.727899 0.725248 0.997892 -0.836071
C5    C     C_2   0.507346 0.968113 0.572492 -0.361209
C6    C     C_R   0.265302 0.498979 0.498991 0.876060
C7    C     C_R   0.503911 0.799906 0.546486 0.854217
C8    C     C_R   0.734203 0.497719 0.500203 0.855476
C9    C     C_2   0.919539 0.475663 0.349080 -0.271876
C10   C     C_2   0.865526 0.484968 0.501788 -0.354322
C11   C     C_2   0.052420 0.457622 0.344101 0.440583
C12   C     C_2   0.132887 0.506218 0.497979 -0.331977
Cu1   Cu    Cu3+1 0.513740 0.517380 0.684380 0.946413
Cu2   Cu    Cu3+1 0.486260 0.482620 0.315620 0.969376
H1    H     H_    0.864391 0.476437 0.221051 0.170801
H2    H     H_    0.784887 0.821523 0.100969 0.200177
H3    H     H_    0.549257 0.789298 0.071092 0.152683
H4    H     H_    0.637994 0.679992 0.206036 0.212544
H5    H     H_    0.915988 0.476262 0.630002 0.149755
H6    H     H_    0.103074 0.559268 0.628107 0.109378
H7    H     H_    0.468451 0.960598 0.290372 0.167023
H8    H     H_    0.526003 0.039836 0.711378 0.178246
H9    H     H_    0.412378 0.363856 0.948729 0.221687
H10   H     H_    0.022626 0.362330 0.083156 0.311847
H11   H     H_    0.781409 0.620123 0.977862 0.249471
H12   H     H_    0.714035 0.769736 0.871620 0.271976
N1    N     N_2   0.465540 0.456420 0.038510 -0.199742
N2    N     N_2   0.534460 0.543580 0.961490 -0.084919
O1    O     O_R   0.508930 0.286130 0.619780 -0.589294
O2    O     O_R   0.485720 0.256780 0.308360 -0.586436
O3    O     O_R   0.333540 0.514670 0.655670 -0.597971
O4    O     O_R   0.310330 0.485320 0.344250 -0.509254
O5    O     O_R   0.514280 0.743220 0.691640 -0.592491
O6    O     O_R   0.491070 0.713870 0.380220 -0.616188
O7    O     O_R   0.689670 0.514680 0.655750 -0.586975
O8    O     O_R   0.666460 0.485330 0.344330 -0.603310
O9    O     O_3   0.094449 0.393338 0.179474 -0.706748

loop_
_geom_bond_atom_site_label_1
_geom_bond_atom_site_label_2
_ccdc_geom_bond_type
Cu2   O6    S    
C6    O4    A    
C11   C12   D    
Cu1   N2    S    
Cu1   O5    S    
C11   O9    S    
H9    N1    S    
Cu2   N1    S    
C9    C11   S    
C9    C10   D    
C4    H12   S    
C10   H5    S    
C12   H6    S    
C2    H7    S    
C1    O1    A    
H10   O9    S    
C9    H1    S    
Cu1   Cu2   S    
Cu2   O8    S    
C7    O5    A    
C3    H3    S    
Cu2   O2    S    
Cu1   O1    S    
C4    H2    S    
C4    H11   S    
C6    C12   S    
C7    O6    A    
C2    C5    D    
C3    N2    S    
C3    C4    S    
C3    H4    S    
C8    C10   S    
C1    C2    S    
C8    O8    A    
N1    N2    D    
C5    C7    S    
C1    O2    A    
C6    O3    A    
Cu1   O3    S    
Cu1   O7    S    
C5    H8    S    
Cu2   O4    S    
C8    O7    A    
