data_mof_unit_59144.cif
_audit_creation_date              2012-10-26T17:12:29-0400
_audit_creation_method            fapswitch 2.2
_symmetry_space_group_name_H-M    P1
_symmetry_Int_Tables_number       1
_space_group_crystal_system       triclinic
_cell_length_a                    16.724818
_cell_length_b                    16.724818
_cell_length_c                    16.724817
_cell_angle_alpha                 67.792209
_cell_angle_beta                  67.792215
_cell_angle_gamma                 67.792202
_cell_volume                      3856.13150258

loop_
_atom_site_label
_atom_site_type_symbol
_atom_type_description
_atom_site_fract_x
_atom_site_fract_y
_atom_site_fract_z
_atom_type_partial_charge
C1    C     C_R   0.029161 0.827946 0.564258 0.587643
C2    C     C_R   0.028846 0.564406 0.828008 0.530784
C3    C     C_R   0.172054 0.970839 0.435742 0.587643
C4    C     C_R   0.828008 0.028847 0.564406 0.530783
C5    C     C_R   0.449519 0.069995 0.704187 0.260206
C6    C     C_R   0.550994 0.930395 0.295293 0.263375
C7    C     C_R   0.069994 0.704187 0.449519 0.260207
C8    C     C_R   0.930395 0.295293 0.550994 0.263375
C9    C     C_R   0.704187 0.449519 0.069995 0.260207
C10   C     C_R   0.295293 0.550994 0.930395 0.263375
C11   C     C_R   0.295813 0.930006 0.550481 0.260207
C12   C     C_R   0.971153 0.171992 0.435594 0.530783
C13   C     C_R   0.704707 0.069606 0.449006 0.263375
C14   C     C_R   0.550481 0.295813 0.930006 0.260206
C15   C     C_R   0.449006 0.704707 0.069606 0.263375
C16   C     C_R   0.930005 0.550481 0.295813 0.260206
C17   C     C_R   0.069605 0.449006 0.704707 0.263375
C18   C     C_R   0.542720 0.024631 0.542028 0.017422
C19   C     C_R   0.457972 0.975371 0.457279 0.017422
C20   C     C_R   0.024630 0.542028 0.542720 0.017422
C21   C     C_R   0.975370 0.457280 0.457972 0.017422
C22   C     C_R   0.542028 0.542720 0.024631 0.017422
C23   C     C_R   0.827946 0.564258 0.029161 0.587644
C24   C     C_R   0.457279 0.457972 0.975370 0.017422
C25   C     C_R   0.586370 0.014549 0.454338 -0.028310
C26   C     C_R   0.414673 0.985059 0.545027 -0.005501
C27   C     C_R   0.014548 0.454338 0.586371 -0.028310
C28   C     C_R   0.985058 0.545028 0.414673 -0.005501
C29   C     C_R   0.454338 0.586371 0.014549 -0.028310
C30   C     C_R   0.545028 0.414673 0.985058 -0.005501
C31   C     C_R   0.545662 0.985452 0.413629 -0.028310
C32   C     C_R   0.454972 0.014944 0.585326 -0.005501
C33   C     C_R   0.413629 0.545662 0.985452 -0.028310
C34   C     C_R   0.171992 0.435594 0.971153 0.530783
C35   C     C_R   0.585327 0.454972 0.014943 -0.005501
C36   C     C_R   0.985451 0.413629 0.545662 -0.028310
C37   C     C_R   0.014942 0.585327 0.454972 -0.005501
C38   C     C_R   0.407164 0.044263 0.663224 -0.129793
C39   C     C_R   0.592895 0.957279 0.334972 -0.074562
C40   C     C_R   0.044262 0.663225 0.407164 -0.129793
C41   C     C_R   0.957279 0.334972 0.592896 -0.074563
C42   C     C_R   0.663225 0.407164 0.044262 -0.129793
C43   C     C_R   0.334972 0.592895 0.957279 -0.074563
C44   C     C_R   0.336775 0.955739 0.592836 -0.129793
C45   C     C_R   0.564258 0.029161 0.827946 0.587644
C46   C     C_R   0.665028 0.042722 0.407104 -0.074563
C47   C     C_R   0.592836 0.336775 0.955738 -0.129794
C48   C     C_R   0.407104 0.665028 0.042722 -0.074563
C49   C     C_R   0.955738 0.592836 0.336775 -0.129793
C50   C     C_R   0.042721 0.407104 0.665028 -0.074562
C51   C     C_R   0.544279 0.053030 0.675145 0.051393
C52   C     C_R   0.455943 0.946498 0.324710 -0.006826
C53   C     C_R   0.053030 0.675145 0.544279 0.051394
C54   C     C_R   0.946498 0.324710 0.455943 -0.006826
C55   C     C_R   0.675145 0.544279 0.053030 0.051394
C56   C     C_R   0.435594 0.971153 0.171992 0.530783
C57   C     C_R   0.324710 0.455943 0.946498 -0.006826
C58   C     C_R   0.324855 0.946971 0.455721 0.051394
C59   C     C_R   0.675289 0.053502 0.544057 -0.006826
C60   C     C_R   0.455720 0.324855 0.946971 0.051394
C61   C     C_R   0.544057 0.675289 0.053502 -0.006826
C62   C     C_R   0.946970 0.455721 0.324855 0.051393
C63   C     C_R   0.053502 0.544057 0.675289 -0.006826
C64   C     C_R   0.597182 0.047246 0.728351 -0.000300
C65   C     C_R   0.402769 0.952781 0.271562 -0.045759
C66   C     C_R   0.047245 0.728351 0.597182 -0.000300
C67   C     C_R   0.435742 0.172054 0.970839 0.587644
C68   C     C_R   0.952781 0.271562 0.402769 -0.045759
C69   C     C_R   0.728351 0.597182 0.047246 -0.000300
C70   C     C_R   0.271562 0.402769 0.952781 -0.045759
C71   C     C_R   0.271649 0.952754 0.402818 -0.000299
C72   C     C_R   0.728438 0.047219 0.597231 -0.045759
C73   C     C_R   0.402818 0.271649 0.952755 -0.000299
C74   C     C_R   0.597231 0.728438 0.047219 -0.045759
C75   C     C_R   0.952754 0.402818 0.271649 -0.000300
C76   C     C_R   0.047219 0.597231 0.728438 -0.045759
C77   C     C_R   0.688012 0.044522 0.688034 -0.170306
C78   C     C_R   0.564406 0.828008 0.028847 0.530784
C79   C     C_R   0.311966 0.955477 0.311988 -0.170306
C80   C     C_R   0.044522 0.688033 0.688012 -0.170306
C81   C     C_R   0.955478 0.311988 0.311966 -0.170306
C82   C     C_R   0.688033 0.688012 0.044522 -0.170306
C83   C     C_R   0.311988 0.311966 0.955478 -0.170306
C84   C     C_R   0.587671 0.043287 0.587320 -0.038038
C85   C     C_R   0.412679 0.956715 0.412329 -0.038038
C86   C     C_R   0.043286 0.587320 0.587671 -0.038039
C87   C     C_R   0.956714 0.412329 0.412679 -0.038039
C88   C     C_R   0.587320 0.587671 0.043286 -0.038039
C89   C     C_R   0.970839 0.435742 0.172054 0.587644
C90   C     C_R   0.412329 0.412679 0.956714 -0.038039
Cu1   Cu    Cu3+1 0.995180 0.995180 0.424630 1.022026
Cu2   Cu    Cu3+1 0.004820 0.004820 0.575370 1.022023
Cu3   Cu    Cu3+1 0.995180 0.424630 0.995180 1.022026
Cu4   Cu    Cu3+1 0.004820 0.575370 0.004820 1.022025
Cu5   Cu    Cu3+1 0.424630 0.995180 0.995180 1.022025
Cu6   Cu    Cu3+1 0.575370 0.004820 0.004820 1.022026
H1    H     H_    0.335363 0.053719 0.689038 0.095900
H2    H     H_    0.335354 0.691957 0.052084 0.132212
H3    H     H_    0.946282 0.664637 0.310961 0.095900
H4    H     H_    0.052083 0.335354 0.691957 0.132212
H5    H     H_    0.728961 0.036518 0.729035 0.169855
H6    H     H_    0.270965 0.963481 0.271039 0.169855
H7    H     H_    0.036518 0.729035 0.728961 0.169855
H8    H     H_    0.963482 0.271039 0.270965 0.169855
H9    H     H_    0.729035 0.728961 0.036518 0.169855
H10   H     H_    0.271039 0.270965 0.963482 0.169855
H11   H     H_    0.334073 0.128687 0.775152 0.321350
H12   H     H_    0.664645 0.947917 0.308043 0.132212
H13   H     H_    0.572718 0.841089 0.236848 0.326951
H14   H     H_    0.128687 0.775151 0.334073 0.321350
H15   H     H_    0.841089 0.236848 0.572718 0.326951
H16   H     H_    0.775152 0.334073 0.128688 0.321350
H17   H     H_    0.236848 0.572718 0.841089 0.326951
H18   H     H_    0.224846 0.871316 0.665927 0.321349
H19   H     H_    0.763153 0.158911 0.427282 0.326951
H20   H     H_    0.665926 0.224851 0.871310 0.321351
H21   H     H_    0.427282 0.763152 0.158911 0.326951
H22   H     H_    0.871313 0.665927 0.224848 0.321350
H23   H     H_    0.053718 0.689039 0.335363 0.095900
H24   H     H_    0.158911 0.427282 0.763152 0.326951
H25   H     H_    0.947917 0.308043 0.664645 0.132212
H26   H     H_    0.689039 0.335363 0.053718 0.095900
H27   H     H_    0.308043 0.664645 0.947917 0.132213
H28   H     H_    0.310960 0.946284 0.664637 0.095900
H29   H     H_    0.691956 0.052084 0.335354 0.132212
H30   H     H_    0.664637 0.310961 0.946282 0.095900
O1    O     O_R   0.124540 0.978640 0.385460 -0.507916
O2    O     O_R   0.124540 0.385460 0.978640 -0.507293
O3    O     O_R   0.021360 0.875460 0.614540 -0.507917
O4    O     O_R   0.978640 0.124540 0.385460 -0.507293
O5    O     O_R   0.013780 0.867370 0.487190 -0.455729
O6    O     O_R   0.986220 0.132630 0.512810 -0.471644
O7    O     O_R   0.867370 0.487190 0.013780 -0.455730
O8    O     O_R   0.132630 0.512810 0.986220 -0.471644
O9    O     O_R   0.487190 0.013780 0.867370 -0.455730
O10   O     O_R   0.512810 0.986220 0.132630 -0.471644
O11   O     O_R   0.512810 0.132630 0.986220 -0.455729
O12   O     O_R   0.875460 0.021360 0.614540 -0.507293
O13   O     O_R   0.487190 0.867370 0.013780 -0.471644
O14   O     O_R   0.986220 0.512810 0.132630 -0.455730
O15   O     O_R   0.013780 0.487190 0.867370 -0.471644
O16   O     O_R   0.132630 0.986220 0.512810 -0.455731
O17   O     O_R   0.867370 0.013780 0.487190 -0.471644
O18   O     O_3   0.398745 0.121304 0.763940 -0.663418
O19   O     O_3   0.606306 0.878937 0.236797 -0.673720
O20   O     O_3   0.121303 0.763940 0.398745 -0.663418
O21   O     O_3   0.878937 0.236797 0.606306 -0.673720
O22   O     O_3   0.763940 0.398745 0.121303 -0.663418
O23   O     O_R   0.978640 0.385460 0.124540 -0.507916
O24   O     O_3   0.236797 0.606306 0.878937 -0.673720
O25   O     O_3   0.236060 0.878697 0.601255 -0.663416
O26   O     O_3   0.763203 0.121063 0.393694 -0.673720
O27   O     O_3   0.601255 0.236060 0.878696 -0.663420
O28   O     O_3   0.393694 0.763203 0.121063 -0.673720
O29   O     O_3   0.878697 0.601255 0.236060 -0.663418
O30   O     O_3   0.121063 0.393694 0.763203 -0.673720
O31   O     O_R   0.021360 0.614540 0.875460 -0.507293
O32   O     O_R   0.385460 0.124540 0.978640 -0.507916
O33   O     O_R   0.614540 0.875460 0.021360 -0.507293
O34   O     O_R   0.614540 0.021360 0.875460 -0.507916
O35   O     O_R   0.385460 0.978640 0.124540 -0.507293
O36   O     O_R   0.875460 0.614540 0.021360 -0.507916

loop_
_geom_bond_atom_site_label_1
_geom_bond_atom_site_label_2
_ccdc_geom_bond_type
C25   C31   A    
C21   C87   A    
C26   C32   A    
Cu3   Cu4   S    
C65   C79   A    
C22   C29   A    
Cu5   O32   S    
Cu4   O14   S    
C64   C77   A    
C23   C69   S    
C46   H29   S    
Cu3   O23   S    
Cu5   Cu6   S    
C3    O16   A    
C2    C76   S    
Cu2   O12   S    
C78   O13   A    
C4    O17   A    
C71   C79   A    
C26   C44   A    
C66   C80   A    
Cu6   O10   S    
C21   C36   A    
C45   O34   A    
C22   C35   A    
C12   C68   S    
C9    C42   A    
Cu1   O1    S    
C30   C35   A    
C68   C81   A    
C15   C48   A    
C52   C85   A    
Cu2   O6    S    
C9    O22   S    
C37   C40   A    
C1    O3    A    
Cu5   O35   S    
C54   C87   A    
C3    O1    A    
C58   C71   A    
Cu1   O5    S    
C63   C76   A    
C34   O8    A    
C56   C65   S    
C29   C33   A    
C60   C73   A    
H24   O30   S    
C82   H9    S    
C41   H25   S    
C55   C88   A    
C35   C42   A    
C19   C26   A    
C15   O28   S    
C69   C82   A    
C77   H5    S    
C20   C86   A    
H19   O26   S    
C18   C84   A    
C7    C40   A    
C79   H6    S    
C53   C86   A    
C67   C73   S    
C32   C38   A    
C57   C70   A    
C11   C58   A    
Cu2   O16   S    
Cu4   O36   S    
Cu1   Cu2   S    
C27   C50   A    
C59   C72   A    
C7    O20   S    
C89   O23   A    
C19   C31   A    
C5    C38   A    
C36   C41   A    
C18   C25   A    
C16   C62   A    
H18   O25   S    
C74   C82   A    
C38   H1    S    
C56   O10   A    
C24   C33   A    
Cu1   O17   S    
C39   H12   S    
C45   O9    A    
C57   C90   A    
C23   O7    A    
C29   C48   A    
C33   C43   A    
C30   C47   A    
C11   C44   A    
C10   C57   A    
C16   C49   A    
C8    C54   A    
Cu6   O11   S    
Cu1   O4    S    
C6    O19   S    
C75   C81   A    
C5    O18   S    
C80   H7    S    
C1    O5    A    
C56   O35   A    
C44   H28   S    
H16   O22   S    
C3    C71   S    
C72   C77   A    
C70   C83   A    
C61   C88   A    
H15   O21   S    
C49   H3    S    
C28   C49   A    
C89   O14   A    
Cu6   O33   S    
C16   O29   S    
Cu5   O9    S    
C1    C66   S    
C15   C61   A    
H22   O29   S    
Cu5   O13   S    
C8    C41   A    
C53   C66   A    
H20   O27   S    
C55   C69   A    
C12   O4    A    
C9    C55   A    
C11   O25   S    
Cu6   O34   S    
C21   C28   A    
Cu4   O31   S    
C22   C88   A    
C14   O27   S    
C61   C74   A    
C62   C75   A    
C8    O21   S    
C18   C32   A    
C7    C53   A    
C58   C85   A    
C43   H27   S    
C4    C72   S    
Cu3   O15   S    
C42   H26   S    
C47   H30   S    
C34   C70   S    
C12   O6    A    
C10   C43   A    
C50   H4    S    
H17   O24   S    
H13   O19   S    
C51   C64   A    
C76   C80   A    
C13   O26   S    
C19   C85   A    
C24   C90   A    
C17   C50   A    
C14   C47   A    
C13   C59   A    
C20   C27   A    
C60   C90   A    
C27   C36   A    
C14   C60   A    
C62   C87   A    
C45   C64   S    
Cu3   O7    S    
C59   C84   A    
C83   H10   S    
C23   O36   A    
Cu2   O3    S    
Cu3   O2    S    
C63   C86   A    
C10   O24   S    
C20   C37   A    
C13   C46   A    
C28   C37   A    
C2    O31   A    
C51   C84   A    
Cu4   O8    S    
C31   C39   A    
C67   O32   A    
C48   H2    S    
C67   O11   A    
C24   C30   A    
C75   C89   S    
C4    O12   A    
C78   O33   A    
C40   H23   S    
C54   C68   A    
C34   O2    A    
C74   C78   S    
H21   O28   S    
C2    O15   A    
C6    C39   A    
C5    C51   A    
C6    C52   A    
H11   O18   S    
H14   O20   S    
C17   O30   S    
C25   C46   A    
C73   C83   A    
C17   C63   A    
C52   C65   A    
C81   H8    S    
