data_mof_unit_61499.cif
_audit_creation_date              2013-03-05T15:51:18-0500
_audit_creation_method            fapswitch 2.2
_symmetry_space_group_name_H-M    P1
_symmetry_Int_Tables_number       1
_space_group_crystal_system       triclinic
_cell_length_a                    8.555224
_cell_length_b                    17.578004
_cell_length_c                    17.497261
_cell_angle_alpha                 98.529807
_cell_angle_beta                  95.905903
_cell_angle_gamma                 98.562727
_cell_volume                      2552.09225232

loop_
_atom_site_label
_atom_site_type_symbol
_atom_site_description
_atom_site_fract_x
_atom_site_fract_y
_atom_site_fract_z
_atom_type_partial_charge
P1    P     P_3+3 0.996700 0.679700 0.572930 0.522277
O1    O     O_2   0.169780 0.691990 0.551040 -0.381163
O2    O     O_3   0.896620 0.594010 0.545570 -0.375764
O3    O     O_3   0.384860 0.644020 0.410190 -0.294892
O4    O     O_2   0.296036 0.777985 0.461620 -0.373445
O5    O     O_3   0.017195 0.704631 0.674830 -0.576354
O6    O     O_3   0.448290 0.784169 0.343442 -0.599728
C1    C     C_3   0.546015 0.782708 0.218716 0.360273
H1    H     H_    0.591136 0.844770 0.244318 0.163878
P2    P     P_3+3 0.328720 0.438370 0.322170 0.585262
P3    P     P_3+3 0.910552 0.598283 0.267403 0.605416
O7    O     O_2   0.160250 0.462050 0.312130 -0.337333
O8    O     O_3   0.957280 0.604490 0.369120 -0.309486
O9    O     O_2   0.032703 0.555500 0.226370 -0.361233
O10   O     O_3   0.283743 0.338066 0.272461 -0.585737
O11   O     O_3   0.933067 0.690764 0.239287 -0.472563
C2    C     C_3   0.041657 0.746503 0.292516 0.381675
H2    H     H_    0.161880 0.731252 0.290728 0.125054
H3    H     H_    0.010434 0.748515 0.352858 -0.007609
C3    C     C_3   0.039588 0.827482 0.267828 0.893825
C4    C     C_3   0.776559 0.355953 0.276161 1.101896
C5    C     C_3   0.897276 0.352329 0.218070 -0.731830
H4    H     H_    0.867099 0.297771 0.174466 0.239879
H5    H     H_    0.902962 0.403054 0.186770 0.229797
H6    H     H_    0.014178 0.351560 0.246947 0.267168
Ba1   Ba    Ba6+2 0.160000 0.538340 0.465920 1.701863
C6    C     C_3   0.093639 0.654180 0.714146 0.691708
H7    H     H_    0.189063 0.632837 0.682519 -0.037794
C7    C     C_3   0.169358 0.700658 0.794188 0.555401
H8    H     H_    0.248959 0.753482 0.785286 0.068533
C8    C     C_3   0.257491 0.271781 0.310587 0.767561
C9    C     C_3   0.340556 0.205969 0.274105 0.082957
H9    H     H_    0.320087 0.200233 0.209379 0.148203
H10   H     H_    0.290945 0.148862 0.289900 0.164242
P4    P     P_3+3 0.813590 0.320290 0.427010 0.659543
O12   O     O_2   0.640500 0.307960 0.448930 -0.267388
O13   O     O_3   0.913680 0.405980 0.454370 -0.312626
O14   O     O_3   0.425430 0.355970 0.589750 -0.344062
O15   O     O_3   0.780294 0.295774 0.322694 -0.514003
P5    P     P_3+3 0.899637 0.404823 0.733915 0.547184
O16   O     O_3   0.389690 0.539950 0.593560 -0.374367
O17   O     O_3   0.853010 0.395500 0.630820 -0.344886
O18   O     O_2   0.793070 0.460616 0.769023 -0.297814
O19   O     O_3   0.822835 0.318892 0.767570 -0.617298
Ba2   Ba    Ba6+2 0.650170 0.461650 0.534010 1.760210
P6    P     P_3+3 0.440969 0.746062 0.431030 0.531367
C10   C     C_3   0.511123 0.736299 0.286063 1.131675
O20   O     O_3   0.420600 0.460050 0.406370 -0.319833
C11   C     C_3   0.555766 0.704209 0.664308 0.220691
H11   H     H_    0.675372 0.694782 0.650133 0.118996
H12   H     H_    0.465425 0.683967 0.612114 0.061024
C12   C     C_3   0.556165 0.791383 0.689646 -0.071546
H13   H     H_    0.463994 0.800700 0.728523 0.172947
H14   H     H_    0.527911 0.819350 0.638376 0.113226
P7    P     P_3+3 0.481046 0.563635 0.692123 0.544450
O21   O     O_2   0.650040 0.537900 0.687840 -0.304539
O22   O     O_3   0.518555 0.664566 0.725406 -0.498086
C13   C     C_3   0.893659 0.253270 0.742088 1.097222
C14   C     C_3   0.885230 0.199367 0.803785 -0.050026
H15   H     H_    0.758529 0.178176 0.809614 0.134988
H16   H     H_    0.944133 0.232480 0.861234 0.134014
P8    P     P_3+3 0.368052 0.256791 0.594463 0.597548
C15   C     C_3   0.443283 0.311140 0.740180 0.458344
H17   H     H_    0.340365 0.342105 0.732983 0.045686
O23   O     O_2   0.475667 0.213251 0.543690 -0.276321
O24   O     O_3   0.418804 0.239560 0.689134 -0.482421
H18   H     H_    0.550257 0.349399 0.728816 0.153898
H19   H     H_    0.493616 0.353347 0.864395 0.223975
C16   C     C_3   0.467421 0.296847 0.823932 -0.866178
H20   H     H_    0.568778 0.265143 0.832636 0.274249
H21   H     H_    0.358614 0.261508 0.837886 0.261412
C17   C     C_2   0.738406 0.730729 0.509943 -0.401149
C18   C     C_3   0.624849 0.787874 0.502031 0.195018
C19   C     C_2   0.707419 0.864246 0.484679 -0.268892
C20   C     C_2   0.866779 0.886828 0.504352 -0.194472
C21   C     C_2   0.960957 0.829459 0.537034 0.237459
C22   C     C_1   0.892317 0.755047 0.534491 0.247759
C23   C     C_R   0.095176 0.142430 0.541091 -0.159196
C24   C     C_R   0.154795 0.221892 0.553714 0.199270
C25   C     C_R   0.914131 0.247357 0.478082 0.136989
C26   C     C_R   0.855371 0.165248 0.465467 0.247292
C27   C     C_R   0.943464 0.113018 0.499764 0.035935
C28   C     C_2   0.947312 0.967572 0.494584 0.527257
C29   C     C_2   0.869499 0.030105 0.501324 -0.073030
C30   C     C_R   0.057956 0.274059 0.528709 0.034689
H22   H     H_    0.746606 0.021977 0.512915 0.145707
H23   H     H_    0.166067 0.104231 0.566468 0.224979
H24   H     H_    0.634363 0.901925 0.459530 0.191976
H25   H     H_    0.682532 0.675201 0.521738 0.160108
H26   H     H_    0.728576 0.552872 0.109408 0.209654
C31   C     C_R   0.592352 0.536503 0.283320 0.046831
C32   C     C_R   0.438613 0.494775 0.256804 0.254884
C33   C     C_R   0.384873 0.480894 0.176326 -0.198019
C34   C     C_R   0.487286 0.504258 0.122954 0.019817
C35   C     C_R   0.647319 0.537093 0.150222 -0.325954
C36   C     C_R   0.701493 0.551755 0.230488 0.274118
C37   C     C_R   0.425957 0.515149 0.839370 0.247525
C38   C     C_R   0.368367 0.513201 0.760371 0.174764
C39   C     C_R   0.107375 0.447746 0.779937 0.252758
C40   C     C_R   0.163374 0.448826 0.859232 0.164340
C41   C     C_R   0.323193 0.482790 0.889183 -0.199537
C42   C     C_1   0.380015 0.488170 0.971712 0.196131
C43   C     C_1   0.428646 0.494438 0.040480 0.106499
C44   C     C_R   0.209734 0.482641 0.733807 -0.503046
H27   H     H_    0.265709 0.449556 0.155223 0.183104
H28   H     H_    0.161764 0.492513 0.677953 0.191981
O25   O     O_3   0.398588 0.668539 0.258239 -0.725613
H29   H     H_    0.433936 0.641110 0.211253 0.281706
O26   O     O_3   0.980357 0.592310 0.725517 -0.720310
H30   H     H_    0.949450 0.558048 0.674344 0.343650
O27   O     O_3   0.260811 0.656979 0.835666 -0.731489
H31   H     H_    0.184992 0.619319 0.856441 0.350548
Br1   Br    Br    0.009365 0.736672 0.856124 -0.230812
Br2   Br    Br    0.039806 0.218030 0.292236 -0.574597
Br3   Br    Br    0.311761 0.294738 0.418025 -0.377152
Br4   Br    Br    0.357735 0.781682 0.145687 -0.358438
O28   O     O_3   0.502115 0.219341 0.300040 -0.626323
H32   H     H_    0.548486 0.180754 0.265658 0.382560
O29   O     O_3   0.653837 0.715756 0.317141 -0.761705
H33   H     H_    0.721038 0.763994 0.346491 0.297891
O30   O     O_3   0.664141 0.754988 0.177505 -0.623377
H34   H     H_    0.615452 0.704134 0.145233 0.339931
Br5   Br    Br    0.761810 0.844228 0.743142 -0.327620
O31   O     O_3   0.905742 0.857820 0.290538 -0.733792
H35   H     H_    0.924522 0.872916 0.347923 0.281808
Br6   Br    Br    0.769268 0.195643 0.647893 -0.425088
O32   O     O_3   0.052154 0.273087 0.728187 -0.773554
H36   H     H_    0.115724 0.293448 0.779697 0.281928
O33   O     O_3   0.961476 0.135576 0.782493 -0.646934
H37   H     H_    0.951359 0.103274 0.824237 0.368717
Br7   Br    Br    0.145743 0.872928 0.612207 -0.420858
O34   O     O_3   0.102145 0.978812 0.477244 -0.696380
H38   H     H_    0.136634 0.927385 0.467303 0.358306
Br8   Br    Br    0.653319 0.122380 0.405211 -0.362441
Br9   Br    Br    0.130569 0.382152 0.562413 -0.403173
Br10  Br    Br    0.635856 0.570238 0.882052 -0.303126
Br11  Br    Br    0.021357 0.409343 0.928125 -0.498675
Br12  Br    Br    0.653263 0.573819 0.391765 -0.384153
Br13  Br    Br    0.231508 0.901174 0.314034 -0.468386
O35   O     O_3   0.031684 0.819383 0.186489 -0.592566
H39   H     H_    0.026203 0.871770 0.172659 0.380617
Br14  Br    Br    0.582090 0.337185 0.204192 -0.577363
O36   O     O_3   0.798567 0.429937 0.320418 -0.734098
H40   H     H_    0.705100 0.428884 0.349352 0.313626

loop_
_geom_bond_atom_site_label_1
_geom_bond_atom_site_label_2
_geom_bond_distance
_ccdc_geom_bond_type
P3    C36   1.858754 S    
C23   H23   1.081726 S    
P7    O21   1.583522 D    
C41   C42   1.460082 S    
C6    C7    1.537801 S    
C42   C43   1.215333 T    
P1    C22   1.869995 S    
C18   C19   1.508659 S    
C35   C36   1.405979 A    
C9    O28   1.383519 S    
P5    C39   1.871431 S    
C44   H28   1.068923 S    
C37   C38   1.412567 A    
C26   Br8   1.915429 S    
O3    P6    1.759056 S    
C28   O34   1.381416 S    
C25   C30   1.413995 A    
C13   O32   1.404090 S    
C28   C29   1.364159 D    
C3    Br13  1.951994 S    
C32   C33   1.408977 A    
P4    O13   1.596521 S    
C29   H22   1.083827 S    
C4    Br14  1.935133 S    
P2    O10   1.813119 S    
C21   Br7   1.930638 S    
C1    O30   1.403936 S    
O36   H40   0.988810 S    
P4    C25   1.921463 S    
C2    C3    1.549675 S    
C11   O22   1.398129 S    
P1    O1    1.559473 D    
C16   H21   1.109761 S    
O16   P7    1.780757 S    
O14   Ba2   2.821096 S    
Ba1   Ba2   4.685501 S    
C33   H27   1.083553 S    
C31   C36   1.405295 A    
H19   C16   1.109204 S    
P5    O18   1.540520 D    
C15   C16   1.521710 S    
Ba2   O21   2.823487 S    
O19   C13   1.416926 S    
O34   H38   0.988851 S    
C11   H12   1.111054 S    
C5    H6    1.076004 S    
O25   H29   0.988336 S    
C8    Br2   1.930572 S    
P8    O23   1.548895 D    
Ba1   O20   2.986057 S    
C17   C18   1.508706 S    
P2    Ba1   3.418949 S    
C10   O29   1.403471 S    
C39   C44   1.388162 A    
C15   O24   1.405133 S    
P2    C32   1.858803 S    
C14   H15   1.112603 S    
C4    C5    1.523214 S    
C16   H20   1.107965 S    
C8    Br3   1.857910 S    
C12   H14   1.107447 S    
C26   C27   1.430874 A    
O2    Ba1   2.979162 S    
C15   H18   1.106001 S    
C14   H16   1.112668 S    
C19   C20   1.355186 D    
P8    O24   1.750485 S    
P1    O5    1.755786 S    
O6    P6    1.764396 S    
P8    C24   1.866182 S    
H26   C35   1.083357 S    
O35   H39   0.992641 S    
C4    O36   1.387344 S    
C31   C32   1.403355 A    
C23   C24   1.390343 A    
C1    H1    1.110790 S    
C13   C14   1.538644 S    
O2    Ba2   2.865561 S    
O7    Ba1   2.823275 S    
P1    O2    1.596489 S    
P4    O12   1.559770 D    
C9    H10   1.115235 S    
P4    O15   1.794856 S    
C20   C21   1.520301 S    
C7    H8    1.107542 S    
C31   Br12  1.904676 S    
P3    O11   1.756496 S    
C23   C27   1.403904 A    
O5    C6    1.395881 S    
C4    O15   1.429375 S    
C11   C12   1.530123 S    
C2    H2    1.103164 S    
O12   Ba2   2.869925 S    
O1    Ba1   2.869431 S    
C33   C34   1.408347 A    
C21   C22   1.344007 D    
O30   H34   0.991166 S    
P2    O7    1.558750 D    
C30   Br9   1.893315 S    
C34   C43   1.454397 S    
C13   Br6   1.922968 S    
C10   O25   1.404500 S    
P7    O22   1.753647 S    
P2    O20   1.561907 S    
P1    Ba1   3.438584 S    
C5    H5    1.111193 S    
O8    Ba1   2.794444 S    
O13   Ba2   2.980023 S    
O32   H36   0.990783 S    
P4    Ba2   3.439086 S    
C24   C30   1.410446 A    
C12   H13   1.107767 S    
O33   H37   0.992375 S    
Ba2   O20   2.812167 S    
C7    Br1   1.951533 S    
C14   O33   1.401971 S    
O27   H31   0.991532 S    
C7    O27   1.398475 S    
C8    C9    1.539436 S    
C25   C26   1.432207 A    
C17   C22   1.327618 D    
O3    Ba1   2.821641 S    
O29   H33   0.989018 S    
Ba1   O13   2.864908 S    
O10   C8    1.427075 S    
O4    P6    1.547085 D    
C27   C29   1.505342 S    
C39   C40   1.416878 A    
C9    H9    1.115124 S    
C3    O35   1.402713 S    
C1    C10   1.558281 S    
P3    O9    1.549640 D    
O26   H30   0.989070 S    
C17   H25   1.079308 S    
P3    O8    1.766999 S    
C20   C28   1.524251 S    
O11   C2    1.403800 S    
C38   C44   1.387611 A    
P7    C38   1.854109 S    
P5    O17   1.784583 S    
C40   C41   1.420277 A    
C12   Br5   1.936708 S    
C34   C35   1.408480 A    
C3    O31   1.402180 S    
C40   Br11  1.926000 S    
C1    Br4   1.946444 S    
C15   H17   1.107986 S    
C2    H3    1.112262 S    
P5    O19   1.762955 S    
C6    O26   1.397005 S    
C11   H11   1.107500 S    
C6    H7    1.111776 S    
O16   Ba2   2.985276 S    
C5    H4    1.112268 S    
C37   Br10  1.926593 S    
C19   H24   1.084474 S    
O28   H32   0.993771 S    
O17   Ba2   2.795185 S    
P6    C18   1.881747 S    
C37   C41   1.418451 A    
Ba1   O16   2.812761 S    
O6    C10   1.414270 S    
O31   H35   0.989682 S    
O14   P8    1.755909 S    
