data_mof_unit_52110.cif
_audit_creation_date              2012-10-26T21:14:54-0400
_audit_creation_method            fapswitch 2.2
_symmetry_space_group_name_H-M    P1
_symmetry_Int_Tables_number       1
_space_group_crystal_system       triclinic
_cell_length_a                    15.073266
_cell_length_b                    10.826494
_cell_length_c                    13.667852
_cell_angle_alpha                 90.002837
_cell_angle_beta                  89.971826
_cell_angle_gamma                 89.582549
_cell_volume                      2230.40582155

loop_
_atom_site_label
_atom_site_type_symbol
_atom_type_description
_atom_site_fract_x
_atom_site_fract_y
_atom_site_fract_z
_atom_type_partial_charge
Br1   Br    Br    0.285462 0.321343 0.063653 -0.554768
Br2   Br    Br    0.715345 0.680480 0.936855 -0.611442
C1    C     C_R   0.497534 0.262132 0.499803 0.550144
C2    C     C_R   0.581750 0.878772 0.666458 0.041037
C3    C     C_R   0.454887 0.108264 0.239536 -0.137343
C4    C     C_R   0.545138 0.891690 0.760486 -0.136312
C5    C     C_R   0.415286 0.167380 0.159562 -0.093111
C6    C     C_R   0.584925 0.833066 0.840575 -0.091246
C7    C     C_R   0.338749 0.239280 0.172768 0.186599
C8    C     C_R   0.661734 0.761695 0.827528 0.185737
C9    C     C_R   0.467817 0.933530 0.420187 -0.151244
C10   C     C_R   0.532328 0.066436 0.579808 -0.148332
C11   C     C_R   0.504506 0.871691 0.500645 -0.003241
C12   C     C_R   0.502534 0.737855 0.500200 0.547229
C13   C     C_R   0.495618 0.128276 0.499360 -0.001247
C14   C     C_R   0.538101 0.938527 0.581236 -0.024422
C15   C     C_R   0.462022 0.061429 0.418778 -0.024054
C16   C     C_R   0.328452 0.500168 0.500026 0.543203
C17   C     C_R   0.671540 0.499773 0.499968 0.542639
C18   C     C_R   0.554916 0.420671 0.793188 0.053708
C19   C     C_R   0.445174 0.579459 0.206814 0.048803
C20   C     C_R   0.445174 0.579373 0.793241 0.048899
C21   C     C_R   0.555063 0.420961 0.206767 0.047817
C22   C     C_R   0.444103 0.581598 0.896359 0.001444
C23   C     C_R   0.045973 0.482876 0.678977 0.268157
C24   C     C_R   0.556332 0.418968 0.103651 -0.001843
C25   C     C_R   0.500075 0.500085 0.948155 0.091415
C26   C     C_R   0.500248 0.500344 0.051853 0.088531
C27   C     C_R   0.556079 0.418571 0.896312 0.012544
C28   C     C_R   0.444202 0.581821 0.103694 0.011779
C29   C     C_R   0.388926 0.663352 0.948647 -0.134806
C30   C     C_R   0.611912 0.337693 0.051368 -0.125031
C31   C     C_R   0.388759 0.663251 0.051422 -0.119670
C32   C     C_R   0.611806 0.337514 0.948575 -0.116000
C33   C     C_R   0.814441 0.512401 0.411459 -0.125233
C34   C     C_R   0.953913 0.529326 0.321898 0.268568
C35   C     C_R   0.185488 0.490345 0.588634 -0.122080
C36   C     C_R   0.768297 0.500359 0.499893 -0.030575
C37   C     C_R   0.231671 0.501314 0.500135 -0.031005
C38   C     C_R   0.814638 0.489416 0.588225 -0.143129
C39   C     C_R   0.185342 0.514135 0.411926 -0.144569
C40   C     C_R   0.906922 0.491688 0.588949 -0.031493
C41   C     C_R   0.093012 0.515687 0.411495 -0.031286
C42   C     C_R   0.953470 0.504930 0.500039 0.003683
C43   C     C_R   0.046427 0.505154 0.500627 0.003559
C44   C     C_R   0.907031 0.515582 0.410462 0.030776
C45   C     C_R   0.301267 0.251032 0.265967 -0.067415
C46   C     C_R   0.092860 0.492719 0.590065 0.030203
C47   C     C_R   0.953085 0.479716 0.677287 -0.114766
C48   C     C_R   0.046832 0.526650 0.323071 -0.114607
C49   C     C_3   0.081538 0.566480 0.828757 0.019621
C50   C     C_3   0.153280 0.662458 0.807542 -0.278351
C51   C     C_3   0.149166 0.768835 0.880686 -0.473875
C52   C     C_3   0.915737 0.650937 0.190044 0.010619
C53   C     C_3   0.835658 0.731191 0.218456 -0.262736
C54   C     C_3   0.837653 0.856042 0.166751 -0.456350
C55   C     C_R   0.699254 0.749896 0.734347 -0.067201
C56   C     C_R   0.340673 0.192086 0.346133 -0.087312
C57   C     C_R   0.659626 0.808289 0.654046 -0.086561
C58   C     C_R   0.418349 0.121211 0.333595 0.040207
Cu1   Cu    Cu3+1 0.500010 0.499980 0.597420 0.946603
Cu2   Cu    Cu3+1 0.499990 0.500020 0.402580 0.939958
H1    H     H_    0.777956 0.519985 0.343448 0.170751
H2    H     H_    0.655373 0.274205 0.089954 0.111351
H3    H     H_    0.345377 0.726933 0.089973 0.104227
H4    H     H_    0.655311 0.274041 0.909979 0.110170
H5    H     H_    0.778956 0.478639 0.656577 0.133198
H6    H     H_    0.221066 0.523309 0.343450 0.130539
H7    H     H_    0.917124 0.466674 0.745181 0.128368
H8    H     H_    0.082757 0.532139 0.254478 0.125625
H9    H     H_    0.241705 0.305849 0.276319 0.131752
H10   H     H_    0.759054 0.695549 0.724136 0.126011
H11   H     H_    0.311270 0.202534 0.418020 0.107495
H12   H     H_    0.221966 0.479858 0.656418 0.176213
H13   H     H_    0.689098 0.797877 0.582188 0.100758
H14   H     H_    0.514716 0.054011 0.228484 0.108820
H15   H     H_    0.485153 0.945632 0.771443 0.112423
H16   H     H_    0.444483 0.158030 0.087540 0.137597
H17   H     H_    0.555700 0.842455 0.912580 0.138078
H18   H     H_    0.090156 0.533018 0.905036 0.185709
H19   H     H_    0.014429 0.610312 0.825529 0.121252
H20   H     H_    0.219777 0.617725 0.811640 0.175841
H21   H     H_    0.144050 0.700035 0.732554 0.157164
H22   H     H_    0.083034 0.814664 0.878161 0.160524
H23   H     H_    0.440663 0.881852 0.359272 0.128043
H24   H     H_    0.200495 0.838035 0.862092 0.153156
H25   H     H_    0.161845 0.734293 0.955970 0.155030
H26   H     H_    0.915386 0.638037 0.109393 0.181949
H27   H     H_    0.978588 0.699953 0.207808 0.109780
H28   H     H_    0.773483 0.682676 0.198448 0.202018
H29   H     H_    0.835739 0.746806 0.298806 0.151270
H30   H     H_    0.898243 0.907530 0.187660 0.148024
H31   H     H_    0.778516 0.911414 0.188355 0.155168
H32   H     H_    0.836674 0.843235 0.086133 0.192403
H33   H     H_    0.559484 0.118124 0.640716 0.129038
H34   H     H_    0.597759 0.358971 0.752089 0.115169
H35   H     H_    0.402299 0.641116 0.247913 0.114729
H36   H     H_    0.402566 0.641404 0.752205 0.116725
H37   H     H_    0.597692 0.358993 0.247824 0.126245
H38   H     H_    0.346159 0.727602 0.910065 0.100438
N1    N     N_R   0.499960 0.499900 0.743810 -0.235703
N2    N     N_R   0.500040 0.500100 0.256190 -0.238982
O1    O     O_R   0.500000 0.319630 0.582270 -0.510662
O2    O     O_3   0.908961 0.532550 0.233448 -0.570953
O3    O     O_R   0.500000 0.680370 0.417730 -0.514436
O4    O     O_R   0.499990 0.319660 0.417730 -0.493076
O5    O     O_R   0.500010 0.680340 0.582270 -0.493343
O6    O     O_R   0.370260 0.499960 0.582280 -0.509423
O7    O     O_R   0.629740 0.500040 0.417720 -0.511283
O8    O     O_R   0.370250 0.499990 0.417740 -0.506836
O9    O     O_R   0.629750 0.500010 0.582260 -0.506722
O10   O     O_3   0.091250 0.463180 0.765964 -0.562457

loop_
_geom_bond_atom_site_label_1
_geom_bond_atom_site_label_2
_ccdc_geom_bond_type
C21   H37   S    
C53   C54   S    
C24   C30   A    
C49   O10   S    
C20   H36   S    
C25   C27   A    
C22   C25   A    
C35   H12   S    
C32   H4    S    
C31   H3    S    
C37   C39   A    
Cu2   O3    S    
C50   C51   S    
C54   H32   S    
C20   N1    A    
C51   H22   S    
C52   O2    S    
Cu1   O1    S    
C53   H28   S    
C55   C57   A    
C21   N2    A    
C56   C58   A    
C5    C7    A    
C21   C24   A    
Cu1   O6    S    
C49   H18   S    
C53   H29   S    
C23   O10   S    
C12   O3    A    
C10   C14   A    
C38   H5    S    
C6    H17   S    
C29   C31   A    
C10   H33   S    
C34   C44   A    
C51   H24   S    
C49   H19   S    
C3    C58   A    
C38   C40   A    
C18   H34   S    
C47   H7    S    
C11   C12   S    
C39   C41   A    
C40   C42   A    
C42   C44   A    
C39   H6    S    
C23   C47   A    
C18   C27   A    
C17   O7    A    
C1    O4    A    
C54   H31   S    
C49   C50   S    
C8    C55   A    
Br1   C7    S    
C30   H2    S    
C52   H27   S    
C2    C4    A    
C3    C5    A    
C4    H15   S    
C4    C6    A    
C18   N1    A    
C40   C47   A    
C27   C32   A    
C30   C32   A    
C2    C14   S    
C50   H21   S    
Cu1   N1    S    
C16   C37   S    
C17   C36   S    
C19   H35   S    
Cu2   O8    S    
C10   C13   A    
C33   C36   A    
C51   H25   S    
C29   H38   S    
C35   C46   A    
C50   H20   S    
C41   C43   A    
C23   C46   A    
C45   H9    S    
C5    H16   S    
C19   N2    A    
C12   O5    A    
C7    C45   A    
C20   C22   A    
Br2   C8    S    
C57   H13   S    
C34   C48   A    
C42   C43   A    
C43   C46   A    
C1    O1    A    
C13   C15   A    
C52   C53   S    
C9    C15   A    
C28   C31   A    
C16   O8    A    
C41   C48   A    
Cu2   O4    S    
C17   O9    A    
C19   C28   A    
C24   C26   A    
C34   O2    S    
C52   H26   S    
C3    H14   S    
C26   C28   A    
C48   H8    S    
C22   C29   A    
C35   C37   A    
C45   C56   A    
C36   C38   A    
C9    C11   A    
Cu2   O7    S    
C9    H23   S    
C2    C57   A    
C55   H10   S    
Cu1   Cu2   S    
Cu1   O5    S    
C16   O6    A    
C15   C58   S    
C54   H30   S    
C6    C8    A    
C11   C14   A    
C25   C26   A    
C1    C13   S    
C33   H1    S    
C33   C44   A    
C56   H11   S    
Cu2   N2    S    
Cu1   O9    S    
