data_mof_unit_13862.cif
_audit_creation_date              2012-12-10T16:41:53-0500
_audit_creation_method            fapswitch 2.2
_symmetry_space_group_name_H-M    P1
_symmetry_Int_Tables_number       1
_space_group_crystal_system       triclinic
_cell_length_a                    10.875016
_cell_length_b                    8.689626
_cell_length_c                    7.447719
_cell_angle_alpha                 102.322128
_cell_angle_beta                  95.385629
_cell_angle_gamma                 92.319304
_cell_volume                      683.23379371

loop_
_atom_site_label
_atom_site_type_symbol
_atom_type_description
_atom_site_fract_x
_atom_site_fract_y
_atom_site_fract_z
_atom_type_partial_charge
C1    C     C_R   0.500200 0.200297 0.454857 0.917581
C2    C     C_2   0.543333 0.964673 0.567576 0.217520
C3    C     C_R   0.265356 0.506167 0.500371 0.893991
C4    C     C_R   0.513938 0.799395 0.545484 0.794113
C5    C     C_R   0.734871 0.504714 0.500581 0.903679
C6    C     C_2   0.923446 0.526958 0.356629 -0.203780
C7    C     C_2   0.867544 0.523984 0.507699 -0.297588
C8    C     C_2   0.057748 0.554284 0.366096 0.429210
C9    C     C_2   0.132158 0.504897 0.496624 -0.375193
C10   C     C_2   0.495119 0.033239 0.434537 -0.431594
Cu1   Cu    Cu3+1 0.513740 0.517380 0.684380 1.061666
Cu2   Cu    Cu3+1 0.486260 0.482620 0.315620 1.074056
H1    H     H_    0.094295 0.449104 0.598159 0.154341
H2    H     H_    0.440378 0.964829 0.311526 0.191256
H3    H     H_    0.403216 0.377912 0.948097 0.255757
H4    H     H_    0.596625 0.622325 0.051916 0.216077
N1    N     N_2   0.465540 0.456420 0.038510 -0.152972
N2    N     N_2   0.534460 0.543580 0.961490 -0.194899
O1    O     O_R   0.508930 0.286130 0.619780 -0.537474
O2    O     O_R   0.485720 0.256780 0.308360 -0.561953
O3    O     O_R   0.333540 0.514670 0.655670 -0.579769
O4    O     O_R   0.310330 0.485320 0.344250 -0.520615
O5    O     O_R   0.514280 0.743220 0.691640 -0.568981
O6    O     O_R   0.491070 0.713870 0.380220 -0.597067
O7    O     O_R   0.689670 0.514680 0.655750 -0.563960
O8    O     O_R   0.666460 0.485330 0.344330 -0.594204
H5    H     H_    0.869288 0.515610 0.223732 0.191781
H6    H     H_    0.918900 0.546760 0.643773 0.166174
S1    S     S_3+6 0.111997 0.654668 0.201450 0.045998
O9    O     O_2   0.216109 0.773134 0.291146 -0.264482
O10   O     O_2   0.157522 0.537947 0.045974 -0.296504
O11   O     O_3   0.996849 0.750424 0.115192 -0.487854
H7    H     H_    0.953404 0.672460 0.009172 0.347941
S2    S     S_3+6 0.653867 0.057848 0.755944 0.047065
O12   O     O_2   0.738151 0.175633 0.698135 -0.248948
O13   O     O_2   0.587475 0.141257 0.913371 -0.288319
O14   O     O_3   0.740995 0.921991 0.827329 -0.505121
H8    H     H_    0.705791 0.901611 0.938601 0.363071

loop_
_geom_bond_atom_site_label_1
_geom_bond_atom_site_label_2
_ccdc_geom_bond_type
Cu2   N1    S    
C2    C4    S    
Cu1   Cu2   S    
Cu1   N2    S    
C6    C7    D    
C3    C9    S    
S2    O14   S    
C5    C7    S    
Cu2   O6    S    
C6    H5    S    
O11   H7    S    
Cu2   O2    S    
N1    N2    D    
S1    O10   D    
Cu1   O1    S    
O14   H8    S    
C5    O7    A    
C8    S1    S    
Cu1   O5    S    
S1    O11   S    
S2    O13   D    
C4    O6    A    
C3    O3    A    
C1    O1    A    
C1    C10   S    
Cu1   O7    S    
S1    O9    D    
C5    O8    A    
C2    C10   D    
Cu2   O4    S    
H4    N2    S    
S2    O12   D    
C10   H2    S    
H3    N1    S    
C4    O5    A    
C9    H1    S    
C1    O2    A    
C6    C8    S    
C2    S2    S    
Cu1   O3    S    
C7    H6    S    
Cu2   O8    S    
C8    C9    D    
C3    O4    A    
