data_mof_unit_46783.cif
_audit_creation_date              2012-12-10T18:36:26-0500
_audit_creation_method            fapswitch 2.2
_symmetry_space_group_name_H-M    P1
_symmetry_Int_Tables_number       1
_space_group_crystal_system       triclinic
_cell_length_a                    14.091391
_cell_length_b                    15.083023
_cell_length_c                    15.797936
_cell_angle_alpha                 92.281145
_cell_angle_beta                  70.438802
_cell_angle_gamma                 90.081887
_cell_volume                      3161.15395011

loop_
_atom_site_label
_atom_site_type_symbol
_atom_type_description
_atom_site_fract_x
_atom_site_fract_y
_atom_site_fract_z
_atom_type_partial_charge
C1    C     C_R   0.501636 0.669345 0.496292 0.900009
C2    C     C_R   0.497545 0.330191 0.505417 0.899909
C3    C     C_R   0.386256 0.441382 0.089407 -0.289657
C4    C     C_R   0.622633 0.467161 0.901703 -0.280766
C5    C     C_R   0.314114 0.439552 0.046304 0.446556
C6    C     C_R   0.694524 0.474331 0.944602 0.455392
C7    C     C_R   0.470544 0.906285 0.574347 -0.131507
C8    C     C_R   0.579101 0.091411 0.467679 -0.157113
C9    C     C_R   0.473673 0.814694 0.573489 -0.188706
C10   C     C_R   0.581417 0.183141 0.471440 -0.191674
C11   C     C_R   0.503728 0.765752 0.492051 -0.150271
C12   C     C_R   0.492943 0.232797 0.512224 -0.215918
C13   C     C_R   0.532315 0.808898 0.409168 0.226284
C14   C     C_R   0.401118 0.188335 0.555323 0.232621
C15   C     C_R   0.516464 0.902027 0.410598 0.380296
C16   C     C_R   0.396643 0.095321 0.540850 0.367698
C17   C     C_R   0.490421 0.950178 0.494108 -0.009446
C18   C     C_R   0.487589 0.047359 0.499954 0.000304
C19   C     C_R   0.921541 0.464340 0.424395 0.298463
C20   C     C_R   0.095281 0.574141 0.527274 0.278434
C21   C     C_R   0.818726 0.455955 0.430386 0.466405
C22   C     C_R   0.190780 0.570188 0.539229 0.470438
C23   C     C_R   0.438784 0.501136 0.672024 0.867430
C24   C     C_R   0.561077 0.499637 0.328039 0.932588
C25   C     C_R   0.767910 0.540342 0.568937 0.482493
C26   C     C_R   0.225197 0.430203 0.459405 0.573023
C27   C     C_R   0.867143 0.533679 0.571417 -0.263125
C28   C     C_R   0.122442 0.426036 0.463742 -0.368062
C29   C     C_R   0.946827 0.497679 0.498091 -0.101455
C30   C     C_R   0.055688 0.498592 0.497278 -0.058865
C31   C     C_R   0.403770 0.495881 0.770407 -0.106815
C32   C     C_R   0.595939 0.497682 0.229262 -0.087427
C33   C     C_R   0.269721 0.478102 0.911967 0.349212
C34   C     C_R   0.730107 0.510238 0.086850 0.363440
C35   C     C_R   0.302043 0.489352 0.819419 -0.186274
C36   C     C_R   0.695851 0.513238 0.180502 -0.164619
C37   C     C_R   0.473796 0.494285 0.814922 -0.222870
C38   C     C_R   0.527468 0.483068 0.184025 -0.174905
C39   C     C_R   0.445611 0.475150 0.906429 -0.000064
C40   C     C_R   0.558506 0.476593 0.089496 0.001681
C41   C     C_R   0.341555 0.464513 0.955951 -0.013021
C42   C     C_R   0.662664 0.487448 0.039358 -0.021023
C43   C     C_R   0.518758 0.469600 0.949968 0.053359
C44   C     C_R   0.487340 0.463257 0.044091 0.060338
Cu1   Cu    Cu3+1 0.403570 0.500010 0.500000 1.123841
Cu2   Cu    Cu3+1 0.596430 0.499990 0.500000 1.028635
H1    H     H_    0.882731 0.561693 0.629530 0.238383
H2    H     H_    0.095887 0.367171 0.437596 0.221217
H3    H     H_    0.449352 0.479310 0.224561 0.175926
H4    H     H_    0.550387 0.509241 0.776472 0.205664
H5    H     H_    0.746925 0.530197 0.216261 0.238980
H6    H     H_    0.247405 0.494052 0.785215 0.236916
H7    H     H_    0.361962 0.421004 0.157862 0.139729
H8    H     H_    0.650428 0.455670 0.829795 0.150869
H9    H     H_    0.450693 0.943405 0.638154 0.184223
H10   H     H_    0.648886 0.054329 0.437201 0.189855
H11   H     H_    0.454252 0.781735 0.636664 0.156003
H12   H     H_    0.653044 0.215065 0.442232 0.236077
N1    N     N_R   0.741310 0.499980 0.500000 -0.312397
N2    N     N_R   0.258690 0.500020 0.500000 -0.269600
O1    O     O_R   0.418570 0.628550 0.499990 -0.506247
O2    O     O_R   0.581430 0.371450 0.500010 -0.548454
O3    O     O_R   0.581440 0.628540 0.499990 -0.614901
O4    O     O_R   0.418560 0.371460 0.500010 -0.485370
O5    O     O_R   0.372890 0.500010 0.629830 -0.499951
O6    O     O_R   0.627110 0.499990 0.370170 -0.511519
O7    O     O_R   0.535760 0.500000 0.629840 -0.612032
O8    O     O_R   0.464240 0.500000 0.370160 -0.582344
O9    O     O_3   0.218505 0.409114 0.090679 -0.615090
H13   H     H_    0.211706 0.395157 0.153237 0.343280
O10   O     O_3   0.795389 0.465155 0.894270 -0.618497
H14   H     H_    0.804333 0.457476 0.829408 0.340148
O11   O     O_3   0.995818 0.438283 0.344674 -0.625201
H15   H     H_    0.055119 0.476682 0.336116 0.335230
O12   O     O_3   0.043657 0.654439 0.543285 -0.635568
H16   H     H_    0.002597 0.657390 0.503362 0.338570
S1    S     S_3+6 0.805780 0.380996 0.343024 0.084582
O13   O     O_2   0.857045 0.422916 0.254827 -0.211137
O14   O     O_2   0.864893 0.298565 0.344839 -0.231935
O15   O     O_3   0.692911 0.346314 0.342978 -0.560536
H17   H     H_    0.706312 0.311615 0.285508 0.367052
S2    S     S_3+6 0.213517 0.664102 0.603555 0.098663
O16   O     O_2   0.255768 0.737324 0.540317 -0.250880
O17   O     O_2   0.114747 0.696302 0.670350 -0.194151
O18   O     O_3   0.289184 0.646531 0.663521 -0.556937
H18   H     H_    0.286370 0.702386 0.699486 0.358629
O19   O     O_3   0.699872 0.588283 0.638578 -0.717197
H19   H     H_    0.651886 0.616641 0.614607 0.361991
O20   O     O_3   0.292599 0.364117 0.414052 -0.670948
H20   H     H_    0.257499 0.319213 0.388157 0.325129
S3    S     S_3+6 0.139429 0.491001 0.968443 0.149489
O21   O     O_2   0.094752 0.400723 0.990098 -0.107736
O22   O     O_2   0.119793 0.546563 0.053872 -0.199580
O23   O     O_3   0.086099 0.540910 0.901847 -0.434748
H21   H     H_    0.108963 0.603173 0.899840 0.361822
S4    S     S_3+6 0.857275 0.538037 0.034861 0.152150
O24   O     O_2   0.912731 0.453854 0.993115 -0.091976
O25   O     O_2   0.867566 0.603856 0.963354 -0.207798
O26   O     O_3   0.907382 0.581178 0.110021 -0.439602
H22   H     H_    0.876416 0.641082 0.126746 0.361523
S5    S     S_3+6 0.594412 0.746137 0.307456 0.042285
O27   O     O_2   0.517034 0.694671 0.280469 -0.252142
O28   O     O_2   0.652138 0.802665 0.231487 -0.180652
O29   O     O_3   0.677275 0.675246 0.324579 -0.567362
H23   H     H_    0.725958 0.713324 0.341480 0.351208
S6    S     S_3+6 0.300953 0.245722 0.640023 0.095377
O30   O     O_2   0.232978 0.289530 0.598091 -0.190528
O31   O     O_2   0.239720 0.184454 0.709855 -0.177126
O32   O     O_3   0.348809 0.323282 0.692481 -0.555961
H24   H     H_    0.391655 0.290104 0.719194 0.332350
S7    S     S_3+6 0.519323 0.957856 0.312077 0.102767
O33   O     O_2   0.625699 0.984740 0.262762 -0.252179
O34   O     O_2   0.482394 0.897815 0.251796 -0.166390
O35   O     O_3   0.445326 0.049297 0.338127 -0.500070
H25   H     H_    0.462525 0.081432 0.281578 0.380528
S8    S     S_3+6 0.279185 0.039228 0.566015 0.109636
O36   O     O_2   0.251188 0.003608 0.658602 -0.238361
O37   O     O_2   0.197649 0.101380 0.562036 -0.185435
O38   O     O_3   0.287895 0.954061 0.491644 -0.470591
H26   H     H_    0.222347 0.923699 0.514033 0.407609

loop_
_geom_bond_atom_site_label_1
_geom_bond_atom_site_label_2
_ccdc_geom_bond_type
S1    O13   D    
O19   H19   S    
Cu1   N2    S    
S5    O27   D    
Cu2   N1    S    
C27   C29   A    
C11   C13   A    
O11   H15   S    
S7    O33   D    
C1    C11   S    
C7    H9    S    
O12   H16   S    
C2    C12   S    
C8    H10   S    
O35   H25   S    
C39   C41   A    
C38   H3    S    
C20   C30   A    
Cu1   Cu2   S    
C26   O20   S    
Cu2   O2    S    
C32   C36   A    
C10   H12   S    
C34   S4    S    
C21   N1    A    
C33   S3    S    
C22   N2    A    
S6    O30   D    
S4    O26   S    
C1    O3    A    
C25   O19   S    
S8    O36   D    
C7    C9    A    
C23   O7    A    
C5    O9    S    
C34   C42   A    
C7    C17   A    
S4    O25   D    
C14   C16   A    
C32   C38   A    
C34   C36   A    
C24   O6    A    
C40   C42   A    
S5    O28   D    
O23   H21   S    
C16   S8    S    
O29   H23   S    
C2    O4    A    
S1    O14   D    
C6    O10   S    
C3    C44   A    
C15   S7    S    
C19   O11   S    
C4    C6    A    
S3    O21   D    
C39   C43   A    
O18   H18   S    
C8    C18   A    
C31   C37   A    
C20   O12   S    
C23   C31   S    
C43   C44   A    
C24   C32   S    
C29   C30   S    
S3    O22   D    
O26   H22   S    
C14   S6    S    
S4    O24   D    
Cu1   O8    S    
C17   C18   S    
S7    O34   D    
C9    C11   A    
C36   H5    S    
C10   C12   A    
C16   C18   A    
C12   C14   A    
S5    O29   S    
S2    O17   D    
C13   C15   A    
Cu1   O5    S    
C31   C35   A    
C13   S5    S    
C19   C29   A    
C22   S2    S    
S1    O15   S    
C27   H1    S    
C15   C17   A    
C5    C41   A    
C28   H2    S    
C4    H8    S    
C20   C22   A    
O15   H17   S    
C3    C5    A    
C1    O1    A    
O38   H26   S    
Cu2   O6    S    
C4    C43   A    
C25   C27   A    
S2    O18   S    
Cu1   O4    S    
C26   C28   A    
S8    O38   S    
Cu2   O3    S    
C33   C41   A    
C23   O5    A    
C28   C30   A    
Cu2   O7    S    
C37   C39   A    
O32   H24   S    
S3    O23   S    
C38   C40   A    
C37   H4    S    
C3    H7    S    
S6    O31   D    
Cu1   O1    S    
C33   C35   A    
S8    O37   D    
S7    O35   S    
C9    H11   S    
O9    H13   S    
C24   O8    A    
C40   C44   A    
O10   H14   S    
C8    C10   A    
S2    O16   D    
C6    C42   A    
C21   S1    S    
C35   H6    S    
C25   N1    A    
O20   H20   S    
C26   N2    A    
C2    O2    A    
C19   C21   A    
S6    O32   S    
