data_mof_unit_63205.cif
_audit_creation_date              2012-12-10T17:21:11-0500
_audit_creation_method            fapswitch 2.2
_symmetry_space_group_name_H-M    P1
_symmetry_Int_Tables_number       1
_space_group_crystal_system       triclinic
_cell_length_a                    21.767708
_cell_length_b                    21.767709
_cell_length_c                    29.066752
_cell_angle_alpha                 90.000066
_cell_angle_beta                  90.00004
_cell_angle_gamma                 90.0
_cell_volume                      13772.7901762

loop_
_atom_site_label
_atom_site_type_symbol
_atom_type_description
_atom_site_fract_x
_atom_site_fract_y
_atom_site_fract_z
_atom_type_partial_charge
Br1   Br    Br    0.500575 0.183191 0.685060 -0.435845
Br2   Br    Br    0.316810 0.000580 0.185060 -0.435847
Br3   Br    Br    0.999421 0.316810 0.185060 -0.435847
Br4   Br    Br    0.683191 0.999424 0.185060 -0.435845
Br5   Br    Br    0.000578 0.316811 0.814940 -0.435847
Br6   Br    Br    0.316808 0.999424 0.814940 -0.435846
Br7   Br    Br    0.999423 0.683190 0.814940 -0.435847
Br8   Br    Br    0.683191 0.000575 0.814940 -0.435845
Br9   Br    Br    0.575928 0.135413 0.405609 -0.423584
Br10  Br    Br    0.864587 0.575927 0.405608 -0.423584
Br11  Br    Br    0.424072 0.864587 0.405609 -0.423584
Br12  Br    Br    0.816808 0.500574 0.685060 -0.435845
Br13  Br    Br    0.135413 0.424073 0.405608 -0.423585
Br14  Br    Br    0.575929 0.864587 0.594391 -0.423583
Br15  Br    Br    0.864587 0.424073 0.594391 -0.423584
Br16  Br    Br    0.424072 0.135413 0.594391 -0.423584
Br17  Br    Br    0.135413 0.575927 0.594392 -0.423585
Br18  Br    Br    0.075927 0.635413 0.905608 -0.423585
Br19  Br    Br    0.364587 0.075927 0.905608 -0.423585
Br20  Br    Br    0.924073 0.364587 0.905608 -0.423584
Br21  Br    Br    0.635413 0.924072 0.905609 -0.423584
Br22  Br    Br    0.075927 0.364587 0.094392 -0.423586
Br23  Br    Br    0.499428 0.816808 0.685060 -0.435845
Br24  Br    Br    0.364586 0.924074 0.094392 -0.423585
Br25  Br    Br    0.924073 0.635413 0.094392 -0.423585
Br26  Br    Br    0.635413 0.075928 0.094391 -0.423584
Br27  Br    Br    0.183191 0.499423 0.685060 -0.435845
Br28  Br    Br    0.500576 0.816809 0.314940 -0.435846
Br29  Br    Br    0.816809 0.499422 0.314940 -0.435846
Br30  Br    Br    0.499426 0.183191 0.314940 -0.435845
Br31  Br    Br    0.183190 0.500579 0.314940 -0.435847
Br32  Br    Br    0.000579 0.683190 0.185060 -0.435846
C1    C     C_R   0.500000 0.119800 0.500000 0.930702
C2    C     C_R   0.720804 0.479678 0.460224 0.003672
C3    C     C_R   0.192387 0.490737 0.413869 0.140348
C4    C     C_R   0.509265 0.807612 0.586131 0.140349
C5    C     C_R   0.807612 0.490736 0.586131 0.140348
C6    C     C_R   0.490736 0.192388 0.586130 0.140349
C7    C     C_R   0.192388 0.509263 0.586131 0.140348
C8    C     C_R   0.009263 0.692387 0.913869 0.140348
C9    C     C_R   0.307612 0.009263 0.913869 0.140349
C10   C     C_R   0.990737 0.307613 0.913869 0.140348
C11   C     C_R   0.692387 0.990736 0.913869 0.140349
C12   C     C_R   0.009263 0.307613 0.086130 0.140348
C13   C     C_R   0.520321 0.720804 0.460224 0.003671
C14   C     C_R   0.307613 0.990738 0.086130 0.140348
C15   C     C_R   0.990737 0.692387 0.086130 0.140348
C16   C     C_R   0.692388 0.009264 0.086130 0.140349
C17   C     C_R   0.485002 0.220641 0.374312 0.272420
C18   C     C_R   0.779360 0.484999 0.374313 0.272420
C19   C     C_R   0.514999 0.779359 0.374313 0.272420
C20   C     C_R   0.220640 0.515001 0.374313 0.272420
C21   C     C_R   0.485003 0.779359 0.625688 0.272420
C22   C     C_R   0.779359 0.514998 0.625687 0.272421
C23   C     C_R   0.514999 0.220641 0.625687 0.272420
C24   C     C_R   0.279196 0.520322 0.460224 0.003671
C25   C     C_R   0.220641 0.485000 0.625687 0.272421
C26   C     C_R   0.985000 0.720640 0.874313 0.272421
C27   C     C_R   0.279359 0.985001 0.874312 0.272421
C28   C     C_R   0.015000 0.279360 0.874312 0.272420
C29   C     C_R   0.720640 0.014998 0.874313 0.272420
C30   C     C_R   0.984999 0.279360 0.125687 0.272420
C31   C     C_R   0.279361 0.015004 0.125687 0.272418
C32   C     C_R   0.015001 0.720640 0.125687 0.272420
C33   C     C_R   0.720641 0.985001 0.125687 0.272419
C34   C     C_R   0.449233 0.274428 0.378827 0.095646
C35   C     C_R   0.479679 0.720804 0.539777 0.003671
C36   C     C_R   0.725572 0.449231 0.378827 0.095645
C37   C     C_R   0.550767 0.725572 0.378827 0.095645
C38   C     C_R   0.274428 0.550769 0.378827 0.095646
C39   C     C_R   0.449235 0.725571 0.621173 0.095646
C40   C     C_R   0.725571 0.550766 0.621173 0.095646
C41   C     C_R   0.550767 0.274428 0.621173 0.095646
C42   C     C_R   0.274429 0.449232 0.621173 0.095646
C43   C     C_R   0.949232 0.774428 0.878827 0.095646
C44   C     C_R   0.225572 0.949232 0.878827 0.095646
C45   C     C_R   0.050768 0.225572 0.878827 0.095646
C46   C     C_R   0.720804 0.520321 0.539776 0.003671
C47   C     C_R   0.774428 0.050767 0.878827 0.095646
C48   C     C_R   0.949231 0.225573 0.121172 0.095646
C49   C     C_R   0.225574 0.050773 0.121172 0.095646
C50   C     C_R   0.050769 0.774428 0.121172 0.095646
C51   C     C_R   0.774428 0.949233 0.121173 0.095646
C52   C     C_R   0.445281 0.303473 0.422448 0.146524
C53   C     C_R   0.696526 0.445280 0.422448 0.146523
C54   C     C_R   0.554719 0.696526 0.422448 0.146524
C55   C     C_R   0.303473 0.554720 0.422448 0.146523
C56   C     C_R   0.445282 0.696526 0.577552 0.146523
C57   C     C_R   0.520321 0.279196 0.539776 0.003671
C58   C     C_R   0.696526 0.554719 0.577552 0.146524
C59   C     C_R   0.554720 0.303473 0.577552 0.146524
C60   C     C_R   0.303474 0.445280 0.577552 0.146524
C61   C     C_R   0.945280 0.803474 0.922448 0.146524
C62   C     C_R   0.196526 0.945280 0.922448 0.146524
C63   C     C_R   0.054720 0.196527 0.922448 0.146522
C64   C     C_R   0.803473 0.054719 0.922448 0.146523
C65   C     C_R   0.945280 0.196527 0.077551 0.146523
C66   C     C_R   0.196527 0.054722 0.077551 0.146520
C67   C     C_R   0.054721 0.803473 0.077552 0.146523
C68   C     C_R   0.279196 0.479678 0.539776 0.003671
C69   C     C_R   0.803473 0.945281 0.077552 0.146524
C70   C     C_3   0.416856 0.302646 0.337739 -0.765412
C71   C     C_3   0.697355 0.416852 0.337740 -0.765409
C72   C     C_3   0.583144 0.697353 0.337740 -0.765410
C73   C     C_3   0.302645 0.583148 0.337740 -0.765410
C74   C     C_3   0.416859 0.697353 0.662261 -0.765410
C75   C     C_3   0.697353 0.583143 0.662261 -0.765413
C76   C     C_3   0.583145 0.302646 0.662260 -0.765411
C77   C     C_3   0.302647 0.416855 0.662260 -0.765410
C78   C     C_3   0.916854 0.802646 0.837740 -0.765412
C79   C     C_R   0.979678 0.779196 0.960224 0.003671
C80   C     C_3   0.197353 0.916855 0.837740 -0.765410
C81   C     C_3   0.083146 0.197355 0.837739 -0.765409
C82   C     C_3   0.802646 0.083144 0.837739 -0.765411
C83   C     C_3   0.916852 0.197355 0.162260 -0.765407
C84   C     C_3   0.197359 0.083154 0.162259 -0.765400
C85   C     C_3   0.083148 0.802645 0.162260 -0.765408
C86   C     C_3   0.802646 0.916856 0.162260 -0.765411
C87   C     C_3   0.396515 0.352177 0.429346 -0.771546
C88   C     C_3   0.647822 0.396514 0.429347 -0.771546
C89   C     C_3   0.603485 0.647823 0.429347 -0.771547
C90   C     C_R   0.220804 0.979679 0.960224 0.003672
C91   C     C_3   0.352178 0.603486 0.429347 -0.771547
C92   C     C_3   0.396515 0.647823 0.570654 -0.771546
C93   C     C_3   0.647823 0.603485 0.570653 -0.771548
C94   C     C_3   0.603485 0.352177 0.570653 -0.771547
C95   C     C_3   0.352178 0.396514 0.570653 -0.771547
C96   C     C_3   0.896514 0.852178 0.929347 -0.771546
C97   C     C_3   0.147822 0.896515 0.929346 -0.771547
C98   C     C_3   0.103485 0.147822 0.929346 -0.771545
C99   C     C_3   0.852177 0.103485 0.929346 -0.771546
C100  C     C_3   0.896514 0.147822 0.070653 -0.771547
C101  C     C_R   0.020321 0.220804 0.960223 0.003672
C102  C     C_3   0.147822 0.103486 0.070652 -0.771541
C103  C     C_3   0.103486 0.852178 0.070653 -0.771545
C104  C     C_3   0.852177 0.896515 0.070653 -0.771547
C105  C     C_R   0.880200 0.500000 0.500000 0.930703
C106  C     C_R   0.779196 0.020321 0.960223 0.003671
C107  C     C_R   0.979678 0.220804 0.039776 0.003671
C108  C     C_R   0.220804 0.020322 0.039776 0.003673
C109  C     C_R   0.020322 0.779196 0.039776 0.003672
C110  C     C_R   0.779196 0.979679 0.039776 0.003671
C111  C     C_R   0.497388 0.217893 0.457795 -0.076104
C112  C     C_R   0.782107 0.497387 0.457795 -0.076103
C113  C     C_R   0.502612 0.782107 0.457795 -0.076104
C114  C     C_R   0.217893 0.502613 0.457795 -0.076103
C115  C     C_R   0.497388 0.782107 0.542205 -0.076104
C116  C     C_R   0.500000 0.880200 0.500000 0.930703
C117  C     C_R   0.782107 0.502612 0.542205 -0.076104
C118  C     C_R   0.502612 0.217893 0.542205 -0.076103
C119  C     C_R   0.217893 0.497387 0.542205 -0.076103
C120  C     C_R   0.997387 0.717893 0.957795 -0.076103
C121  C     C_R   0.282107 0.997387 0.957795 -0.076104
C122  C     C_R   0.002612 0.282107 0.957795 -0.076103
C123  C     C_R   0.717893 0.002612 0.957795 -0.076104
C124  C     C_R   0.997387 0.282107 0.042205 -0.076103
C125  C     C_R   0.282107 0.002613 0.042205 -0.076103
C126  C     C_R   0.002613 0.717893 0.042205 -0.076103
C127  C     C_R   0.119800 0.500000 0.500000 0.930704
C128  C     C_R   0.717893 0.997388 0.042205 -0.076104
C129  C     C_R   0.500000 0.312076 0.500000 -0.150158
C130  C     C_R   0.687924 0.500000 0.500000 -0.150158
C131  C     C_R   0.500000 0.687924 0.500000 -0.150158
C132  C     C_R   0.312076 0.500000 0.500000 -0.150157
C133  C     C_R   1.000000 0.812076 1.000000 -0.150157
C134  C     C_R   0.187924 0.000000 1.000000 -0.150156
C135  C     C_R   1.000000 0.187924 1.000000 -0.150157
C136  C     C_R   0.812076 1.000000 1.000000 -0.150158
C137  C     C_R   0.500000 0.185566 0.500000 -0.060241
C138  C     C_R   0.000000 0.619800 1.000000 0.930703
C139  C     C_R   0.814434 0.500000 0.500000 -0.060241
C140  C     C_R   0.500000 0.814434 0.500000 -0.060241
C141  C     C_R   0.185566 0.500000 0.500000 -0.060241
C142  C     C_R   1.000000 0.685566 1.000000 -0.060242
C143  C     C_R   0.314434 0.000000 1.000000 -0.060242
C144  C     C_R   1.000000 0.314434 1.000000 -0.060242
C145  C     C_R   0.685566 1.000000 1.000000 -0.060241
C146  C     C_R   0.621615 0.500000 0.500000 0.920157
C147  C     C_R   0.500000 0.621615 0.500000 0.920158
C148  C     C_R   0.378385 0.500000 0.500000 0.920158
C149  C     C_R   0.380200 1.000000 1.000000 0.930704
C150  C     C_R   0.500000 0.378385 0.500000 0.920157
C151  C     C_R   0.121615 1.000000 0.000000 0.920154
C152  C     C_R   0.000000 0.121615 1.000000 0.920155
C153  C     C_R   0.878385 1.000000 1.000000 0.920157
C154  C     C_R   1.000000 0.878385 1.000000 0.920156
C155  C     C_R   0.500000 1.000000 0.414320 0.913053
C156  C     C_R   1.000000 0.500000 0.414320 0.913054
C157  C     C_R   0.500000 1.000000 0.585680 0.913052
C158  C     C_R   1.000000 0.500000 0.585680 0.913053
C159  C     C_R   1.000000 0.500000 0.914320 0.913054
C160  C     C_R   0.000000 0.380200 0.000000 0.930704
C161  C     C_R   0.500000 1.000000 0.914320 0.913053
C162  C     C_R   1.000000 0.500000 0.085680 0.913054
C163  C     C_R   0.500000 0.000000 0.085680 0.913053
C164  C     C_1   0.500000 1.000000 0.363475 -0.066517
C165  C     C_1   1.000000 0.500000 0.363475 -0.066515
C166  C     C_1   0.500000 1.000000 0.636525 -0.066517
C167  C     C_1   1.000000 0.500000 0.636525 -0.066516
C168  C     C_1   1.000000 0.500000 0.863475 -0.066515
C169  C     C_1   0.500000 1.000000 0.863475 -0.066516
C170  C     C_1   1.000000 0.500000 0.136525 -0.066515
C171  C     C_R   0.619800 1.000000 1.000000 0.930703
C172  C     C_1   0.500000 1.000000 0.136525 -0.066516
C173  C     C_1   0.500000 0.000000 0.321139 0.117639
C174  C     C_1   1.000000 0.500000 0.321139 0.117641
C175  C     C_1   0.500000 1.000000 0.678861 0.117639
C176  C     C_1   1.000000 0.500000 0.678861 0.117640
C177  C     C_1   1.000000 0.500000 0.821139 0.117641
C178  C     C_1   0.500000 1.000000 0.821139 0.117640
C179  C     C_1   0.000000 0.500000 0.178861 0.117641
C180  C     C_1   0.500000 1.000000 0.178861 0.117640
C181  C     C_1   0.500000 1.000000 0.271169 0.117274
C182  C     C_R   0.479679 0.279196 0.460223 0.003671
C183  C     C_1   1.000000 0.500000 0.271169 0.117275
C184  C     C_1   0.500000 1.000000 0.728831 0.117274
C185  C     C_1   1.000000 0.500000 0.728831 0.117275
C186  C     C_1   1.000000 0.500000 0.771169 0.117275
C187  C     C_1   0.500000 1.000000 0.771169 0.117274
C188  C     C_1   1.000000 0.500000 0.228831 0.117275
C189  C     C_1   0.500000 0.000000 0.228831 0.117275
C190  C     C_R   0.509264 0.192387 0.413869 0.140348
C191  C     C_R   0.807612 0.509263 0.413869 0.140349
C192  C     C_R   0.490736 0.807612 0.413869 0.140349
H1    H     H_    0.426017 0.278953 0.304846 0.278939
H2    H     H_    0.278952 0.573988 0.304847 0.278940
H3    H     H_    0.301528 0.633611 0.343000 0.246418
H4    H     H_    0.351020 0.568046 0.333419 0.231642
H5    H     H_    0.426021 0.721045 0.695155 0.278939
H6    H     H_    0.366396 0.698471 0.657003 0.246418
H7    H     H_    0.431961 0.648977 0.666581 0.231640
H8    H     H_    0.721045 0.573982 0.695154 0.278940
H9    H     H_    0.698470 0.633606 0.657002 0.246418
H10   H     H_    0.648977 0.568041 0.666581 0.231641
H11   H     H_    0.573985 0.278953 0.695154 0.278940
H12   H     H_    0.366393 0.301529 0.342999 0.246417
H13   H     H_    0.633608 0.301528 0.657001 0.246417
H14   H     H_    0.568043 0.351021 0.666581 0.231642
H15   H     H_    0.278955 0.426017 0.695154 0.278939
H16   H     H_    0.301528 0.366392 0.657001 0.246418
H17   H     H_    0.351022 0.431956 0.666580 0.231640
H18   H     H_    0.926014 0.778953 0.804846 0.278940
H19   H     H_    0.866391 0.801528 0.843000 0.246418
H20   H     H_    0.931956 0.851021 0.833419 0.231642
H21   H     H_    0.221046 0.926015 0.804846 0.278939
H22   H     H_    0.198471 0.866391 0.842999 0.246417
H23   H     H_    0.431958 0.351021 0.333419 0.231642
H24   H     H_    0.148978 0.931956 0.833419 0.231641
H25   H     H_    0.073985 0.221048 0.804846 0.278940
H26   H     H_    0.133609 0.198473 0.842999 0.246417
H27   H     H_    0.068044 0.148979 0.833418 0.231641
H28   H     H_    0.778953 0.073984 0.804846 0.278940
H29   H     H_    0.801528 0.133607 0.842999 0.246417
H30   H     H_    0.851021 0.068042 0.833418 0.231642
H31   H     H_    0.926011 0.221049 0.195153 0.278939
H32   H     H_    0.866389 0.198473 0.156999 0.246417
H33   H     H_    0.931954 0.148980 0.166581 0.231642
H34   H     H_    0.721049 0.426011 0.304847 0.278939
H35   H     H_    0.221058 0.074003 0.195152 0.278938
H36   H     H_    0.198471 0.133617 0.156995 0.246411
H37   H     H_    0.148986 0.068048 0.166585 0.231646
H38   H     H_    0.073989 0.778951 0.195153 0.278939
H39   H     H_    0.133611 0.801527 0.156999 0.246417
H40   H     H_    0.068046 0.851020 0.166581 0.231642
H41   H     H_    0.778953 0.926016 0.195154 0.278939
H42   H     H_    0.801528 0.866392 0.157001 0.246417
H43   H     H_    0.851021 0.931957 0.166581 0.231642
H44   H     H_    0.407750 0.394180 0.409401 0.254121
H45   H     H_    0.698472 0.366389 0.343001 0.246417
H46   H     H_    0.351148 0.334549 0.417999 0.237900
H47   H     H_    0.390616 0.363995 0.465804 0.208083
H48   H     H_    0.605819 0.407750 0.409401 0.254121
H49   H     H_    0.665451 0.351147 0.418000 0.237900
H50   H     H_    0.636004 0.390616 0.465804 0.208082
H51   H     H_    0.592250 0.605819 0.409402 0.254121
H52   H     H_    0.648852 0.665451 0.417999 0.237900
H53   H     H_    0.609384 0.636005 0.465804 0.208083
H54   H     H_    0.394181 0.592250 0.409402 0.254121
H55   H     H_    0.334549 0.648853 0.418001 0.237900
H56   H     H_    0.648980 0.431954 0.333418 0.231643
H57   H     H_    0.363996 0.609384 0.465805 0.208082
H58   H     H_    0.407751 0.605819 0.590599 0.254120
H59   H     H_    0.351149 0.665451 0.582002 0.237900
H60   H     H_    0.390615 0.636006 0.534197 0.208083
H61   H     H_    0.605819 0.592250 0.590598 0.254121
H62   H     H_    0.665451 0.648852 0.582001 0.237901
H63   H     H_    0.636005 0.609384 0.534196 0.208082
H64   H     H_    0.592250 0.394181 0.590599 0.254121
H65   H     H_    0.648852 0.334549 0.582001 0.237900
H66   H     H_    0.609384 0.363995 0.534196 0.208083
H67   H     H_    0.573983 0.721046 0.304846 0.278940
H68   H     H_    0.394181 0.407750 0.590598 0.254121
H69   H     H_    0.334549 0.351148 0.582000 0.237900
H70   H     H_    0.363995 0.390615 0.534195 0.208082
H71   H     H_    0.907750 0.894181 0.909401 0.254121
H72   H     H_    0.851147 0.834549 0.918000 0.237900
H73   H     H_    0.890616 0.863995 0.965804 0.208082
H74   H     H_    0.105819 0.907750 0.909401 0.254121
H75   H     H_    0.165451 0.851148 0.917999 0.237900
H76   H     H_    0.136005 0.890616 0.965804 0.208082
H77   H     H_    0.092249 0.105819 0.909401 0.254121
H78   H     H_    0.633607 0.698472 0.342999 0.246418
H79   H     H_    0.148852 0.165450 0.917999 0.237900
H80   H     H_    0.109384 0.136005 0.965804 0.208082
H81   H     H_    0.894180 0.092249 0.909401 0.254121
H82   H     H_    0.834549 0.148851 0.917999 0.237900
H83   H     H_    0.863995 0.109384 0.965804 0.208083
H84   H     H_    0.907750 0.105820 0.090598 0.254121
H85   H     H_    0.851147 0.165451 0.081999 0.237900
H86   H     H_    0.890616 0.136004 0.034195 0.208083
H87   H     H_    0.105820 0.092252 0.090600 0.254120
H88   H     H_    0.165450 0.148855 0.081996 0.237896
H89   H     H_    0.568043 0.648978 0.333419 0.231641
H90   H     H_    0.136001 0.109382 0.034195 0.208082
H91   H     H_    0.092250 0.894181 0.090599 0.254121
H92   H     H_    0.148853 0.834549 0.081999 0.237900
H93   H     H_    0.109384 0.863996 0.034195 0.208082
H94   H     H_    0.894181 0.907750 0.090598 0.254121
H95   H     H_    0.834549 0.851148 0.082001 0.237900
H96   H     H_    0.863995 0.890616 0.034196 0.208083
O1    O     O_R   0.551720 0.091610 0.499990 -0.585163
O2    O     O_R   0.408390 0.051720 0.999990 -0.585163
O3    O     O_R   0.948280 0.408390 0.999990 -0.585163
O4    O     O_R   0.591610 0.948280 0.999990 -0.585163
O5    O     O_R   0.051720 0.408390 0.000010 -0.585163
O6    O     O_R   0.408390 0.948280 0.000010 -0.585163
O7    O     O_R   0.948280 0.591610 0.000010 -0.585163
O8    O     O_R   0.591610 0.051720 0.000010 -0.585163
O9    O     O_R   0.551720 0.000010 0.436860 -0.575733
O10   O     O_R   0.999990 0.551720 0.436860 -0.575733
O11   O     O_R   0.448280 0.999990 0.436860 -0.575734
O12   O     O_R   0.908390 0.551720 0.499990 -0.585163
O13   O     O_R   0.000010 0.448280 0.436860 -0.575734
O14   O     O_R   0.551720 0.999990 0.563140 -0.575733
O15   O     O_R   0.999990 0.448280 0.563140 -0.575733
O16   O     O_R   0.448280 0.000010 0.563140 -0.575734
O17   O     O_R   0.000010 0.551720 0.563140 -0.575734
O18   O     O_R   0.051720 0.500010 0.936860 -0.575733
O19   O     O_R   0.499990 0.051720 0.936860 -0.575733
O20   O     O_R   0.948280 0.499990 0.936860 -0.575734
O21   O     O_R   0.500010 0.948280 0.936860 -0.575734
O22   O     O_R   0.051720 0.499990 0.063140 -0.575733
O23   O     O_R   0.448280 0.908390 0.499990 -0.585163
O24   O     O_R   0.499990 0.948280 0.063140 -0.575734
O25   O     O_R   0.948280 0.500010 0.063140 -0.575734
O26   O     O_R   0.500010 0.051720 0.063140 -0.575733
O27   O     O_R   0.591590 0.499990 0.535660 -0.621166
O28   O     O_R   0.500010 0.591590 0.535660 -0.621166
O29   O     O_R   0.408410 0.500010 0.535660 -0.621166
O30   O     O_R   0.499990 0.408410 0.535660 -0.621166
O31   O     O_R   0.591590 0.500010 0.464340 -0.621165
O32   O     O_R   0.500010 0.408410 0.464340 -0.621165
O33   O     O_R   0.408410 0.499990 0.464340 -0.621165
O34   O     O_R   0.091610 0.448280 0.499990 -0.585163
O35   O     O_R   0.499990 0.591590 0.464340 -0.621165
O36   O     O_R   0.091590 0.999990 0.035660 -0.621165
O37   O     O_R   0.000010 0.091590 0.035660 -0.621164
O38   O     O_R   0.908410 0.000010 0.035660 -0.621165
O39   O     O_R   0.999990 0.908410 0.035660 -0.621165
O40   O     O_R   0.091590 0.000010 0.964340 -0.621165
O41   O     O_R   0.000010 0.908410 0.964340 -0.621166
O42   O     O_R   0.908410 0.999990 0.964340 -0.621166
O43   O     O_R   0.999990 0.091590 0.964340 -0.621166
O44   O     O_R   0.551720 0.908390 0.500010 -0.585162
O45   O     O_R   0.908390 0.448280 0.500010 -0.585163
O46   O     O_R   0.448280 0.091610 0.500010 -0.585163
O47   O     O_R   0.091610 0.551720 0.500010 -0.585163
O48   O     O_R   0.051720 0.591610 0.999990 -0.585163
Zn1   Zn    Zn3+2 0.569070 1.000000 0.500000 1.095709
Zn2   Zn    Zn3+2 0.500000 0.500000 0.452400 0.920122
Zn3   Zn    Zn3+2 1.000000 0.000000 0.047600 0.920123
Zn4   Zn    Zn3+2 1.000000 1.000000 0.952400 0.920122
Zn5   Zn    Zn3+2 1.000000 0.569070 0.500000 1.095708
Zn6   Zn    Zn3+2 0.430930 1.000000 0.500000 1.095708
Zn7   Zn    Zn3+2 1.000000 0.430930 0.500000 1.095708
Zn8   Zn    Zn3+2 0.069070 0.500000 0.000000 1.095708
Zn9   Zn    Zn3+2 0.500000 0.069070 0.000000 1.095708
Zn10  Zn    Zn3+2 0.930930 0.500000 0.000000 1.095708
Zn11  Zn    Zn3+2 0.500000 0.930930 0.000000 1.095707
Zn12  Zn    Zn3+2 0.500000 0.500000 0.547600 0.920120

loop_
_geom_bond_atom_site_label_1
_geom_bond_atom_site_label_2
_ccdc_geom_bond_type
C174  C183  S    
C70   H12   S    
C17   C190  A    
C184  C187  T    
C159  O20   A    
O34   Zn7   S    
C161  O21   A    
C179  C188  S    
C11   C29   A    
C89   H53   S    
O28   Zn12  S    
C98   H79   S    
C91   H55   S    
C104  H95   S    
C63   C101  A    
C161  C169  S    
Br17  C7    S    
C73   H4    S    
C42   C60   A    
C129  C150  S    
Br18  C8    S    
C4    C21   A    
C44   C62   A    
C126  C142  A    
C6    C23   A    
C116  O44   A    
C16   C33   A    
C102  H90   S    
Br29  C18   S    
C75   H9    S    
C76   H11   S    
C153  O38   A    
C165  C174  T    
O11   Zn6   S    
C111  C190  A    
O24   Zn11  S    
C45   C81   S    
C158  C167  S    
C77   H15   S    
C82   H30   S    
C93   H61   S    
C8    C26   A    
C116  O23   A    
C91   H57   S    
C15   C32   A    
C41   C76   S    
C70   H1    S    
C74   H6    S    
O39   Zn3   S    
C94   H65   S    
C155  O9    A    
C172  C180  T    
C54   C89   S    
C1    O1    A    
O19   Zn9   S    
C107  C135  A    
C9    C27   A    
C85   H38   S    
C62   C90   A    
C103  H91   S    
C57   C118  A    
C99   H82   S    
C162  O25   A    
O27   Zn12  S    
C98   H77   S    
C35   C115  A    
C159  O18   A    
C21   C39   A    
C43   C61   A    
C138  C142  S    
C176  C185  S    
C96   H72   S    
O10   Zn5   S    
C24   C132  A    
C151  O40   A    
C67   C109  A    
O12   Zn5   S    
C38   C73   S    
Br20  C10   S    
C88   H50   S    
C92   H58   S    
C147  O28   A    
C87   H47   S    
C121  C143  A    
O5    Zn8   S    
C168  C177  T    
C88   H48   S    
C122  C144  A    
Br24  C14   S    
C13   C131  A    
C148  O29   A    
C183  C188  T    
C52   C87   S    
C175  C184  S    
C110  C136  A    
C86   H43   S    
C47   C64   A    
C76   H13   S    
O25   Zn10  S    
C39   C74   S    
O42   Zn4   S    
O31   Zn2   S    
C33   C51   A    
C25   C42   A    
C93   H63   S    
C94   H64   S    
C48   C65   A    
O41   Zn4   S    
C36   C71   S    
O18   Zn8   S    
C170  C179  T    
C56   C92   S    
C171  O8    A    
C16   C128  A    
C112  C139  A    
C13   C113  A    
C30   C48   A    
C10   C122  A    
Br13  C3    S    
C64   C106  A    
O20   Zn10  S    
C7    C119  A    
C81   H25   S    
C8    C120  A    
C106  C136  A    
Br15  C5    S    
O40   Zn4   S    
C85   H40   S    
O6    Zn11  S    
C104  H94   S    
C63   C98   S    
O38   Zn3   S    
C100  H85   S    
C57   C59   A    
C143  C149  S    
C113  C140  A    
C36   C53   A    
O32   Zn2   S    
C71   H56   S    
C38   C55   A    
Br23  C21   S    
C9    C121  A    
C92   H60   S    
C80   H21   S    
C128  C145  A    
C17   C34   A    
C101  C122  A    
C12   C124  A    
C159  C168  S    
Br32  C32   S    
O23   Zn6   S    
C83   H33   S    
C127  O34   A    
O48   Zn8   S    
C138  O48   A    
C185  C186  T    
C97   H75   S    
C178  C187  S    
C39   C56   A    
C2    C53   A    
O44   Zn1   S    
C86   H41   S    
C40   C58   A    
C69   C110  A    
C109  C126  A    
C135  C152  S    
C145  C171  S    
C153  O42   A    
Br19  C9    S    
C84   H35   S    
C64   C99   S    
C149  O6    A    
C95   H70   S    
C131  C147  S    
C90   C121  A    
O3    Zn10  S    
Br2   C31   S    
Br3   C30   S    
C99   H83   S    
C43   C78   S    
C51   C69   A    
Br5   C28   S    
C98   H80   S    
C166  C175  T    
C117  C139  A    
O1    Zn1   S    
Br6   C27   S    
C163  O26   A    
C70   H23   S    
O13   Zn7   S    
C95   H68   S    
C19   C37   A    
C109  C133  A    
C133  C154  S    
C81   H27   S    
C14   C31   A    
C13   C54   A    
Br1   C23   S    
C89   H52   S    
C160  O5    A    
C55   C91   S    
C29   C47   A    
C87   H44   S    
C49   C84   S    
C167  C176  T    
C71   H34   S    
C73   H3    S    
C130  C146  S    
C23   C41   A    
C35   C131  A    
C27   C44   A    
C65   C107  A    
C46   C117  A    
O30   Zn12  S    
C106  C123  A    
C162  O22   A    
C129  C182  A    
C60   C95   S    
C155  C164  S    
C50   C67   A    
C154  O41   A    
C1    C137  S    
C79   C120  A    
O46   Zn6   S    
O35   Zn2   S    
C96   H73   S    
C46   C58   A    
C2    C112  A    
C35   C56   A    
C90   C134  A    
C71   H45   S    
Br28  C19   S    
C92   H59   S    
C49   C66   A    
C162  C170  S    
C146  O27   A    
C74   H7    S    
C127  O47   A    
C112  C191  A    
C84   H37   S    
O7    Zn10  S    
C94   H66   S    
C181  C189  T    
C78   H19   S    
C83   H32   S    
C152  O37   A    
O29   Zn12  S    
Br25  C15   S    
C132  C148  S    
Br26  C16   S    
C102  H87   S    
C171  O4    A    
C72   H67   S    
C99   H81   S    
C173  C181  S    
C75   H8    S    
C72   H89   S    
C163  O24   A    
O36   Zn3   S    
C100  H84   S    
C11   C123  A    
C57   C129  A    
C111  C137  A    
C108  C134  A    
C18   C191  A    
C148  O33   A    
C103  H93   S    
C163  C172  S    
C2    C130  A    
C3    C114  A    
C105  O12   A    
C4    C115  A    
C150  O32   A    
C48   C83   S    
C77   H17   S    
C19   C192  A    
C82   H28   S    
C67   C103  S    
C68   C132  A    
Br10  C191  S    
C61   C79   A    
C75   H10   S    
C76   H14   S    
Br27  C25   S    
O37   Zn3   S    
O26   Zn9   S    
C156  O13   A    
O14   Zn1   S    
C158  O15   A    
C77   H16   S    
C82   H29   S    
C93   H62   S    
C124  C144  A    
C154  O39   A    
C134  C151  S    
C65   C100  S    
C5    C117  A    
Br11  C192  S    
C74   H5    S    
C157  O14   A    
Br14  C4    S    
C149  O2    A    
C156  C165  S    
C58   C93   S    
O21   Zn11  S    
C24   C114  A    
O43   Zn4   S    
C61   C96   S    
C150  O30   A    
C85   H39   S    
C103  H92   S    
C3    C20   A    
C50   C85   S    
C100  H86   S    
O33   Zn2   S    
C18   C36   A    
Br12  C22   S    
C123  C145  A    
C157  C166  S    
C96   H71   S    
C119  C141  A    
C59   C94   S    
O17   Zn5   S    
O8    Zn9   S    
C34   C70   S    
C42   C77   S    
C91   H54   S    
C88   H49   S    
C113  C192  A    
C80   H22   S    
C31   C49   A    
C177  C186  S    
C51   C86   S    
C156  O10   A    
C138  O7    A    
C104  H96   S    
C101  C135  A    
Br4   C33   S    
C144  C160  S    
C118  C137  A    
C7    C25   A    
C114  C141  A    
C97   H74   S    
O9    Zn1   S    
C164  C173  T    
C78   H18   S    
Br21  C11   S    
Br22  C12   S    
O15   Zn7   S    
Br7   C26   S    
C84   H36   S    
Br8   C29   S    
C120  C142  A    
C86   H42   S    
Br9   C190  S    
O4    Zn11  S    
C52   C182  A    
C26   C43   A    
C180  C189  S    
C68   C119  A    
O16   Zn6   S    
C146  O31   A    
C161  O19   A    
C62   C97   S    
C157  O16   A    
C41   C59   A    
C10   C28   A    
C24   C55   A    
C1    O46   A    
C12   C30   A    
C14   C125  A    
C45   C63   A    
C81   H26   S    
C66   C108  A    
C151  O36   A    
C53   C88   S    
C89   H51   S    
C155  O11   A    
C108  C125  A    
C40   C75   S    
C44   C80   S    
O2    Zn9   S    
C83   H31   S    
C73   H2    S    
C32   C50   A    
C125  C143  A    
C111  C182  A    
C79   C133  A    
C5    C22   A    
C46   C130  A    
C147  O35   A    
C160  O3    A    
C169  C178  T    
C60   C68   A    
C69   C104  S    
C80   H24   S    
C87   H46   S    
C115  C140  A    
C72   H78   S    
C136  C153  S    
Br30  C17   S    
C110  C128  A    
C152  O43   A    
C66   C102  S    
C97   H76   S    
Br31  C20   S    
C95   H69   S    
O47   Zn5   S    
C28   C45   A    
C105  O45   A    
C107  C124  A    
O45   Zn7   S    
C116  C140  S    
C158  O17   A    
C105  C139  S    
C20   C38   A    
C34   C52   A    
C78   H20   S    
C22   C40   A    
C127  C141  S    
C47   C82   S    
Br16  C6    S    
O22   Zn8   S    
C6    C118  A    
C37   C54   A    
C102  H88   S    
C37   C72   S    
C15   C126  A    
