data_mof_unit_43344.cif
_audit_creation_date              2012-12-10T17:55:05-0500
_audit_creation_method            fapswitch 2.2
_symmetry_space_group_name_H-M    P1
_symmetry_Int_Tables_number       1
_space_group_crystal_system       triclinic
_cell_length_a                    8.733736
_cell_length_b                    10.797625
_cell_length_c                    9.52975
_cell_angle_alpha                 90.146018
_cell_angle_beta                  97.953559
_cell_angle_gamma                 90.109595
_cell_volume                      890.039670556

loop_
_atom_site_label
_atom_site_type_symbol
_atom_type_description
_atom_site_fract_x
_atom_site_fract_y
_atom_site_fract_z
_atom_type_partial_charge
C1    C     C_R   0.495372 0.262350 0.499190 0.800090
C2    C     C_R   0.504629 0.737650 0.500810 0.800090
C3    C     C_R   0.203758 0.499982 0.463724 0.874470
C4    C     C_R   0.796242 0.500018 0.536276 0.874468
C5    C     C_2   0.037900 0.500091 0.443770 -0.360135
C6    C     C_2   0.962100 0.499909 0.556230 -0.360135
C7    C     C_R   0.586180 0.067002 0.413123 -0.199488
C8    C     C_R   0.413821 0.932998 0.586877 -0.199487
C9    C     C_R   0.598153 0.939056 0.416066 0.423816
C10   C     C_R   0.401848 0.060944 0.583933 0.423817
C11   C     C_R   0.508370 0.871550 0.502160 -0.217411
C12   C     C_R   0.491631 0.128450 0.497840 -0.217410
C13   C     C_R   0.398757 0.427365 0.061289 -0.008339
C14   C     C_R   0.601243 0.572635 0.938711 -0.008338
C15   C     C_R   0.398781 0.427403 0.912547 -0.001824
C16   C     C_R   0.601219 0.572597 0.087453 -0.001824
Cu1   Cu    Cu3+1 0.500000 0.500020 0.640660 0.956926
Cu2   Cu    Cu3+1 0.500000 0.499980 0.359340 0.956925
H1    H     H_    0.977920 0.500382 0.335895 0.175504
H2    H     H_    0.022080 0.499618 0.664105 0.175504
H3    H     H_    0.656438 0.119100 0.348579 0.185829
H4    H     H_    0.343562 0.880900 0.651420 0.185829
H5    H     H_    0.317776 0.368997 0.106796 0.129694
H6    H     H_    0.682224 0.631003 0.893204 0.129694
H7    H     H_    0.317774 0.369084 0.846118 0.137877
H8    H     H_    0.682225 0.630915 0.153882 0.137876
N1    N     N_R   0.500040 0.500030 0.852080 -0.168109
N2    N     N_R   0.499960 0.499970 0.147920 -0.168109
O1    O     O_R   0.499990 0.319660 0.618740 -0.567350
O2    O     O_R   0.500010 0.680340 0.381260 -0.567350
O3    O     O_R   0.499990 0.319630 0.381170 -0.582905
O4    O     O_R   0.500010 0.680370 0.618830 -0.582905
O5    O     O_R   0.274840 0.500010 0.591370 -0.587543
O6    O     O_R   0.725160 0.499990 0.408630 -0.587544
O7    O     O_R   0.274830 0.499980 0.353800 -0.586837
O8    O     O_R   0.725170 0.500020 0.646200 -0.586837
O9    O     O_3   0.701385 0.885029 0.337081 -0.723020
H9    H     H_    0.733351 0.803535 0.378332 0.318756
O10   O     O_3   0.298613 0.114971 0.662914 -0.723020
H10   H     H_    0.266648 0.196465 0.621662 0.318755

loop_
_geom_bond_atom_site_label_1
_geom_bond_atom_site_label_2
_ccdc_geom_bond_type
C16   N2    A    
C8    H4    S    
C4    O8    A    
C13   N2    A    
O9    H9    S    
C5    H1    S    
Cu1   O8    S    
C14   N1    A    
C6    H2    S    
Cu2   O7    S    
C15   N1    A    
C13   C15   A    
C3    O7    A    
C2    O2    A    
C1    O1    A    
Cu1   Cu2   S    
Cu2   N2    S    
C9    C11   A    
C5    C6    D    
C1    C12   S    
Cu1   O5    S    
C8    C11   A    
Cu2   O2    S    
C2    C11   S    
C10   C12   A    
C9    O9    S    
C14   C16   A    
Cu2   O6    S    
C16   H8    S    
C7    C12   A    
C4    O6    A    
C15   H7    S    
C4    C6    S    
C3    O5    A    
Cu1   N1    S    
C1    O3    A    
Cu1   O1    S    
C13   H5    S    
C2    O4    A    
C14   H6    S    
O10   H10   S    
C7    C9    A    
Cu1   O4    S    
Cu2   O3    S    
C7    H3    S    
C8    C10   A    
C10   O10   S    
C3    C5    S    
