data_mof_unit_37078.cif
_audit_creation_date              2013-03-05T15:51:32-0500
_audit_creation_method            fapswitch 2.2
_symmetry_space_group_name_H-M    P1
_symmetry_Int_Tables_number       1
_space_group_crystal_system       triclinic
_cell_length_a                    15.871294
_cell_length_b                    10.792203
_cell_length_c                    9.623835
_cell_angle_alpha                 90.607762
_cell_angle_beta                  88.181228
_cell_angle_gamma                 90.552504
_cell_volume                      1647.43581552

loop_
_atom_site_label
_atom_site_type_symbol
_atom_site_description
_atom_site_fract_x
_atom_site_fract_y
_atom_site_fract_z
_atom_type_partial_charge
O1    O     O_R   0.499990 0.319640 0.618810 -0.574349
O2    O     O_R   0.500000 0.319660 0.381240 -0.585537
C1    C     C_R   0.496797 0.262961 0.499588 0.797963
O3    O     O_R   0.379430 0.499990 0.618840 -0.597810
O4    O     O_R   0.379440 0.500020 0.381260 -0.582677
C2    C     C_R   0.340399 0.499645 0.501930 0.795215
Cu1   Cu    Cu3+1 0.499990 0.499990 0.640660 0.940006
Cu2   Cu    Cu3+1 0.500010 0.500010 0.359340 0.972664
O5    O     O_R   0.500000 0.680340 0.618760 -0.609864
O6    O     O_R   0.500010 0.680360 0.381190 -0.536861
O7    O     O_R   0.620560 0.499980 0.618740 -0.590138
O8    O     O_R   0.620570 0.500010 0.381160 -0.560814
C3    C     C_R   0.498113 0.737243 0.500852 0.853121
C4    C     C_R   0.659578 0.499861 0.498286 0.876274
C5    C     C_3   0.046042 0.383472 0.565708 -0.428675
C6    C     C_3   0.053020 0.520186 0.359507 -0.429396
C7    C     C_3   0.955738 0.519333 0.356654 -0.466366
H1    H     H_    0.924174 0.305032 0.511148 0.173847
H2    H     H_    0.067533 0.306297 0.495884 0.176077
H3    H     H_    0.078975 0.605101 0.309300 0.176928
H4    H     H_    0.077414 0.441199 0.295105 0.178764
H5    H     H_    0.934069 0.440676 0.290569 0.188067
H6    H     H_    0.934606 0.606165 0.307860 0.173711
C8    C     C_1   0.749214 0.501444 0.495870 -0.165110
C9    C     C_3   0.082770 0.508488 0.511120 0.299274
C10   C     C_3   0.948606 0.386415 0.570030 -0.381037
C11   C     C_3   0.916780 0.508022 0.505936 0.264478
C12   C     C_3   0.947538 0.622578 0.592964 0.038984
C13   C     C_3   0.047445 0.619844 0.605095 0.385577
C14   C     C_1   0.824693 0.503815 0.498337 -0.086536
C15   C     C_1   0.175200 0.503378 0.508570 -0.091419
C16   C     C_1   0.250749 0.500909 0.506076 -0.188532
H7    H     H_    0.069589 0.361192 0.669877 0.168068
H8    H     H_    0.924480 0.377054 0.679077 0.172529
H9    H     H_    0.930598 0.705541 0.532048 0.155797
H10   H     H_    0.596505 0.116927 0.353380 0.179733
C17   C     C_R   0.366625 0.128466 0.659145 -0.215751
H11   H     H_    0.360462 0.228009 0.655735 0.147559
C18   C     C_R   0.308028 0.063998 0.741978 -0.140109
H12   H     H_    0.260810 0.115231 0.801872 0.128134
C19   C     C_R   0.309783 0.934905 0.746478 0.245675
C20   C     C_R   0.369941 0.870620 0.665200 -0.165137
H13   H     H_    0.366404 0.770668 0.666467 0.159333
C21   C     C_R   0.432190 0.934475 0.583971 0.006307
C22   C     C_R   0.430446 0.065284 0.581691 0.105992
C23   C     C_R   0.491164 0.129283 0.498661 -0.146215
C24   C     C_R   0.550142 0.065755 0.415672 -0.264393
C25   C     C_R   0.553948 0.937644 0.418394 0.340437
C26   C     C_R   0.495100 0.871491 0.502777 -0.221220
H14   H     H_    0.381487 0.411607 0.133325 0.141115
C27   C     C_R   0.652256 0.545941 0.116710 0.247764
C28   C     C_R   0.707572 0.637029 0.061035 0.242970
C29   C     C_R   0.689317 0.689676 0.933590 -0.234432
H15   H     H_    0.731910 0.757048 0.886025 0.171057
C30   C     C_R   0.620534 0.645526 0.860452 -0.190281
H16   H     H_    0.613986 0.680483 0.757854 0.215870
C31   C     C_R   0.562213 0.562623 0.923824 0.179473
C32   C     C_R   0.569506 0.541781 0.068226 0.156963
N1    N     N_R   0.500800 0.501210 0.147910 -0.195001
C33   C     C_R   0.434694 0.451910 0.076681 -0.057408
H17   H     H_    0.385581 0.401072 0.875800 0.130593
C34   C     C_R   0.436752 0.446361 0.928585 -0.055064
N2    N     N_R   0.500820 0.501290 0.852040 -0.187511
C35   C     C_3   0.247897 0.864638 0.837472 -0.909702
H18   H     H_    0.203567 0.927680 0.894296 0.230004
H19   H     H_    0.210818 0.799948 0.773023 0.238315
H20   H     H_    0.282326 0.810548 0.914706 0.244249
N3    N     N_R   0.620272 0.876547 0.339487 0.124656
O9    O     O_R   0.664951 0.791622 0.396675 -0.406752
O10   O     O_R   0.644160 0.918087 0.217842 -0.378767
C36   C     C_3   0.691730 0.421171 0.142227 -0.835555
H21   H     H_    0.716978 0.382567 0.042008 0.212744
H22   H     H_    0.744566 0.428878 0.214461 0.228933
H23   H     H_    0.644690 0.353396 0.184592 0.251720
C37   C     C_3   0.789713 0.668538 0.126644 -0.803545
H24   H     H_    0.791034 0.633053 0.234157 0.243886
H25   H     H_    0.842708 0.628256 0.063692 0.204367
H26   H     H_    0.797974 0.770725 0.132418 0.261298
C38   C     C_3   0.075517 0.604597 0.757942 -0.839524
H27   H     H_    0.044583 0.524075 0.809399 0.218415
H28   H     H_    0.144687 0.591822 0.762107 0.225335
H29   H     H_    0.060336 0.688064 0.822044 0.234312
C39   C     C_3   0.084486 0.746119 0.554584 -0.906965
H30   H     H_    0.062766 0.822360 0.625128 0.238334
H31   H     H_    0.154441 0.746240 0.552379 0.242953
H32   H     H_    0.063766 0.769372 0.449133 0.214243
C40   C     C_3   0.897349 0.640886 0.732297 -0.894876
H33   H     H_    0.902077 0.559870 0.801297 0.241018
H34   H     H_    0.919822 0.725294 0.787166 0.237752
H35   H     H_    0.829671 0.655854 0.713173 0.244477

loop_
_geom_bond_atom_site_label_1
_geom_bond_atom_site_label_2
_geom_bond_distance
_ccdc_geom_bond_type
C21   C26   1.421919 A    
C9    C15   1.467962 S    
C2    C16   1.422354 S    
C40   H33   1.108061 S    
C6    H4    1.113842 S    
C19   C20   1.399517 A    
H1    C10   1.113423 S    
C30   H16   1.069215 S    
C28   C37   1.501010 S    
C38   H29   1.110407 S    
Cu1   Cu2   2.707369 S    
C18   C19   1.394901 A    
C29   H15   1.083109 S    
C21   C22   1.412667 A    
C5    H2    1.113848 S    
C10   C11   1.551692 S    
C7    H6    1.112008 S    
C27   C36   1.516259 S    
C39   H30   1.111539 S    
C12   C13   1.594214 S    
C17   H11   1.080610 S    
C13   C39   1.555498 S    
Cu2   N1    2.034586 S    
O4    C2    1.298827 A    
O7    C4    1.296808 A    
C5    C9    1.554519 S    
H10   C24   1.084905 S    
C33   C34   1.425226 A    
C4    C8    1.422032 S    
O5    C3    1.297275 A    
C10   H8    1.110935 S    
C15   C16   1.199091 T    
C12   H9    1.115083 S    
C6    C7    1.545040 S    
C6    H3    1.110165 S    
N1    C33   1.371480 A    
C11   C14   1.465936 S    
C20   C21   1.418236 A    
O3    Cu1   1.931544 S    
C31   N2    1.373101 A    
C29   C30   1.394930 A    
C9    C13   1.591947 S    
C27   C28   1.410283 A    
C7    C11   1.551486 S    
C35   H20   1.110400 S    
O3    C2    1.301449 A    
C18   H12   1.083236 S    
C36   H22   1.108071 S    
N3    O9    1.301454 A    
C5    C10   1.546304 S    
C32   N1    1.383366 A    
C22   C23   1.412174 A    
O1    C1    1.296696 A    
C35   H19   1.106569 S    
Cu1   O7    1.918531 S    
C37   H24   1.107977 S    
C34   N2    1.370445 A    
O4    Cu2   1.918529 S    
C24   C25   1.385068 A    
C13   C38   1.561250 S    
Cu2   O8    1.931545 S    
C12   C40   1.549598 S    
C27   C32   1.407810 A    
C25   N3    1.439273 S    
C37   H25   1.110231 S    
Cu1   N2    2.034647 S    
C3    C26   1.449984 S    
Cu2   O6    1.955480 S    
C25   C26   1.411679 A    
C39   H31   1.109791 S    
O8    C4    1.303163 A    
C30   C31   1.410333 A    
C20   H13   1.079796 S    
C17   C22   1.414636 A    
C28   C29   1.397007 A    
C38   H28   1.109801 S    
C6    C9    1.554556 S    
Cu1   O5    1.959971 S    
C23   C24   1.391910 A    
O1    Cu1   1.955481 S    
O2    Cu2   1.959971 S    
O6    C3    1.298892 A    
C36   H23   1.111362 S    
C1    C23   1.444535 S    
C7    H5    1.113618 S    
H14   C33   1.080830 S    
C35   H18   1.110796 S    
C40   H34   1.109670 S    
O2    C1    1.297981 A    
C36   H21   1.111106 S    
C17   C18   1.391651 A    
C31   C32   1.418668 A    
H17   C34   1.081585 S    
C37   H26   1.110351 S    
C8    C14   1.198959 T    
C38   H27   1.107660 S    
C39   H32   1.108697 S    
N3    O10   1.301889 A    
C40   H35   1.109168 S    
C11   C12   1.568630 S    
C19   C35   1.500602 S    
C5    H7    1.110462 S    
