data_mof_unit_62155.cif
_audit_creation_date              2013-03-05T16:22:39-0500
_audit_creation_method            fapswitch 2.2
_symmetry_space_group_name_H-M    P1
_symmetry_Int_Tables_number       1
_space_group_crystal_system       triclinic
_cell_length_a                    15.153674
_cell_length_b                    13.992105
_cell_length_c                    14.320685
_cell_angle_alpha                 90.000044
_cell_angle_beta                  92.003433
_cell_angle_gamma                 90.000021
_cell_volume                      3034.58451303

loop_
_atom_site_label
_atom_site_type_symbol
_atom_site_description
_atom_site_fract_x
_atom_site_fract_y
_atom_site_fract_z
_atom_type_partial_charge
O1    O     O_R   0.371460 0.581430 0.500010 -0.532548
O2    O     O_R   0.628540 0.418570 0.499990 -0.507225
O3    O     O_R   0.628540 0.581430 0.499990 -0.532567
O4    O     O_R   0.371460 0.418570 0.500010 -0.507222
C1    C     C_R   0.329862 0.499881 0.500130 0.875339
C2    C     C_R   0.670137 0.499881 0.499870 0.875373
O5    O     O_R   0.500000 0.581450 0.376050 -0.526231
O6    O     O_R   0.500000 0.418550 0.623950 -0.531571
O7    O     O_R   0.500000 0.581450 0.623950 -0.526220
O8    O     O_R   0.500000 0.418550 0.376050 -0.531562
C3    C     C_R   0.499834 0.499977 0.331190 0.826317
C4    C     C_R   0.500166 0.499977 0.668810 0.826314
Cu1   Cu    Cu3+1 0.500000 0.596430 0.500000 1.109244
Cu2   Cu    Cu3+1 0.500000 0.403570 0.500000 1.120123
C5    C     C_R   0.571315 0.107745 0.539839 0.285169
C6    C     C_R   0.489452 0.894192 0.416826 0.280763
C7    C     C_R   0.428686 0.107745 0.460159 0.285173
C8    C     C_R   0.510548 0.894193 0.583172 0.280768
C9    C     C_R   0.565829 0.208404 0.546988 0.450794
C10   C     C_R   0.478620 0.793658 0.419872 0.435442
C11   C     C_R   0.434171 0.208404 0.453011 0.450816
C12   C     C_R   0.521379 0.793659 0.580128 0.435424
N1    N     N_R   0.500000 0.258690 0.500000 -0.288922
N2    N     N_R   0.500000 0.741310 0.500000 -0.289384
C13   C     C_1   0.499856 0.499966 0.228858 -0.061895
C14   C     C_1   0.500144 0.499966 0.771141 -0.061898
C15   C     C_1   0.499894 0.500004 0.143401 0.076336
C16   C     C_1   0.500107 0.500004 0.856599 0.076335
C17   C     C_1   0.499966 0.500037 0.042732 0.081716
C18   C     C_1   0.500035 0.500037 0.957268 0.081716
C19   C     C_R   0.500000 0.055232 0.499999 -0.083749
C20   C     C_R   0.500000 0.946735 0.499999 -0.071596
C21   C     C_R   0.091259 0.568583 0.453633 -0.154602
C22   C     C_R   0.903960 0.423904 0.453775 -0.138035
C23   C     C_R   0.908738 0.568556 0.546404 -0.154596
C24   C     C_R   0.096034 0.423879 0.546181 -0.138044
H1    H     H_    0.053333 0.623591 0.417080 0.202716
H2    H     H_    0.938146 0.368041 0.417036 0.205417
H3    H     H_    0.946666 0.623543 0.582989 0.202712
H4    H     H_    0.061847 0.367996 0.582889 0.205423
C25   C     C_R   0.182938 0.570469 0.452823 0.346213
C26   C     C_R   0.812030 0.425619 0.451760 0.357520
C27   C     C_R   0.817060 0.570440 0.547217 0.346203
C28   C     C_R   0.187964 0.425594 0.548200 0.357550
C29   C     C_R   0.232801 0.498958 0.500650 -0.219575
C30   C     C_R   0.767196 0.498957 0.499349 -0.219544
C31   C     C_R   0.047987 0.495408 0.499567 -0.019438
C32   C     C_R   0.952009 0.495408 0.500427 -0.019426
Cl1   Cl    Cl    0.669645 0.049076 0.577819 -0.357646
Cl2   Cl    Cl    0.491474 0.953243 0.307432 -0.377070
Cl3   Cl    Cl    0.330356 0.049076 0.422178 -0.357617
Cl4   Cl    Cl    0.508526 0.953246 0.692566 -0.377065
Cl5   Cl    Cl    0.642823 0.266530 0.622491 -0.421849
Cl6   Cl    Cl    0.427433 0.743326 0.319008 -0.384100
Cl7   Cl    Cl    0.357178 0.266530 0.377507 -0.421841
Cl8   Cl    Cl    0.572561 0.743328 0.680995 -0.384085
Cl9   Cl    Cl    0.230732 0.661798 0.386892 -0.446676
Cl10  Cl    Cl    0.756949 0.336931 0.384235 -0.493238
Cl11  Cl    Cl    0.769263 0.661726 0.613204 -0.446685
Cl12  Cl    Cl    0.243038 0.336870 0.615684 -0.493195

loop_
_geom_bond_atom_site_label_1
_geom_bond_atom_site_label_2
_geom_bond_distance
_ccdc_geom_bond_type
Cu2   N1    2.027175 S    
O1    Cu1   1.959134 S    
C9    N1    1.376964 A    
C5    C19   1.410729 A    
C17   C18   1.223947 T    
C14   C16   1.223825 T    
C6    C20   1.404079 A    
C8    C12   1.417079 A    
C23   C27   1.389971 A    
C23   H3    1.084300 S    
C19   C20   1.518101 S    
O3    Cu1   1.959132 S    
C27   Cl11  1.759801 S    
O6    C4    1.307932 A    
O3    C2    1.303604 A    
C21   C25   1.389972 A    
C26   Cl10  1.765010 S    
C16   C18   1.441689 S    
C9    Cl5   1.761723 S    
C25   Cl9   1.759787 S    
C25   C29   1.415997 A    
Cu1   Cu2   2.698519 S    
C28   C29   1.418251 A    
C5    C9    1.414795 A    
C7    Cl3   1.770127 S    
O2    C2    1.300696 A    
C26   C30   1.418245 A    
C28   Cl12  1.765005 S    
C21   C31   1.393260 A    
C23   C32   1.393273 A    
C6    C10   1.417080 A    
O7    C4    1.308490 A    
C7    C19   1.410727 A    
C6    Cl2   1.772348 S    
C21   H1    1.084293 S    
O5    C3    1.308489 A    
C12   N2    1.390031 A    
C5    Cl1   1.770126 S    
C11   N1    1.376967 A    
O4    Cu2   1.959135 S    
C13   C15   1.223826 T    
O2    Cu2   1.959131 S    
C27   C30   1.415991 A    
O1    C1    1.303609 A    
C24   C28   1.392567 A    
C8    C20   1.404079 A    
O8    C3    1.307933 A    
C3    C13   1.465472 S    
C12   Cl8   1.762299 S    
C8    Cl4   1.772350 S    
C10   N2    1.390031 A    
O5    Cu1   1.787381 S    
C22   C32   1.394086 A    
C15   C17   1.441689 S    
C24   C31   1.394073 A    
C10   Cl6   1.762300 S    
O8    Cu2   1.787382 S    
C11   Cl7   1.761723 S    
O7    Cu1   1.787382 S    
C24   H4    1.084054 S    
O6    Cu2   1.787381 S    
C2    C30   1.471144 S    
C22   H2    1.084059 S    
C1    C29   1.471168 S    
C7    C11   1.414795 A    
C31   C32   1.454912 S    
Cu1   N2    2.027175 S    
C4    C14   1.465472 S    
O4    C1    1.300704 A    
C22   C26   1.392568 A    
