data_mof_unit_44164.cif
_audit_creation_date              2012-12-10T17:48:49-0500
_audit_creation_method            fapswitch 2.2
_symmetry_space_group_name_H-M    P1
_symmetry_Int_Tables_number       1
_space_group_crystal_system       triclinic
_cell_length_a                    15.730376
_cell_length_b                    10.624909
_cell_length_c                    9.967675
_cell_angle_alpha                 90.51818
_cell_angle_beta                  90.476133
_cell_angle_gamma                 92.229529
_cell_volume                      1664.54379556

loop_
_atom_site_label
_atom_site_type_symbol
_atom_type_description
_atom_site_fract_x
_atom_site_fract_y
_atom_site_fract_z
_atom_type_partial_charge
C1    C     C_R   0.501152 0.261006 0.499541 0.865352
C2    C     C_R   0.728039 0.077126 0.611518 -0.137063
C3    C     C_R   0.727446 0.946135 0.610581 -0.111360
C4    C     C_R   0.338544 0.499302 0.499584 0.857779
C5    C     C_R   0.653537 0.876847 0.574407 -0.110359
C6    C     C_R   0.578304 0.938311 0.538994 0.053734
C7    C     C_R   0.579374 0.070104 0.538768 0.093195
C8    C     C_R   0.504983 0.129009 0.498600 -0.178800
C9    C     C_R   0.431470 0.062312 0.458346 -0.178659
C10   C     C_R   0.428337 0.933299 0.460943 0.466529
C11   C     C_R   0.502112 0.871828 0.501443 -0.210497
C12   C     C_3   0.948087 0.387657 0.583115 -0.393303
C13   C     C_R   0.387924 0.335247 0.136217 -0.264968
C14   C     C_R   0.331155 0.253101 0.065686 0.371021
C15   C     C_R   0.331479 0.253256 0.924843 0.438240
C16   C     C_R   0.500333 0.739105 0.500455 0.852959
C17   C     C_R   0.387810 0.334875 0.857932 -0.182668
C18   C     C_R   0.444799 0.418653 0.926516 0.000674
C19   C     C_R   0.444838 0.418757 0.070289 0.014241
C20   C     C_R   0.553149 0.578451 0.075609 0.505315
C21   C     C_R   0.553451 0.578896 0.931737 0.354293
C22   C     C_R   0.661470 0.500672 0.500437 0.866053
C23   C     C_3   0.917193 0.500630 0.501606 0.104622
C24   C     C_3   0.046438 0.389429 0.587536 0.247841
C25   C     C_3   0.047391 0.487364 0.354702 0.178526
C26   C     C_3   0.948866 0.490009 0.355494 -0.475743
C27   C     C_1   0.750372 0.500510 0.501536 -0.163684
C28   C     C_3   0.082697 0.501460 0.501445 0.080191
C29   C     C_3   0.953809 0.624505 0.566235 -0.397518
C30   C     C_3   0.052759 0.629773 0.561132 0.759767
C31   C     C_1   0.825707 0.500394 0.501924 -0.025962
C32   C     C_1   0.174377 0.500044 0.499527 0.012143
C33   C     C_1   0.249677 0.499418 0.498840 -0.122846
C34   C     C_R   0.654823 0.139096 0.575695 -0.141084
H1    H     H_    0.923401 0.297805 0.536250 0.139454
H2    H     H_    0.784490 0.898002 0.637360 0.141175
H3    H     H_    0.656284 0.775341 0.573358 0.123623
H4    H     H_    0.353140 0.781822 0.445954 0.327479
H5    H     H_    0.642714 0.710990 0.092403 0.367793
H6    H     H_    0.282320 0.185272 0.230414 0.343371
H7    H     H_    0.241131 0.122587 0.907080 0.396139
H8    H     H_    0.384847 0.329813 0.751337 0.231462
H9    H     H_    0.603493 0.653315 0.773826 0.393688
H10   H     H_    0.071574 0.569073 0.295128 0.214160
H11   H     H_    0.044004 0.304046 0.324009 0.343914
H12   H     H_    0.928069 0.706854 0.513205 0.187143
H13   H     H_    0.919719 0.404269 0.305963 0.208517
H14   H     H_    0.928047 0.572179 0.296777 0.197942
H15   H     H_    0.071012 0.734854 0.721200 0.348985
H16   H     H_    0.141597 0.745884 0.492768 0.362247
H17   H     H_    0.931948 0.630802 0.672016 0.182626
H18   H     H_    0.375245 0.111280 0.428113 0.156913
H19   H     H_    0.067350 0.298158 0.545438 0.106633
H20   H     H_    0.386042 0.331605 0.242725 0.210031
H21   H     H_    0.132555 0.366048 0.725718 0.361770
H22   H     H_    0.922124 0.390959 0.686675 0.227670
H23   H     H_    0.658096 0.240853 0.576051 0.135889
H24   H     H_    0.785506 0.130905 0.639134 0.140702
N1    N     N_R   0.499210 0.498800 0.142780 -0.139962
N2    N     N_R   0.499180 0.498720 0.857170 -0.164503
O1    O     O_R   0.500000 0.316780 0.614690 -0.628931
O2    O     O_3   0.352151 0.872338 0.424402 -0.734925
O3    O     O_3   0.606615 0.657538 0.151443 -0.720118
O4    O     O_3   0.275224 0.172402 0.132253 -0.734092
O5    O     O_3   0.277799 0.175276 0.847969 -0.756775
O6    O     O_3   0.609780 0.662207 0.870993 -0.792103
O7    O     O_3   0.076273 0.378813 0.289608 -0.719713
O8    O     O_3   0.086419 0.649224 0.691674 -0.711062
O9    O     O_3   0.079460 0.730970 0.478635 -0.808785
O10   O     O_R   0.499990 0.316750 0.385360 -0.634111
O11   O     O_R   0.377150 0.500020 0.614720 -0.618008
O12   O     O_R   0.377140 0.499990 0.385380 -0.626233
O13   O     O_R   0.500010 0.683250 0.614640 -0.628497
O14   O     O_R   0.500000 0.683220 0.385310 -0.550305
O15   O     O_R   0.622860 0.500010 0.614620 -0.643230
O16   O     O_R   0.622850 0.499980 0.385280 -0.554594
O17   O     O_3   0.074562 0.399618 0.721771 -0.672215
Zn1   Zn    Zn3+2 0.500010 0.500020 0.653130 0.955008
Zn2   Zn    Zn3+2 0.499990 0.499980 0.346870 1.005867

loop_
_geom_bond_atom_site_label_1
_geom_bond_atom_site_label_2
_ccdc_geom_bond_type
H15   O8    S    
C5    H3    S    
C21   O6    S    
C1    C8    S    
C25   O7    S    
O16   Zn2   S    
C22   O16   A    
C7    C8    A    
C25   C28   S    
C12   C23   S    
N2    Zn1   S    
C16   O14   A    
C23   C29   S    
H16   O9    S    
O12   Zn2   S    
C5    C6    A    
H21   O17   S    
C15   O5    S    
C18   C19   A    
C23   C26   S    
C17   H8    S    
C8    C9    A    
H11   O7    S    
C34   H23   S    
O13   Zn1   S    
C9    C10   A    
C26   H14   S    
C2    C34   A    
C13   C14   A    
C10   O2    S    
C9    H18   S    
C22   O15   A    
C25   H10   S    
C13   C19   A    
C27   C31   T    
C16   O13   A    
C28   C32   S    
C21   N2    A    
N1    Zn2   S    
C6    C11   A    
H7    O5    S    
C19   N1    A    
C24   H19   S    
C20   N1    A    
C23   C31   S    
C29   C30   S    
C11   C16   S    
O1    Zn1   S    
C14   O4    S    
C17   C18   A    
C12   H1    S    
C12   H22   S    
C26   H13   S    
C18   N2    A    
O14   Zn2   S    
C7    C34   A    
C4    O12   A    
C30   O9    S    
C13   H20   S    
C29   H17   S    
C15   C17   A    
C4    C33   S    
O10   Zn2   S    
C24   C28   S    
C3    C5    A    
C1    O1    A    
C2    H24   S    
C6    C7    A    
H5    O3    S    
C12   C24   S    
C1    O10   A    
H6    O4    S    
C29   H12   S    
C22   C27   S    
C32   C33   T    
C20   O3    S    
C28   C30   S    
C2    C3    A    
C25   C26   S    
C3    H2    S    
H9    O6    S    
O11   Zn1   S    
O15   Zn1   S    
C10   C11   A    
C24   O17   S    
C20   C21   A    
C14   C15   A    
C4    O11   A    
C30   O8    S    
H4    O2    S    
