data_mof_unit_10799.cif
_audit_creation_date              2013-03-05T15:42:58-0500
_audit_creation_method            fapswitch 2.2
_symmetry_space_group_name_H-M    P1
_symmetry_Int_Tables_number       1
_space_group_crystal_system       triclinic
_cell_length_a                    8.591599
_cell_length_b                    15.289244
_cell_length_c                    22.981221
_cell_angle_alpha                 96.600533
_cell_angle_beta                  89.294991
_cell_angle_gamma                 99.129286
_cell_volume                      2960.74173446

loop_
_atom_site_label
_atom_site_type_symbol
_atom_site_description
_atom_site_fract_x
_atom_site_fract_y
_atom_site_fract_z
_atom_type_partial_charge
P1    P     P_3+3 0.054670 0.423610 0.368990 0.433268
O1    O     O_2   0.888680 0.450300 0.360330 -0.352988
O2    O     O_3   0.129270 0.451230 0.431380 -0.408774
O3    O     O_3   0.676100 0.614850 0.396630 -0.416461
O4    O     O_2   0.781180 0.548817 0.292464 -0.394597
O5    O     O_3   0.009962 0.307171 0.365228 -0.567806
O6    O     O_3   0.710110 0.711694 0.298295 -0.597543
H1    H     H_    0.813660 0.765768 0.378107 0.206709
C1    C     C_3   0.725554 0.868562 0.336842 0.248743
H2    H     H_    0.750824 0.877582 0.290510 0.080797
P2    P     P_3+3 0.674060 0.707690 0.546600 0.461777
P3    P     P_3+3 0.160220 0.776697 0.423837 0.387832
O7    O     O_2   0.851930 0.720960 0.529560 -0.350183
O8    O     O_3   0.095720 0.661380 0.425720 -0.410783
O9    O     O_2   0.054948 0.817872 0.471123 -0.345377
O10   O     O_3   0.677151 0.733792 0.622810 -0.566256
O11   O     O_3   0.090406 0.816903 0.361109 -0.568446
C2    C     C_3   0.143882 0.788573 0.303564 0.691577
C3    C     C_3   0.064449 0.847678 0.264498 -0.308066
H3    H     H_    0.941414 0.816182 0.256170 0.196700
H4    H     H_    0.060412 0.913161 0.290839 0.229472
C4    C     C_3   0.235929 0.731896 0.598134 0.390321
H5    H     H_    0.354751 0.713697 0.590297 0.072530
H6    H     H_    0.161417 0.709515 0.558346 0.104678
C5    C     C_3   0.246958 0.833584 0.610270 -0.436754
H7    H     H_    0.133275 0.850623 0.628191 0.234130
H8    H     H_    0.265125 0.862453 0.568115 0.152898
Ba1   Ba    Ba6+2 0.857590 0.542650 0.472590 1.517577
C6    C     C_3   0.951876 0.271952 0.309102 0.320376
H9    H     H_    0.047564 0.280297 0.276330 0.084282
H10   H     H_    0.851635 0.303922 0.296425 0.135314
C7    C     C_3   0.892225 0.172794 0.309235 -0.916690
H11   H     H_    0.989376 0.138094 0.321239 0.257712
H12   H     H_    0.846997 0.143536 0.265035 0.222280
H13   H     H_    0.795323 0.162600 0.341424 0.276280
C8    C     C_3   0.728377 0.665631 0.649014 0.209302
H14   H     H_    0.848289 0.657326 0.633437 0.102046
H15   H     H_    0.643593 0.603017 0.639181 0.077161
C9    C     C_3   0.735231 0.690636 0.715099 0.439728
H16   H     H_    0.771627 0.635967 0.736907 0.022963
H17   H     H_    0.617165 0.701929 0.731599 0.092531
P4    P     P_3+3 0.135040 0.576460 0.631020 0.525860
O12   O     O_2   0.301020 0.549730 0.639710 -0.301749
O13   O     O_3   0.060450 0.548840 0.568630 -0.437215
O14   O     O_3   0.513610 0.385220 0.603380 -0.370609
O15   O     O_3   0.167535 0.692781 0.646371 -0.541141
P5    P     P_3+3 0.053228 0.218457 0.566103 0.451735
O16   O     O_3   0.611400 0.391150 0.470030 -0.436291
O17   O     O_3   0.093990 0.338690 0.574280 -0.353105
O18   O     O_2   0.193572 0.182960 0.534525 -0.387218
O19   O     O_3   0.067883 0.183791 0.635422 -0.551775
Ba2   Ba    Ba6+2 0.332250 0.457420 0.527420 1.540873
P6    P     P_3+3 0.655061 0.603623 0.318302 0.404912
C10   C     C_3   0.713285 0.772038 0.349959 0.261988
H18   H     H_    0.604361 0.757561 0.375833 0.020367
H19   H     H_    0.611175 0.890111 0.345842 0.081824
O20   O     O_3   0.578310 0.608920 0.529980 -0.440668
C11   C     C_3   0.367749 0.243077 0.349093 0.395774
H20   H     H_    0.294397 0.190040 0.371171 0.107816
H21   H     H_    0.308303 0.302392 0.352118 0.096320
C12   C     C_3   0.379445 0.209091 0.284590 -1.015876
H22   H     H_    0.444245 0.151376 0.279500 0.266897
H23   H     H_    0.259717 0.187523 0.265400 0.237152
H24   H     H_    0.442895 0.262875 0.260522 0.268853
P7    P     P_3+3 0.516610 0.278838 0.449920 0.401989
O21   O     O_2   0.337770 0.279070 0.470480 -0.372824
O22   O     O_3   0.520968 0.266470 0.372879 -0.565156
C13   C     C_3   0.926602 0.188080 0.665610 0.055143
H25   H     H_    0.902097 0.257812 0.671246 0.087197
H26   H     H_    0.829199 0.142774 0.641399 0.050719
C14   C     C_3   0.941953 0.157929 0.726315 0.618157
H27   H     H_    0.049874 0.196972 0.747668 0.101869
P8    P     P_3+3 0.551106 0.403199 0.679763 0.457845
C15   C     C_3   0.509742 0.254524 0.728933 0.645274
H28   H     H_    0.626091 0.284170 0.747730 0.085564
O23   O     O_2   0.485456 0.489089 0.702459 -0.329150
O24   O     O_3   0.424667 0.319312 0.711206 -0.499701
H29   H     H_    0.473518 0.148048 0.785330 0.180888
C16   C     C_3   0.420597 0.207917 0.778414 -0.394423
H30   H     H_    0.296294 0.184043 0.765669 0.180186
H31   H     H_    0.992121 0.265740 0.043024 0.168115
H32   H     H_    0.914889 0.263746 0.941899 0.172822
C17   C     C_R   0.331147 0.528138 0.327246 -0.153041
C18   C     C_R   0.122581 0.558874 0.937430 -0.339154
C19   C     C_R   0.070557 0.556689 0.878487 0.696292
O25   O     O_2   0.090301 0.625095 0.854783 -0.469448
N1    N     N_R   0.994969 0.478364 0.847830 -0.164050
C20   C     C_R   0.964956 0.401614 0.875924 0.496272
O26   O     O_2   0.901507 0.331746 0.849011 -0.565239
C21   C     C_R   0.009457 0.402556 0.935317 -0.005810
C22   C     C_R   0.090109 0.481523 0.966193 -0.088710
C23   C     C_R   0.204996 0.637091 0.968252 0.766685
C24   C     C_R   0.253975 0.639945 0.026986 -0.002308
C25   C     C_R   0.223591 0.560918 0.056433 -0.157143
C26   C     C_R   0.138637 0.482619 0.025759 -0.039568
C27   C     C_R   0.976446 0.325543 0.964293 -0.132710
C28   C     C_R   0.021230 0.326699 0.022669 -0.131513
C29   C     C_R   0.102589 0.404606 0.054245 -0.012774
C30   C     C_R   0.148021 0.405551 0.113596 0.513491
N2    N     N_R   0.231027 0.481768 0.144212 -0.159659
C31   C     C_R   0.275112 0.556900 0.115023 0.541896
C32   C     C_2   0.799936 0.440496 0.767506 -0.237257
C33   C     C_3   0.766399 0.419094 0.702070 0.092945
C34   C     C_1   0.012364 0.519619 0.686743 0.163052
C35   C     C_2   0.062110 0.513988 0.741052 0.697523
C36   C     C_2   0.948108 0.476571 0.786197 -0.049076
C37   C     C_R   0.425066 0.523504 0.227862 -0.257318
C38   C     C_R   0.454570 0.547543 0.288017 0.213890
C39   C     C_R   0.188945 0.472938 0.310114 0.207556
C40   C     C_R   0.156843 0.454707 0.249040 -0.332134
C41   C     C_R   0.271606 0.484660 0.206865 0.190311
O27   O     O_2   0.116029 0.337660 0.137533 -0.608883
O28   O     O_2   0.360819 0.620545 0.140103 -0.638964
C42   C     C_2   0.867208 0.485839 0.668977 -0.548258
H33   H     H_    0.519528 0.539502 0.197402 0.185057
H34   H     H_    0.711589 0.417697 0.798805 0.165966
H35   H     H_    0.041311 0.420794 0.234653 0.164542
H36   H     H_    0.817376 0.506140 0.630956 0.153118
C43   C     C_R   0.791465 0.220313 0.492626 -0.178846
C44   C     C_R   0.870304 0.165923 0.522956 0.223475
C45   C     C_R   0.802065 0.075788 0.523254 -0.257907
C46   C     C_R   0.641822 0.046633 0.505461 0.115784
C47   C     C_R   0.553173 0.115304 0.497235 -0.329711
C48   C     C_R   0.627768 0.197974 0.482367 0.235474
C49   C     C_R   0.434969 0.914657 0.455271 0.072160
C50   C     C_R   0.364804 0.822596 0.452809 0.130260
C51   C     C_R   0.582916 0.791045 0.509903 0.324926
C52   C     C_R   0.641999 0.882832 0.519064 -0.302829
C53   C     C_R   0.569797 0.947519 0.493696 0.097274
C54   C     C_R   0.441051 0.763500 0.479788 -0.526734
H37   H     H_    0.874160 0.031134 0.538276 0.149032
H38   H     H_    0.742701 0.902680 0.547835 0.147366
H39   H     H_    0.427389 0.104107 0.498564 0.184120
H40   H     H_    0.384002 0.695638 0.480633 0.151549
C55   C     C_3   0.383549 0.878245 0.651459 -0.379902
C56   C     C_3   0.360911 0.855133 0.714249 -0.586886
H41   H     H_    0.243200 0.867134 0.730816 0.258234
H42   H     H_    0.373479 0.784510 0.716669 0.272896
H43   H     H_    0.452807 0.897810 0.742902 0.211327
H44   H     H_    0.496766 0.860067 0.634243 0.223978
H45   H     H_    0.392238 0.951621 0.652354 0.195778
F1    F     F_    0.837488 0.923693 0.372632 -0.668931
F2    F     F_    0.842916 0.767472 0.728975 -0.654616
C57   C     C_3   0.134286 0.870417 0.205024 -0.383601
C58   C     C_3   0.039804 0.932278 0.177837 -0.883278
H46   H     H_    0.915090 0.900052 0.170922 0.260949
H47   H     H_    0.043695 0.996132 0.206683 0.265568
H48   H     H_    0.091068 0.947101 0.134787 0.261225
H49   H     H_    0.257445 0.905556 0.210403 0.224670
H50   H     H_    0.129237 0.809487 0.173723 0.216762
F3    F     F_    0.815802 0.176619 0.760787 -0.715518
C59   C     C_3   0.949246 0.057554 0.722050 -0.419228
C60   C     C_3   0.979090 0.028613 0.781770 -0.735745
H51   H     H_    0.985139 0.956121 0.776794 0.279540
H52   H     H_    0.092571 0.065310 0.800572 0.219147
H53   H     H_    0.881973 0.041292 0.812360 0.287565
H54   H     H_    0.836043 0.019077 0.703954 0.211830
H55   H     H_    0.045114 0.040771 0.692007 0.182241
C61   C     C_3   0.540144 0.186451 0.676765 -0.547264
C62   C     C_3   0.393836 0.145403 0.641770 -0.686784
H56   H     H_    0.302085 0.113084 0.670037 0.235944
H57   H     H_    0.352534 0.199211 0.621182 0.339375
H58   H     H_    0.422994 0.094126 0.607039 0.211004
H59   H     H_    0.623878 0.220901 0.646477 0.169071
H60   H     H_    0.592647 0.131536 0.692362 0.222684
C63   C     C_3   0.081891 0.687336 0.289371 -0.204280
C64   C     C_3   0.032522 0.653521 0.225660 -0.890352
H61   H     H_    0.926762 0.679689 0.212556 0.273782
H62   H     H_    0.129025 0.670445 0.195091 0.262985
H63   H     H_    0.001154 0.580129 0.220461 0.270805
H64   H     H_    0.170848 0.649084 0.302889 0.150984
H65   H     H_    0.981025 0.670369 0.317983 0.256387
C65   C     C_3   0.428362 0.266940 0.837607 -0.346254
C66   C     C_3   0.339794 0.346097 0.837614 -0.716104
H66   H     H_    0.406401 0.398345 0.813219 0.281164
H67   H     H_    0.220889 0.324208 0.817759 0.270220
H68   H     H_    0.326452 0.376127 0.883376 0.218450
H69   H     H_    0.374433 0.225013 0.871293 0.208239
H70   H     H_    0.553148 0.291384 0.850748 0.229623
C67   C     C_3   0.333307 0.730275 0.056102 -0.231089
C68   C     C_3   0.512664 0.740396 0.051202 -0.752062
H71   H     H_    0.558966 0.685593 0.069596 0.273470
H72   H     H_    0.547857 0.739860 0.004506 0.261462
H73   H     H_    0.566857 0.804840 0.075463 0.225838
H74   H     H_    0.294354 0.785469 0.035471 0.210099
H75   H     H_    0.295390 0.742930 0.101976 0.186526
F4    F     F_    0.240813 0.711920 0.940760 -0.656763
F5    F     F_    0.215763 0.542173 0.756199 -0.643787
C69   C     C_3   0.368096 0.555794 0.388998 -0.403178
C70   C     C_3   0.453938 0.484489 0.408465 -0.417268
H76   H     H_    0.375303 0.422815 0.414727 0.220667
H77   H     H_    0.541853 0.461902 0.376723 0.215607
H78   H     H_    0.515968 0.513168 0.448566 0.296680
H79   H     H_    0.427228 0.625148 0.393563 0.159399
H80   H     H_    0.274236 0.571174 0.417439 0.241379
C71   C     C_3   0.326904 0.808641 0.298895 -0.514692
C72   C     C_3   0.402590 0.763612 0.245276 -0.809340
H81   H     H_    0.390264 0.691600 0.247564 0.291408
H82   H     H_    0.354333 0.775193 0.203426 0.260514
H83   H     H_    0.529524 0.790485 0.243967 0.254385
H84   H     H_    0.363335 0.880584 0.298524 0.195015
H85   H     H_    0.380097 0.787814 0.337291 0.177187
C73   C     C_3   0.364463 0.974017 0.416573 -0.309316
C74   C     C_3   0.483621 0.030122 0.379415 -0.939986
H86   H     H_    0.608020 0.027528 0.389976 0.304843
H87   H     H_    0.465660 0.011511 0.331825 0.232399
H88   H     H_    0.466445 0.099919 0.386917 0.270585
H89   H     H_    0.281049 0.935110 0.385037 0.235475
H90   H     H_    0.285341 0.014087 0.442089 0.195824
C75   C     C_3   0.868456 0.313155 0.489322 -0.208526
C76   C     C_3   0.819751 0.364858 0.545856 -0.600296
H91   H     H_    0.696075 0.348257 0.548945 0.241921
H92   H     H_    0.844487 0.341165 0.587759 0.166729
H93   H     H_    0.853883 0.435878 0.546273 0.266436
H94   H     H_    0.996650 0.318294 0.482306 0.241165
H95   H     H_    0.833920 0.337692 0.449130 0.239136

loop_
_geom_bond_atom_site_label_1
_geom_bond_atom_site_label_2
_geom_bond_distance
_ccdc_geom_bond_type
C73   C74   1.543159 S    
C63   H65   1.097499 S    
C24   C25   1.438610 A    
C14   C59   1.537687 S    
O3    P6    1.797098 S    
C72   H83   1.104034 S    
C31   O28   1.214685 D    
C16   C65   1.539563 S    
C3    H3    1.099173 S    
N1    C20   1.390829 Am   
C52   C53   1.427917 A    
C28   C29   1.408389 A    
C2    C63   1.553218 S    
C26   C29   1.415784 A    
C47   C48   1.400701 A    
P5    O17   1.804192 S    
Ba1   O20   2.984944 S    
C67   C68   1.528154 S    
C3    C57   1.540081 S    
C15   C61   1.542880 S    
C47   H39   1.067613 S    
C65   H69   1.111716 S    
C35   F5    1.358642 S    
O4    P6    1.544897 D    
O2    Ba1   2.995915 S    
C3    H4    1.114087 S    
C2    C3    1.576597 S    
C6    C7    1.521706 S    
C19   O25   1.221391 D    
O2    Ba2   2.813524 S    
O12   Ba2   2.826491 S    
P3    C50   1.885536 S    
C72   H81   1.096528 S    
C11   H21   1.104415 S    
C75   H94   1.102868 S    
C68   H71   1.109202 S    
C17   C38   1.401214 A    
O14   P8    1.770755 S    
P1    O1    1.565333 D    
P4    O15   1.750989 S    
P7    C48   1.897583 S    
C12   H23   1.109722 S    
C66   H66   1.109005 S    
N2    C31   1.394922 Am   
C57   H50   1.105003 S    
C70   H78   1.081952 S    
P1    C39   1.910635 S    
C40   C41   1.434081 A    
C69   H79   1.094668 S    
C14   F3    1.381691 S    
C61   C62   1.509735 S    
C25   C31   1.433513 A    
C13   H25   1.112009 S    
P7    O22   1.759391 S    
C15   O24   1.418206 S    
P3    O11   1.777012 S    
P1    Ba1   3.424988 S    
C70   H77   1.110494 S    
C37   C38   1.404517 A    
C17   C39   1.402920 A    
O7    Ba1   2.892876 S    
C18   C22   1.408501 A    
O16   P7    1.791233 S    
C64   H63   1.104564 S    
C1    H2    1.103842 S    
C46   C53   1.537788 S    
C12   H22   1.110352 S    
O13   Ba2   2.996791 S    
C11   C12   1.520953 S    
C68   H72   1.110796 S    
C63   H64   1.100963 S    
C60   H51   1.110508 S    
C65   C66   1.528378 S    
C74   H86   1.106726 S    
C54   H40   1.077115 S    
P4    O13   1.562797 S    
C45   H37   1.078244 S    
C56   H43   1.110517 S    
C52   H38   1.078176 S    
C40   H35   1.081105 S    
C34   C35   1.340643 D    
O3    Ba1   2.784499 S    
C24   C67   1.523062 S    
C49   C73   1.534517 S    
C58   H46   1.111206 S    
P5    O18   1.539703 D    
C19   N1    1.386626 Am   
C55   H44   1.109498 S    
C59   H55   1.110523 S    
C23   F4    1.361049 S    
H32   C27   1.083323 S    
C15   H28   1.101424 S    
C58   H47   1.111340 S    
C2    C71   1.558388 S    
P1    O5    1.752938 S    
C62   H58   1.108147 S    
C55   C56   1.527559 S    
C33   C42   1.500548 S    
O16   Ba2   2.983991 S    
C18   C19   1.426723 A    
C64   H62   1.098763 S    
Ba2   O20   2.873300 S    
H1    C10   1.107044 S    
C64   H61   1.107333 S    
C50   C54   1.398765 A    
H29   C16   1.112273 S    
C57   C58   1.528345 S    
P5    O19   1.747769 S    
O14   Ba2   2.783796 S    
C5    H7    1.112489 S    
C43   C48   1.409769 A    
C4    C5    1.535634 S    
C69   C70   1.519219 S    
C61   H60   1.109156 S    
P1    O2    1.562826 S    
C62   H57   1.101283 S    
C12   H24   1.110942 S    
P2    C51   1.878462 S    
C7    H13   1.111231 S    
C70   H76   1.092219 S    
C6    H9    1.110364 S    
P2    O10   1.750557 S    
C69   H80   1.069895 S    
C30   N2    1.386273 Am   
C74   H88   1.094223 S    
P3    O8    1.767605 S    
C43   C44   1.399926 A    
O17   Ba2   2.803811 S    
C27   C28   1.397579 A    
O5    C6    1.404849 S    
O11   C2    1.436703 S    
C25   C26   1.415691 A    
C1    H19   1.095034 S    
C59   C60   1.526254 S    
C60   H53   1.110654 S    
C66   H68   1.110277 S    
C37   H33   1.082083 S    
C45   C46   1.427775 A    
C42   H36   1.075563 S    
C67   H75   1.104361 S    
C34   C42   1.322272 D    
C56   H42   1.109788 S    
P5    C44   1.884952 S    
C4    O15   1.398827 S    
C74   H87   1.104337 S    
C75   C76   1.530856 S    
P3    O9    1.547414 D    
C15   C16   1.542429 S    
C49   C50   1.435634 A    
P8    O23   1.544352 D    
C4    H6    1.111746 S    
C16   H30   1.104080 S    
C60   H52   1.110461 S    
P4    O12   1.565624 D    
O6    P6    1.756856 S    
C71   H85   1.099800 S    
C51   C52   1.407134 A    
C9    H16   1.109376 S    
C58   H48   1.110547 S    
Ba2   O21   2.892991 S    
C44   C45   1.410175 A    
C35   C36   1.515451 S    
C68   H73   1.110402 S    
C10   H18   1.108684 S    
C59   H54   1.112256 S    
Ba1   O16   2.873979 S    
C43   C75   1.477773 S    
P8    O24   1.760349 S    
C57   H49   1.109557 S    
C76   H92   1.101528 S    
C4    H5    1.107305 S    
C37   C41   1.423109 A    
C17   C69   1.457395 S    
C8    C9    1.522414 S    
C73   H90   1.105005 S    
C9    F2    1.383458 S    
C71   C72   1.530528 S    
P4    C34   1.854184 S    
C1    F1    1.383724 S    
C21   C27   1.407098 A    
Ba1   Ba2   4.701796 S    
C5    H8    1.109232 S    
C73   H89   1.082167 S    
C7    H11   1.110904 S    
C72   H82   1.095684 S    
C20   C21   1.419852 A    
C11   H20   1.112070 S    
C51   C54   1.390252 A    
C14   H27   1.106829 S    
C6    H10   1.112658 S    
C39   C40   1.420878 A    
O10   C8    1.392370 S    
P2    O7    1.560457 D    
P6    C38   1.900094 S    
C21   C22   1.411031 A    
C63   C64   1.537085 S    
N1    C36   1.473310 S    
H31   C28   1.083229 S    
P2    Ba1   3.457799 S    
C13   C14   1.532270 S    
C75   H95   1.097121 S    
C30   O27   1.221729 D    
C8    H15   1.109582 S    
C23   C24   1.412618 A    
Ba1   O13   2.812880 S    
C32   C36   1.358498 D    
P8    C33   1.896132 S    
O19   C13   1.397520 S    
P7    O21   1.602384 D    
C32   C33   1.522871 S    
C5    C55   1.537505 S    
C62   H56   1.106856 S    
C66   H67   1.109820 S    
C32   H34   1.084112 S    
C67   H74   1.111052 S    
C22   C26   1.433377 A    
C76   H91   1.056046 S    
C49   C53   1.453482 A    
C11   O22   1.408187 S    
C55   H45   1.110292 S    
C76   H93   1.077847 S    
C20   O26   1.221644 D    
C9    H17   1.110670 S    
N2    C41   1.479669 S    
C8    H14   1.107991 S    
C29   C30   1.421165 A    
P4    Ba2   3.425627 S    
C46   C47   1.421644 A    
C13   H26   1.108435 S    
C65   H70   1.111382 S    
C61   H59   1.109588 S    
C56   H41   1.111190 S    
O1    Ba1   2.825955 S    
C1    C10   1.527094 S    
C18   C23   1.407879 A    
O6    C10   1.415150 S    
O8    Ba1   2.803218 S    
C71   H84   1.095808 S    
P2    O20   1.607486 S    
C7    H12   1.110395 S    
