data_mof_unit_29817.cif
_audit_creation_date              2013-03-05T16:08:50-0500
_audit_creation_method            fapswitch 2.2
_symmetry_space_group_name_H-M    P1
_symmetry_Int_Tables_number       1
_space_group_crystal_system       triclinic
_cell_length_a                    27.372273
_cell_length_b                    11.562481
_cell_length_c                    10.751608
_cell_angle_alpha                 90.001428
_cell_angle_beta                  89.99801
_cell_angle_gamma                 91.280576
_cell_volume                      3401.94144948

loop_
_atom_site_label
_atom_site_type_symbol
_atom_site_description
_atom_site_fract_x
_atom_site_fract_y
_atom_site_fract_z
_atom_type_partial_charge
O1    O     O_R   0.500000 0.334450 0.602530 -0.594600
O2    O     O_R   0.500000 0.665550 0.397470 -0.607604
O3    O     O_R   0.500000 0.665550 0.602530 -0.594726
O4    O     O_R   0.500000 0.334450 0.397470 -0.607656
C1    C     C_R   0.499901 0.281108 0.500004 0.923629
C2    C     C_R   0.500099 0.718892 0.500007 0.923455
O5    O     O_R   0.428750 0.500000 0.602520 -0.579731
O6    O     O_R   0.571250 0.500000 0.397480 -0.578873
O7    O     O_R   0.571250 0.500000 0.602520 -0.579592
O8    O     O_R   0.428750 0.500000 0.397480 -0.578998
C3    C     C_R   0.405347 0.495122 0.500257 1.018750
C4    C     C_R   0.594658 0.504874 0.500253 1.018381
Zn1   Zn    Zn3+2 0.500000 0.500000 0.636920 1.094848
Zn2   Zn    Zn3+2 0.500000 0.500000 0.363080 1.083118
C5    C     C_R   0.169769 0.361708 0.528315 0.701510
C6    C     C_R   0.830303 0.637719 0.528038 0.701558
C7    C     C_R   0.182577 0.553317 0.607395 0.689140
C8    C     C_R   0.817454 0.445950 0.606625 0.689190
O9    O     O_2   0.189368 0.267212 0.476758 -0.422169
O10   O     O_2   0.810717 0.732372 0.476794 -0.422243
O11   O     O_2   0.214093 0.642030 0.630889 -0.434400
O12   O     O_2   0.785928 0.357176 0.629768 -0.434521
N1    N     N_R   0.199601 0.454871 0.554290 -0.330391
N2    N     N_R   0.800452 0.544539 0.553794 -0.330356
C9    C     C_R   0.281271 0.389862 0.608117 0.382331
C10   C     C_R   0.718832 0.609411 0.608261 0.382107
C11   C     C_R   0.270587 0.516548 0.429547 0.375597
C12   C     C_R   0.729392 0.483500 0.429005 0.375623
C13   C     C_R   0.331915 0.399373 0.594181 0.279364
C14   C     C_R   0.668178 0.600039 0.594478 0.279620
C15   C     C_R   0.321356 0.530702 0.418174 0.293330
C16   C     C_R   0.678614 0.469463 0.417750 0.293356
C17   C     C_R   0.250757 0.450116 0.527514 -0.046089
C18   C     C_R   0.749286 0.549480 0.527223 -0.045995
C19   C     C_R   0.100840 0.471239 0.599326 -0.168096
C20   C     C_R   0.899201 0.528004 0.598918 -0.168012
C21   C     C_R   0.119234 0.365961 0.553465 -0.164201
C22   C     C_R   0.880838 0.633348 0.553145 -0.164153
C23   C     C_R   0.132599 0.563933 0.632030 -0.141404
C24   C     C_R   0.867419 0.435281 0.631389 -0.141409
C25   C     C_R   0.086153 0.271862 0.530663 0.320449
C26   C     C_R   0.913947 0.727417 0.530444 0.320438
C27   C     C_R   0.113326 0.662790 0.690313 0.293320
C28   C     C_R   0.886649 0.336370 0.689657 0.293244
C29   C     C_R   0.352231 0.474752 0.503100 -0.376176
C30   C     C_R   0.647790 0.525097 0.503074 -0.376357
C31   C     C_R   0.968318 0.403323 0.631152 -0.008576
C32   C     C_R   0.031700 0.595878 0.631378 -0.008593
C33   C     C_R   0.981791 0.611244 0.602958 -0.028265
C34   C     C_R   0.018250 0.387973 0.602966 -0.028247
C35   C     C_R   0.949653 0.514757 0.612697 -0.060824
C36   C     C_R   0.050379 0.484458 0.612925 -0.060844
C37   C     C_R   0.937305 0.314475 0.680026 0.423382
C38   C     C_R   0.062678 0.684700 0.680446 0.423339
C39   C     C_R   0.964164 0.714953 0.552410 0.398189
C40   C     C_R   0.035921 0.284282 0.552465 0.398212
C41   C     C_1   0.499916 0.161032 0.500026 -0.098422
C42   C     C_1   0.500081 0.838968 0.500033 -0.098564
C43   C     C_1   0.499961 0.059138 0.500053 0.065227
C44   C     C_1   0.500034 0.940861 0.500056 0.065184
N3    N     N_1   0.500000 0.500000 0.180630 -0.054326
N4    N     N_1   0.500000 0.500000 0.819370 -0.047758
C45   C     C_1   0.500000 0.500000 0.069687 0.134400
C46   C     C_1   0.500000 0.500000 0.930311 0.142917
Cl1   Cl    Cl    0.345353 0.624888 0.302603 -0.429973
Cl2   Cl    Cl    0.654558 0.375792 0.301775 -0.429863
Cl3   Cl    Cl    0.369181 0.313411 0.690315 -0.457655
Cl4   Cl    Cl    0.631004 0.685663 0.691223 -0.457222
Cl5   Cl    Cl    0.231128 0.586370 0.324964 -0.431698
Cl6   Cl    Cl    0.768788 0.414073 0.323935 -0.431267
Cl7   Cl    Cl    0.255652 0.307356 0.731313 -0.407263
Cl8   Cl    Cl    0.744545 0.691338 0.731777 -0.407405
Cl9   Cl    Cl    0.104726 0.135593 0.475113 -0.558388
Cl10  Cl    Cl    0.895434 0.863676 0.474734 -0.558620
Cl11  Cl    Cl    0.150288 0.744006 0.795231 -0.476982
Cl12  Cl    Cl    0.849606 0.255103 0.794355 -0.476839
O13   O     O_3   0.958839 0.225592 0.746786 -0.626296
C47   C     C_3   0.939672 0.113918 0.716644 0.189380
H1    H     H_    0.967397 0.067632 0.661963 0.201863
H2    H     H_    0.905871 0.113590 0.658997 0.175594
C48   C     C_3   0.931070 0.045013 0.836842 -0.365497
H3    H     H_    0.964674 0.048793 0.894339 0.217801
H4    H     H_    0.901687 0.083643 0.892973 0.285856
C49   C     C_3   0.917253 0.918895 0.810133 -0.804875
H5    H     H_    0.882902 0.913340 0.755282 0.313431
H6    H     H_    0.911557 0.871851 0.899160 0.271875
H7    H     H_    0.946916 0.876673 0.757903 0.278508
O14   O     O_3   0.041102 0.773588 0.747114 -0.626302
C50   C     C_3   0.060295 0.885253 0.717031 0.189407
H8    H     H_    0.032611 0.931533 0.662218 0.201851
H9    H     H_    0.094139 0.885562 0.659539 0.175533
C51   C     C_3   0.068817 0.954191 0.837243 -0.365603
H10   H     H_    0.035178 0.950411 0.894614 0.217796
H11   H     H_    0.098170 0.915591 0.893495 0.285793
C52   C     C_3   0.082640 0.080308 0.810544 -0.805178
H12   H     H_    0.117026 0.085862 0.755827 0.313411
H13   H     H_    0.088275 0.127384 0.899577 0.271786
H14   H     H_    0.053008 0.122501 0.758176 0.278564
O15   O     O_3   0.996389 0.801054 0.512949 -0.640342
C53   C     C_3   0.011722 0.775985 0.390521 0.027280
H15   H     H_    0.980506 0.783430 0.324751 0.190000
H16   H     H_    0.026706 0.687276 0.383781 0.137394
C54   C     C_3   0.051974 0.862703 0.352979 -0.298054
H17   H     H_    0.038503 0.952008 0.363515 0.263553
H18   H     H_    0.083983 0.852689 0.415392 0.248499
C55   C     C_3   0.067961 0.844826 0.218473 -0.829621
H19   H     H_    0.082301 0.756460 0.205952 0.282342
H20   H     H_    0.097300 0.908877 0.194543 0.295773
H21   H     H_    0.036712 0.857116 0.154219 0.247207
O16   O     O_3   0.003730 0.198164 0.512876 -0.640324
C56   C     C_3   0.988502 0.223180 0.390351 0.027261
H22   H     H_    0.019774 0.215687 0.324753 0.190052
H23   H     H_    0.973533 0.311894 0.383482 0.137353
C57   C     C_3   0.948276 0.136462 0.352643 -0.297835
H24   H     H_    0.961719 0.047154 0.363379 0.263613
H25   H     H_    0.916204 0.146573 0.414829 0.248414
C58   C     C_3   0.932435 0.154212 0.218007 -0.830338
H26   H     H_    0.918139 0.242593 0.205265 0.282262
H27   H     H_    0.903099 0.090188 0.193968 0.295680
H28   H     H_    0.963746 0.141783 0.153978 0.247268

loop_
_geom_bond_atom_site_label_1
_geom_bond_atom_site_label_2
_geom_bond_distance
_ccdc_geom_bond_type
C10   Cl8   1.768187 S    
C2    C42   1.388386 S    
C19   C23   1.409398 A    
C52   H12   1.110567 S    
C49   H7    1.109323 S    
O3    C2    1.263097 A    
C48   H3    1.108319 S    
C52   H14   1.109330 S    
O13   C47   1.420308 S    
C11   C17   1.405512 A    
C32   C38   1.418859 A    
C7    N1    1.364725 A    
C21   C25   1.421186 A    
O1    C1    1.263093 A    
C51   H10   1.108325 S    
C19   C21   1.416240 A    
C49   H6    1.110231 S    
C22   C26   1.421209 A    
C32   C36   1.410638 A    
C58   H27   1.110426 S    
C47   H2    1.113576 S    
C41   C43   1.178171 T    
C55   H19   1.110881 S    
C42   C44   1.178171 T    
N3    C45   1.192811 T    
C7    C23   1.401493 A    
C28   Cl12  1.770750 S    
O7    Zn1   1.985022 S    
O16   C56   1.413576 S    
C5    C21   1.411377 A    
C20   C24   1.409409 A    
N4    C46   1.192790 T    
C5    O9    1.347217 S    
C28   C37   1.418836 A    
C10   C18   1.399988 A    
Zn1   N4    1.961630 S    
C56   H22   1.113948 S    
C33   C35   1.409099 A    
C34   C36   1.409106 A    
C9    Cl7   1.768150 S    
C50   H9    1.113588 S    
O3    Zn1   1.949562 S    
O6    C4    1.277927 A    
C31   C37   1.418845 A    
C5    N1    1.365941 A    
C12   C18   1.405393 A    
C43   C44   1.367622 S    
C6    N2    1.365914 A    
C13   Cl3   1.772622 S    
C27   Cl11  1.770730 S    
O2    C2    1.263193 A    
C40   O16   1.381991 S    
C48   H4    1.107514 S    
O5    C3    1.273122 A    
C31   C34   1.414976 A    
C9    C13   1.396194 A    
C26   Cl10  1.770156 S    
C11   C15   1.400974 A    
C12   C16   1.400975 A    
C49   H5    1.110564 S    
C54   H18   1.111727 S    
O8    Zn2   1.985022 S    
C58   H28   1.111112 S    
C47   H1    1.107295 S    
C31   C35   1.410657 A    
N1    C17   1.431804 S    
C33   C39   1.411392 A    
Zn2   N3    1.961631 S    
C53   C54   1.527351 S    
C34   C40   1.411415 A    
C13   C29   1.416404 A    
C54   C55   1.526286 S    
C37   O13   1.394986 S    
C25   C40   1.405304 A    
C26   C39   1.405283 A    
C27   C38   1.418822 A    
O15   C53   1.413578 S    
O5    Zn1   1.985047 S    
C6    O10   1.347216 S    
C51   H11   1.107509 S    
C56   H23   1.115487 S    
C50   C51   1.533592 S    
C20   C35   1.400707 A    
C4    C30   1.468180 S    
C32   C33   1.414953 A    
C10   C14   1.396197 A    
C8    N2    1.364700 A    
C3    C29   1.467971 S    
O1    Zn1   1.949545 S    
C54   H17   1.109968 S    
C48   C49   1.525545 S    
C16   Cl2   1.769058 S    
C53   H16   1.115483 S    
C15   Cl1   1.769018 S    
O6    Zn2   1.985047 S    
C8    O12   1.349290 S    
C16   C30   1.411175 A    
C14   C30   1.416495 A    
C12   Cl6   1.766907 S    
O4    C1    1.263196 A    
C11   Cl5   1.766872 S    
C57   H25   1.111728 S    
C52   H13   1.110233 S    
C57   H24   1.109968 S    
C1    C41   1.388385 S    
C20   C22   1.416295 A    
C58   H26   1.110880 S    
C38   O14   1.394979 S    
C47   C48   1.533601 S    
C55   H20   1.110423 S    
C53   H15   1.113947 S    
C56   C57   1.527349 S    
C51   C52   1.525565 S    
O4    Zn2   1.949563 S    
O2    Zn2   1.949544 S    
O7    C4    1.273191 A    
N2    C18   1.431767 S    
C57   C58   1.526291 S    
C9    C17   1.400033 A    
O8    C3    1.277870 A    
C25   Cl9   1.770152 S    
C45   C46   1.498526 S    
C24   C28   1.415780 A    
C8    C24   1.401483 A    
O14   C50   1.420324 S    
C23   C27   1.415765 A    
C15   C29   1.411015 A    
C39   O15   1.381998 S    
C19   C36   1.400698 A    
C50   H8    1.107282 S    
C14   Cl4   1.772686 S    
C6    C22   1.411389 A    
C55   H21   1.111110 S    
C7    O11   1.349285 S    
