data_mof_unit_65157.cif
_audit_creation_date              2012-12-10T16:52:42-0500
_audit_creation_method            fapswitch 2.2
_symmetry_space_group_name_H-M    P1
_symmetry_Int_Tables_number       1
_space_group_crystal_system       triclinic
_cell_length_a                    26.261594
_cell_length_b                    26.251016
_cell_length_c                    22.264509
_cell_angle_alpha                 90.001731
_cell_angle_beta                  53.894743
_cell_angle_gamma                 90.002819
_cell_volume                      12401.0136218

loop_
_atom_site_label
_atom_site_type_symbol
_atom_type_description
_atom_site_fract_x
_atom_site_fract_y
_atom_site_fract_z
_atom_type_partial_charge
C1    C     C_R   0.650299 0.250009 0.699482 0.822218
C2    C     C_1   0.889509 0.750032 0.221025 -0.119975
C3    C     C_2   0.248266 0.943897 0.499407 -0.297156
C4    C     C_3   0.499986 0.796750 0.975229 -0.163701
C5    C     C_3   0.499550 0.203548 0.975225 -0.163631
C6    C     C_3   0.001332 0.297085 0.975232 -0.163477
C7    C     C_3   0.999463 0.703572 0.975225 -0.163638
C8    C     C_R   0.538161 0.310062 0.496069 0.053873
C9    C     C_R   0.506412 0.336359 0.564087 -0.100332
C10   C     C_R   0.484726 0.385990 0.569558 -0.136153
C11   C     C_R   0.494727 0.409796 0.507283 -0.103688
C12   C     C_R   0.526533 0.384045 0.439366 -0.129413
C13   C     C_1   0.389426 0.750026 0.221024 -0.121588
C14   C     C_R   0.548347 0.334427 0.433601 -0.137951
C15   C     C_R   0.492383 0.751865 0.587749 0.052365
C16   C     C_R   0.475921 0.704897 0.625179 -0.102504
C17   C     C_R   0.420844 0.700467 0.697544 -0.133631
C18   C     C_R   0.381961 0.742811 0.733158 -0.104628
C19   C     C_R   0.398132 0.789701 0.696522 -0.131026
C20   C     C_R   0.453180 0.794332 0.624182 -0.130559
C21   C     C_R   0.038183 0.810062 0.496025 0.053840
C22   C     C_R   0.006449 0.836387 0.564020 -0.100349
C23   C     C_R   0.984785 0.886021 0.569449 -0.136158
C24   C     C_1   0.389509 0.250032 0.221025 -0.119976
C25   C     C_R   0.994794 0.909802 0.507156 -0.103693
C26   C     C_R   0.026584 0.884023 0.439261 -0.129421
C27   C     C_R   0.048377 0.834402 0.433538 -0.137943
C28   C     C_R   0.992385 0.251826 0.587743 0.052408
C29   C     C_R   0.975944 0.204840 0.625122 -0.102480
C30   C     C_R   0.920868 0.200375 0.697480 -0.133661
C31   C     C_R   0.881965 0.242702 0.733138 -0.104638
C32   C     C_R   0.898116 0.289611 0.696551 -0.131001
C33   C     C_R   0.953163 0.294277 0.624218 -0.130568
C34   C     C_1   0.610488 0.750053 0.778973 -0.136324
C35   C     C_1   0.610600 0.250020 0.778973 -0.139499
C36   C     C_1   0.110488 0.250054 0.778972 -0.136324
C37   C     C_1   0.110600 0.750019 0.778973 -0.139498
C38   C     C_3   0.022705 0.283037 0.024807 -0.157943
C39   C     C_3   0.021412 0.715514 0.024813 -0.161490
C40   C     C_3   0.521743 0.784038 0.024805 -0.158003
C41   C     C_R   0.650274 0.750009 0.699483 0.822681
C42   C     C_3   0.521477 0.215577 0.024813 -0.161497
C43   C     C_3   0.963373 0.250053 0.072985 0.194891
C44   C     C_3   0.963605 0.750057 0.072986 0.194836
C45   C     C_3   0.463373 0.750054 0.072985 0.194911
C46   C     C_3   0.463605 0.250056 0.072986 0.194836
C47   C     C_3   0.558784 0.737361 0.975283 -0.162347
C48   C     C_3   0.559209 0.262072 0.975292 -0.165713
C49   C     C_3   0.058400 0.236027 0.975282 -0.162530
C50   C     C_3   0.059231 0.761984 0.975292 -0.165702
C51   C     C_3   0.536379 0.750073 0.927007 0.195065
C52   C     C_R   0.150299 0.750009 0.699482 0.822222
C53   C     C_3   0.536628 0.250042 0.927008 0.195796
C54   C     C_3   0.036379 0.250074 0.927007 0.195102
C55   C     C_3   0.036628 0.750042 0.927008 0.195795
C56   C     C_3   0.998419 0.203042 0.024756 -0.154753
C57   C     C_3   0.000772 0.796527 0.024770 -0.156771
C58   C     C_3   0.499765 0.703376 0.024759 -0.154890
C59   C     C_3   0.500685 0.296551 0.024770 -0.156745
C60   C     C_3   0.478008 0.716088 0.975182 -0.155527
C61   C     C_3   0.478757 0.284521 0.975182 -0.154060
C62   C     C_3   0.977046 0.217089 0.975180 -0.155595
C63   C     C_R   0.150274 0.250009 0.699483 0.822680
C64   C     C_3   0.978823 0.784585 0.975181 -0.154061
C65   C     C_1   0.922807 0.250038 0.154177 -0.072608
C66   C     C_1   0.922967 0.750051 0.154178 -0.071499
C67   C     C_1   0.422807 0.750039 0.154177 -0.072603
C68   C     C_1   0.422967 0.250050 0.154178 -0.071500
C69   C     C_R   0.849731 0.250014 0.300518 0.812170
C70   C     C_R   0.849743 0.749995 0.300519 0.815233
C71   C     C_R   0.349731 0.750014 0.300518 0.812170
C72   C     C_R   0.349743 0.249995 0.300519 0.815223
C73   C     C_1   0.577017 0.750071 0.845818 -0.079783
C74   C     C_3   0.941347 0.264100 0.024712 -0.161041
C75   C     C_1   0.577210 0.250030 0.845819 -0.081595
C76   C     C_1   0.077016 0.250072 0.845818 -0.079784
C77   C     C_1   0.077209 0.750030 0.845819 -0.081593
C78   C     C_2   0.492395 0.220369 0.458841 -0.247077
C79   C     C_2   0.493103 0.778686 0.457438 -0.244000
C80   C     C_2   0.992385 0.720355 0.458861 -0.247079
C81   C     C_2   0.993090 0.278701 0.457460 -0.244007
C82   C     C_2   0.439402 0.245893 0.507961 -0.360015
C83   C     C_2   0.446408 0.744650 0.493945 -0.366685
C84   C     C_2   0.939401 0.745894 0.507963 -0.360018
C85   C     C_3   0.941007 0.738115 0.024698 -0.154703
C86   C     C_2   0.946409 0.244651 0.493941 -0.366679
C87   C     C_2   0.543967 0.217355 0.466887 0.615290
C88   C     C_2   0.550958 0.773197 0.452900 0.618946
C89   C     C_2   0.043955 0.717345 0.466913 0.615287
C90   C     C_2   0.050949 0.273217 0.452917 0.618953
C91   C     C_2   0.561458 0.257145 0.489782 -0.285955
C92   C     C_2   0.551059 0.756908 0.510609 -0.282168
C93   C     C_2   0.061459 0.757142 0.489780 -0.285940
C94   C     C_2   0.051058 0.256905 0.510610 -0.282186
C95   C     C_2   0.738976 0.972046 0.459024 0.584638
C96   C     C_3   0.440963 0.762766 0.024711 -0.160805
C97   C     C_2   0.743442 0.027941 0.455185 0.591140
C98   C     C_2   0.238974 0.472046 0.459026 0.584647
C99   C     C_2   0.243441 0.527941 0.455186 0.591149
C100  C     C_2   0.753259 0.943995 0.497815 -0.553621
C101  C     C_2   0.746895 0.056002 0.503255 -0.551916
C102  C     C_2   0.253259 0.443995 0.497815 -0.553627
C103  C     C_2   0.246895 0.556003 0.503255 -0.551916
C104  C     C_R   0.888999 0.249340 0.499089 0.893069
C105  C     C_R   0.888032 0.749357 0.501022 0.891023
C106  C     C_R   0.388999 0.749339 0.499089 0.893074
C107  C     C_3   0.441029 0.238027 0.024697 -0.154725
C108  C     C_R   0.388033 0.249358 0.501022 0.891016
C109  C     C_R   0.611684 0.250576 0.499181 0.872493
C110  C     C_R   0.610849 0.750552 0.500854 0.872668
C111  C     C_R   0.111685 0.750576 0.499181 0.872525
C112  C     C_R   0.110849 0.250552 0.500854 0.872625
C113  C     C_R   0.749816 0.111347 0.500122 0.940535
C114  C     C_R   0.750155 0.888652 0.499833 0.935475
C115  C     C_R   0.249816 0.611347 0.500122 0.940544
C116  C     C_R   0.250155 0.388651 0.499833 0.935478
C117  C     C_R   0.749919 0.388632 0.499861 0.856313
C118  C     C_1   0.889427 0.250026 0.221024 -0.121586
C119  C     C_R   0.749984 0.611367 0.500240 0.857778
C120  C     C_R   0.249919 0.888632 0.499861 0.856313
C121  C     C_R   0.249984 0.111367 0.500240 0.857770
C122  C     C_2   0.800650 0.528049 0.456812 -0.151734
C123  C     C_2   0.800916 0.471949 0.458366 -0.155393
C124  C     C_2   0.300650 0.028049 0.456812 -0.151739
C125  C     C_2   0.300916 0.971949 0.458366 -0.155401
C126  C     C_2   0.748875 0.556098 0.502941 -0.297969
C127  C     C_2   0.748266 0.443897 0.499407 -0.297158
C128  C     C_2   0.248875 0.056098 0.502940 -0.297970
F1    F     F_    0.573342 0.171467 0.451687 -0.618266
F2    F     F_    0.606080 0.784268 0.386153 -0.628106
F3    F     F_    0.073313 0.671451 0.451748 -0.618278
F4    F     F_    0.106064 0.284320 0.386180 -0.628082
F5    F     F_    0.720975 0.949181 0.419399 -0.576023
F6    F     F_    0.742276 0.050791 0.401113 -0.572899
F7    F     F_    0.220972 0.449181 0.419402 -0.576008
F8    F     F_    0.242274 0.550790 0.401115 -0.572888
H1    H     H_    0.845294 0.546673 0.416367 0.181066
H2    H     H_    0.745850 0.038833 0.548145 0.124327
H3    H     H_    0.269537 0.461168 0.527864 0.124034
H4    H     H_    0.245851 0.538833 0.548145 0.124325
H5    H     H_    0.703861 0.539208 0.545159 0.149931
H6    H     H_    0.701849 0.460781 0.533479 0.150942
H7    H     H_    0.203861 0.039208 0.545159 0.149932
H8    H     H_    0.201849 0.960781 0.533479 0.150941
H9    H     H_    0.892736 0.275633 0.046051 0.137571
H10   H     H_    0.891915 0.728310 0.046027 0.143317
H11   H     H_    0.392036 0.773202 0.046049 0.137730
H12   H     H_    0.846521 0.453329 0.423509 0.181003
H13   H     H_    0.391956 0.228149 0.046027 0.143296
H14   H     H_    0.500594 0.835115 0.953844 0.137332
H15   H     H_    0.499602 0.165333 0.953840 0.137806
H16   H     H_    0.003044 0.335725 0.953851 0.137389
H17   H     H_    0.999442 0.665377 0.953840 0.137807
H18   H     H_    0.460554 0.688172 0.953757 0.140057
H19   H     H_    0.461720 0.312851 0.953759 0.141155
H20   H     H_    0.958802 0.189995 0.953752 0.139994
H21   H     H_    0.961838 0.812966 0.953758 0.141156
H22   H     H_    0.996707 0.164401 0.046134 0.142913
H23   H     H_    0.345294 0.046673 0.416367 0.181066
H24   H     H_    0.000793 0.834722 0.046156 0.141088
H25   H     H_    0.499158 0.665010 0.046140 0.142710
H26   H     H_    0.500633 0.334766 0.046156 0.141110
H27   H     H_    0.607711 0.726924 0.953946 0.138862
H28   H     H_    0.608286 0.271946 0.953953 0.134378
H29   H     H_    0.107011 0.224493 0.953944 0.138812
H30   H     H_    0.108327 0.771787 0.953953 0.134375
H31   H     H_    0.040952 0.310135 0.046228 0.141999
H32   H     H_    0.038397 0.687133 0.046236 0.139524
H33   H     H_    0.539200 0.811958 0.046223 0.141911
H34   H     H_    0.346521 0.953329 0.423508 0.180999
H35   H     H_    0.538516 0.187248 0.046235 0.139524
H36   H     H_    0.497067 0.198953 0.414088 0.202386
H37   H     H_    0.490701 0.809669 0.426854 0.204962
H38   H     H_    0.997052 0.698923 0.414123 0.202390
H39   H     H_    0.990674 0.309696 0.426903 0.204961
H40   H     H_    0.497687 0.318191 0.613017 0.141344
H41   H     H_    0.460019 0.405958 0.622150 0.130336
H42   H     H_    0.477849 0.448198 0.511652 0.126340
H43   H     H_    0.534339 0.402553 0.391144 0.128620
H44   H     H_    0.573123 0.314954 0.380577 0.128013
H45   H     H_    0.432521 0.264047 0.556003 0.165343
H46   H     H_    0.505214 0.671621 0.597980 0.139513
H47   H     H_    0.408224 0.664159 0.725955 0.129598
H48   H     H_    0.339315 0.739291 0.789148 0.124851
H49   H     H_    0.368032 0.822488 0.724208 0.129132
H50   H     H_    0.465292 0.830932 0.596502 0.136508
H51   H     H_    0.997718 0.818239 0.612965 0.141362
H52   H     H_    0.960090 0.906010 0.622024 0.130334
H53   H     H_    0.977933 0.948206 0.511492 0.126338
H54   H     H_    0.034397 0.902512 0.391024 0.128621
H55   H     H_    0.073141 0.814908 0.380531 0.128017
H56   H     H_    0.450655 0.711463 0.519717 0.164492
H57   H     H_    0.005253 0.171576 0.597888 0.139488
H58   H     H_    0.908264 0.164052 0.725854 0.129592
H59   H     H_    0.839320 0.239156 0.789122 0.124853
H60   H     H_    0.868000 0.322385 0.724271 0.129130
H61   H     H_    0.965258 0.330890 0.596575 0.136496
H62   H     H_    0.932527 0.764063 0.555994 0.165349
H63   H     H_    0.950668 0.211454 0.519687 0.164485
H64   H     H_    0.769536 0.961168 0.527864 0.124037
O1    O     O_3   0.750010 0.250010 0.500000 -0.507682
O2    O     O_R   0.613890 0.719960 0.543100 -0.664111
O3    O     O_R   0.113890 0.780040 0.543100 -0.663084
O4    O     O_R   0.113890 0.219960 0.543100 -0.664102
O5    O     O_R   0.697860 0.219970 0.664410 -0.636662
O6    O     O_R   0.697860 0.780030 0.664410 -0.638057
O7    O     O_R   0.197860 0.719970 0.664410 -0.636661
O8    O     O_R   0.197860 0.280030 0.664410 -0.638059
O9    O     O_R   0.802170 0.219970 0.335590 -0.622819
O10   O     O_R   0.802170 0.780030 0.335590 -0.612121
O11   O     O_R   0.302170 0.719970 0.335590 -0.622825
O12   O     O_3   0.750010 0.749990 0.500000 -0.507957
O13   O     O_R   0.302170 0.280030 0.335590 -0.612127
O14   O     O_R   0.637780 0.280050 0.664410 -0.638989
O15   O     O_R   0.637780 0.719950 0.664410 -0.636313
O16   O     O_R   0.137780 0.780050 0.664410 -0.638988
O17   O     O_R   0.137780 0.219950 0.664410 -0.636305
O18   O     O_R   0.862250 0.280060 0.335590 -0.640188
O19   O     O_R   0.862250 0.719940 0.335590 -0.645294
O20   O     O_R   0.362250 0.780060 0.335590 -0.640188
O21   O     O_R   0.362250 0.219940 0.335590 -0.645293
O22   O     O_R   0.843040 0.219980 0.543100 -0.643503
O23   O     O_3   0.250010 0.750010 0.500000 -0.507680
O24   O     O_R   0.843040 0.780020 0.543100 -0.642922
O25   O     O_R   0.343040 0.719980 0.543100 -0.643508
O26   O     O_R   0.343040 0.280020 0.543100 -0.642917
O27   O     O_R   0.656980 0.219970 0.456900 -0.569814
O28   O     O_R   0.656980 0.780030 0.456900 -0.564945
O29   O     O_R   0.156980 0.719970 0.456900 -0.569835
O30   O     O_R   0.156980 0.280030 0.456900 -0.564924
O31   O     O_R   0.758500 0.135440 0.543100 -0.661538
O32   O     O_R   0.758500 0.864560 0.543100 -0.658755
O33   O     O_R   0.258500 0.635440 0.543100 -0.661538
O34   O     O_3   0.250010 0.249990 0.500000 -0.507959
O35   O     O_R   0.258500 0.364560 0.543100 -0.658759
O36   O     O_R   0.698440 0.364590 0.543100 -0.643937
O37   O     O_R   0.698440 0.635410 0.543100 -0.647207
O38   O     O_R   0.198440 0.864590 0.543100 -0.643941
O39   O     O_R   0.198440 0.135410 0.543100 -0.647206
O40   O     O_R   0.741510 0.135430 0.456900 -0.552604
O41   O     O_R   0.741510 0.864570 0.456900 -0.563496
O42   O     O_R   0.241510 0.635430 0.456900 -0.552598
O43   O     O_R   0.241510 0.364570 0.456900 -0.563487
O44   O     O_R   0.801610 0.364600 0.456900 -0.641660
O45   O     O_R   0.886150 0.280070 0.456900 -0.639100
O46   O     O_R   0.801610 0.635400 0.456900 -0.638670
O47   O     O_R   0.301610 0.864600 0.456900 -0.641663
O48   O     O_R   0.301610 0.135400 0.456900 -0.638670
O49   O     O_R   0.886150 0.719930 0.456900 -0.639830
O50   O     O_R   0.386150 0.780070 0.456900 -0.639099
O51   O     O_R   0.386150 0.219930 0.456900 -0.639827
O52   O     O_R   0.613890 0.280040 0.543100 -0.663077
Zn1   Zn    Zn3+2 0.823730 0.292940 0.438410 0.969525
Zn2   Zn    Zn3+2 0.737880 0.792910 0.438410 1.063264
Zn3   Zn    Zn3+2 0.237880 0.707090 0.438410 1.061297
Zn4   Zn    Zn3+2 0.237880 0.292910 0.438410 1.063270
Zn5   Zn    Zn3+2 0.676310 0.292930 0.561590 0.963665
Zn6   Zn    Zn3+2 0.676310 0.707070 0.561590 0.964352
Zn7   Zn    Zn3+2 0.176310 0.792930 0.561590 0.963665
Zn8   Zn    Zn3+2 0.176310 0.207070 0.561590 0.964354
Zn9   Zn    Zn3+2 0.823730 0.707060 0.438410 0.969949
Zn10  Zn    Zn3+2 0.323730 0.792940 0.438410 0.969523
Zn11  Zn    Zn3+2 0.323730 0.207060 0.438410 0.969945
Zn12  Zn    Zn3+2 0.762140 0.207100 0.561590 0.968477
Zn13  Zn    Zn3+2 0.762140 0.792900 0.561590 0.966969
Zn14  Zn    Zn3+2 0.262140 0.707100 0.561590 0.968481
Zn15  Zn    Zn3+2 0.262140 0.292900 0.561590 0.966967
Zn16  Zn    Zn3+2 0.737880 0.207090 0.438410 1.061299

loop_
_geom_bond_atom_site_label_1
_geom_bond_atom_site_label_2
_ccdc_geom_bond_type
C78   C87   S    
O9    Zn16  S    
C31   H59   S    
C5    C42   S    
O6    Zn13  S    
C109  O52   A    
C13   C71   S    
C87   C91   D    
C46   C59   S    
C40   C47   S    
C52   O7    A    
C101  C113  S    
C114  O41   A    
C79   H37   S    
C74   H9    S    
C44   C66   S    
C19   C20   A    
O19   Zn9   S    
O1    Zn12  S    
C52   O16   A    
C32   H60   S    
C86   C104  S    
C109  O27   A    
C38   C49   S    
C7    C85   S    
O34   Zn8   S    
C123  H12   S    
C82   H45   S    
C35   C75   T    
C26   C27   A    
C30   H58   S    
O17   Zn8   S    
C21   C93   S    
C57   C64   S    
C81   H39   S    
O15   Zn6   S    
C5    C53   S    
C28   C29   A    
C119  O46   A    
O30   Zn4   S    
O2    Zn6   S    
C83   C106  S    
C114  O32   A    
C30   C31   A    
C41   O15   A    
C16   H46   S    
O27   Zn16  S    
C70   O10   A    
C28   C33   A    
C42   H35   S    
C58   C60   S    
C49   C54   S    
C124  H23   S    
O28   Zn2   S    
C69   C118  S    
C95   F5    S    
C112  O30   A    
O32   Zn13  S    
C116  O35   A    
C9    H40   S    
C28   C94   S    
C18   C19   A    
C42   C46   S    
C1    C35   S    
O12   Zn6   S    
C80   C89   S    
O40   Zn16  S    
O50   Zn10  S    
O23   Zn14  S    
C56   H22   S    
C36   C76   T    
C15   C92   S    
C4    C96   S    
C53   C61   S    
C25   H53   S    
C121  O48   A    
O10   Zn2   S    
C106  O50   A    
C4    C40   S    
C16   C17   A    
C79   C83   D    
C78   H36   S    
C64   H21   S    
C50   H30   S    
C62   C74   S    
C65   C118  T    
C6    C38   S    
O14   Zn5   S    
C113  O31   A    
C120  O47   A    
C88   F2    S    
C36   C63   S    
C1    O5    A    
C9    C10   A    
C81   C86   D    
C80   C84   D    
O26   Zn15  S    
C124  C128  D    
O48   Zn11  S    
C6    H16   S    
C43   C74   S    
C72   O13   A    
C21   C27   A    
C116  O43   A    
C21   C22   A    
C46   C107  S    
O12   Zn2   S    
O42   Zn3   S    
C10   H41   S    
C53   C75   S    
C34   C41   S    
C27   H55   S    
C97   F6    S    
C6    C54   S    
C61   H19   S    
C104  O22   A    
C40   H33   S    
O29   Zn3   S    
O3    Zn7   S    
O52   Zn5   S    
C90   C94   D    
O1    Zn5   S    
C113  O40   A    
O35   Zn15  S    
C38   H31   S    
C45   C58   S    
O12   Zn9   S    
C59   C61   S    
C58   H25   S    
C4    C51   S    
C69   O18   A    
C88   C92   D    
C83   H56   S    
C100  C114  S    
C85   H10   S    
C121  C128  S    
C13   C67   T    
C99   C103  D    
C10   C11   A    
C111  O3    A    
O24   Zn13  S    
C8    C91   S    
C37   C52   S    
C87   F1    S    
C95   C100  D    
C8    C9    A    
C47   C51   S    
C54   C62   S    
C117  O36   A    
C84   H62   S    
C25   C26   A    
C121  O39   A    
C6    C74   S    
O45   Zn1   S    
C98   F7    S    
C29   H57   S    
C71   O20   A    
C39   H32   S    
C15   C20   A    
C127  H6    S    
C122  C126  D    
C103  C115  S    
C117  O44   A    
C46   C68   S    
C29   C30   A    
C115  O42   A    
O39   Zn8   S    
C123  C127  D    
C31   C32   A    
C7    H17   S    
C33   H61   S    
C44   C57   S    
C43   C65   S    
C55   C64   S    
C12   H43   S    
C95   C97   S    
C17   C18   A    
O36   Zn5   S    
C106  O25   A    
O38   Zn7   S    
C11   H42   S    
C42   C48   S    
O33   Zn14  S    
C125  H34   S    
C117  C127  S    
C14   H44   S    
C22   H51   S    
O46   Zn9   S    
C79   C88   S    
C93   C111  S    
C54   C76   S    
C81   C90   S    
C60   C96   S    
C119  O37   A    
O34   Zn11  S    
O1    Zn16  S    
C57   H24   S    
C12   C14   A    
C49   H29   S    
C104  O45   A    
C82   C108  S    
O44   Zn1   S    
C111  O29   A    
C56   C62   S    
O37   Zn6   S    
C84   C105  S    
C112  O4    A    
C39   C44   S    
C44   C85   S    
C49   C56   S    
C100  H64   S    
C64   C85   S    
C115  O33   A    
C24   C72   S    
C48   C59   S    
C63   O17   A    
C5    C107  S    
O43   Zn4   S    
C96   H11   S    
C37   C77   T    
C8    C14   A    
C78   C82   D    
C50   C57   S    
C26   H54   S    
C105  O24   A    
O20   Zn10  S    
C3    H8    S    
C51   C73   S    
C122  H1    S    
O11   Zn3   S    
O21   Zn11  S    
C5    H15   S    
O7    Zn14  S    
O12   Zn13  S    
O22   Zn12  S    
C101  H2    S    
C3    C125  D    
C2    C66   T    
C45   C67   S    
C48   H28   S    
O5    Zn12  S    
C48   C53   S    
O8    Zn15  S    
C4    H14   S    
C86   H63   S    
C126  H5    S    
C71   O11   A    
C50   C55   S    
C89   F3    S    
C17   H47   S    
C110  O2    A    
C63   O8    A    
C32   C33   A    
C91   C109  S    
C51   C60   S    
C99   F8    S    
C105  O49   A    
C38   C43   S    
C59   H26   S    
C98   C102  D    
C103  H4    S    
C19   H49   S    
C47   C58   S    
O23   Zn7   S    
O4    Zn8   S    
C92   C110  S    
O34   Zn15  S    
C23   H52   S    
C108  O26   A    
C47   H27   S    
C55   C77   S    
C72   O21   A    
C7    C55   S    
C70   O19   A    
C94   C112  S    
O18   Zn1   S    
C62   H20   S    
C18   H48   S    
C41   O6    A    
O34   Zn4   S    
C102  H3    S    
C23   C25   A    
C102  C116  S    
C89   C93   D    
C61   C107  S    
C128  H7    S    
C60   H18   S    
O25   Zn14  S    
O47   Zn10  S    
C90   F4    S    
C3    C120  S    
C24   C68   T    
C34   C73   T    
C20   H50   S    
O31   Zn12  S    
C107  H13   S    
C119  C126  S    
O23   Zn3   S    
C43   C56   S    
C39   C50   S    
C69   O9    A    
C40   C45   S    
C98   C99   S    
O51   Zn11  S    
C1    O14   A    
O1    Zn1   S    
C7    C39   S    
C22   C23   A    
C80   H38   S    
O13   Zn4   S    
C110  O28   A    
O41   Zn2   S    
O16   Zn7   S    
O49   Zn9   S    
C122  C123  S    
C2    C70   S    
C45   C96   S    
O23   Zn10  S    
C97   C101  D    
C15   C16   A    
C11   C12   A    
C120  O38   A    
C124  C125  S    
C108  O51   A    
