data_mof_unit_34775.cif
_audit_creation_date              2012-12-10T20:31:58-0500
_audit_creation_method            fapswitch 2.2
_symmetry_space_group_name_H-M    P1
_symmetry_Int_Tables_number       1
_space_group_crystal_system       triclinic
_cell_length_a                    9.931598
_cell_length_b                    10.705605
_cell_length_c                    15.554483
_cell_angle_alpha                 90.797925
_cell_angle_beta                  68.153981
_cell_angle_gamma                 90.765066
_cell_volume                      1534.83813567

loop_
_atom_site_label
_atom_site_type_symbol
_atom_type_description
_atom_site_fract_x
_atom_site_fract_y
_atom_site_fract_z
_atom_type_partial_charge
C1    C     C_R   0.502745 0.739702 0.496413 0.857941
C2    C     C_R   0.733415 0.549363 0.034532 0.156698
C3    C     C_R   0.603455 0.482711 0.082048 0.070909
C4    C     C_R   0.408671 0.499529 0.675946 0.879804
C5    C     C_R   0.825415 0.585885 0.080549 -0.154699
C6    C     C_R   0.784401 0.563441 0.174988 -0.124841
C7    C     C_R   0.559838 0.470532 0.177593 -0.184598
C8    C     C_R   0.391623 0.932847 0.477815 0.043816
C9    C     C_R   0.512201 0.870639 0.480322 -0.153128
C10   C     C_R   0.641835 0.936434 0.464883 -0.208278
C11   C     C_R   0.640524 0.065776 0.465062 -0.208911
C12   C     C_R   0.426998 0.474615 0.908565 0.088039
C13   C     C_R   0.509377 0.127996 0.481277 -0.084771
C14   C     C_R   0.389341 0.060983 0.478970 0.075230
C15   C     C_3   0.233351 0.065827 0.543253 -0.574408
C16   C     C_R   0.501185 0.259908 0.496852 0.893819
C17   C     C_3   0.236346 0.923923 0.542806 0.405008
C18   C     C_R   0.903804 0.590725 0.546320 0.236276
C19   C     C_R   0.953925 0.416937 0.448588 -0.170833
C20   C     C_R   0.097008 0.413642 0.448399 -0.058115
C21   C     C_R   0.045875 0.590815 0.546335 0.304578
C22   C     C_3   0.992818 0.616277 0.647824 -0.487246
C23   C     C_R   0.300841 0.401766 0.956036 -0.069423
C24   C     C_3   0.840263 0.614967 0.647790 -0.547994
C25   C     C_R   0.590992 0.502110 0.324586 0.899274
C26   C     C_R   0.352234 0.485155 0.777138 -0.186790
C27   C     C_R   0.648690 0.509337 0.224019 -0.098883
C28   C     C_R   0.188858 0.388658 0.919891 -0.139620
C29   C     C_R   0.220591 0.422886 0.826752 0.450013
C30   C     C_R   0.444015 0.521580 0.821854 -0.312290
C31   C     C_3   0.139465 0.901824 0.423037 -0.268526
C32   C     C_2   0.185753 0.308767 0.391590 0.935958
C33   C     C_2   0.039290 0.343454 0.978612 0.912554
C34   C     C_R   0.534361 0.494986 0.947808 0.039297
C35   C     C_3   0.148401 0.280542 0.743397 -0.212533
C36   C     C_3   0.487582 0.173543 0.108343 -0.290045
C37   C     C_R   0.512201 0.442826 0.035230 -0.073347
C38   C     C_R   0.400394 0.351909 0.072213 0.477957
C39   C     C_R   0.294813 0.336013 0.034500 -0.226885
C40   C     C_R   0.663938 0.564522 0.902765 -0.187191
C41   C     C_R   0.764947 0.585265 0.943694 -0.171663
H1    H     H_    0.212950 0.265038 0.064738 0.203585
H2    H     H_    0.451161 0.440226 0.218014 0.237967
H3    H     H_    0.027677 0.709626 0.664280 0.217296
H4    H     H_    0.774961 0.533847 0.685303 0.223138
H5    H     H_    0.785976 0.707138 0.664982 0.207715
H6    H     H_    0.854337 0.594914 0.210416 0.154704
H7    H     H_    0.863254 0.637530 0.906360 0.145756
H8    H     H_    0.533673 0.580945 0.783761 0.161368
H9    H     H_    0.691632 0.605665 0.836038 0.144709
H10   H     H_    0.246927 0.933605 0.373676 0.160444
H11   H     H_    0.057632 0.976483 0.436520 0.193469
H12   H     H_    0.926721 0.634571 0.044164 0.130276
H13   H     H_    0.103841 0.823733 0.388664 0.170402
H14   H     H_    0.186495 0.145348 0.324744 0.346706
H15   H     H_    0.845467 0.273973 0.985688 0.330834
H16   H     H_    0.131616 0.205484 0.795174 0.165318
H17   H     H_    0.260338 0.273971 0.690736 0.126626
H18   H     H_    0.071102 0.263837 0.708063 0.185728
H19   H     H_    0.602346 0.205786 0.077958 0.164514
H20   H     H_    0.458239 0.119288 0.056139 0.151065
H21   H     H_    0.477834 0.109662 0.165953 0.196098
H22   H     H_    0.740554 0.889238 0.459447 0.175324
H23   H     H_    0.738902 0.115984 0.459323 0.186445
H24   H     H_    0.220693 0.104657 0.611852 0.142653
H25   H     H_    0.161972 0.108341 0.511766 0.231585
H26   H     H_    0.226860 0.886259 0.611164 0.073617
H27   H     H_    0.917741 0.350747 0.408357 0.207850
H28   H     H_    0.013443 0.537826 0.687112 0.252798
N1    N     N_R   0.856900 0.500860 0.500610 -0.128844
N2    N     N_R   0.142540 0.500820 0.500610 -0.154596
O1    O     O_R   0.385310 0.683210 0.499990 -0.597386
O2    O     O_2   0.317202 0.311426 0.360495 -0.576706
O3    O     O_R   0.115959 0.206789 0.368235 -0.863361
O4    O     O_2   0.996944 0.350486 0.063053 -0.643078
O5    O     O_R   0.943435 0.298799 0.938234 -0.773345
O6    O     O_3   0.121419 0.399934 0.785333 -0.583465
O7    O     O_3   0.392961 0.274572 0.144369 -0.607633
O8    O     O_R   0.614650 0.683240 0.500000 -0.622228
O9    O     O_R   0.319830 0.499970 0.632240 -0.585903
O10   O     O_R   0.549170 0.500000 0.632250 -0.615814
O11   O     O_R   0.385350 0.316760 0.500000 -0.586089
O12   O     O_R   0.614690 0.316790 0.500010 -0.627828
O13   O     O_R   0.450830 0.500000 0.367750 -0.575961
O14   O     O_R   0.680170 0.500030 0.367760 -0.618900
O15   O     O_3   0.141425 0.858003 0.507879 -0.598872
Zn1   Zn    Zn3+2 0.346870 0.499980 0.499990 0.992688
Zn2   Zn    Zn3+2 0.653130 0.500020 0.500010 0.947175

loop_
_geom_bond_atom_site_label_1
_geom_bond_atom_site_label_2
_ccdc_geom_bond_type
C18   N1    A    
H15   O5    S    
C34   C37   A    
C10   H22   S    
O13   Zn1   S    
C31   H11   S    
N1    Zn2   S    
C12   C23   A    
C21   N2    A    
C35   H17   S    
C34   C40   A    
C24   H4    S    
C5    H12   S    
C28   C29   A    
C4    O9    A    
O9    Zn1   S    
C3    C7    A    
C32   O3    S    
C5    C6    A    
C23   C39   A    
C2    C41   A    
O11   Zn1   S    
C18   C21   A    
C7    C27   A    
C35   H18   S    
H14   O3    S    
C33   O4    D    
C22   H3    S    
C4    O10   A    
C19   C20   A    
C8    C9    A    
C25   O13   A    
C20   N2    A    
C18   C24   S    
C7    H2    S    
C9    C10   A    
C22   H28   S    
O12   Zn2   S    
C31   O15   S    
C13   C14   A    
C36   H21   S    
C16   O11   A    
O8    Zn2   S    
C39   H1    S    
C17   H26   S    
C1    O1    A    
C6    H6    S    
C17   O15   S    
C1    C9    S    
C11   H23   S    
C32   O2    D    
C38   O7    S    
C15   H25   S    
C35   O6    S    
C16   O12   A    
C37   C38   A    
C33   O5    S    
C6    C27   A    
C25   O14   A    
C19   H27   S    
C23   C28   A    
N2    Zn1   S    
C40   C41   A    
C30   H8    S    
C28   C33   S    
C26   C30   A    
C1    O8    A    
C22   C24   S    
C2    C5    A    
C12   C34   A    
C36   H20   S    
O1    Zn1   S    
C20   C32   S    
O14   Zn2   S    
C15   C17   S    
C8    C14   A    
C12   C30   A    
C31   H10   S    
C36   H19   S    
C4    C26   S    
C25   C27   S    
C8    C17   S    
C35   H16   S    
C24   H5    S    
C2    C3    A    
C36   O7    S    
C11   C13   A    
C38   C39   A    
C40   H9    S    
C41   H7    S    
C31   H13   S    
O10   Zn2   S    
C10   C11   A    
C29   O6    S    
C3    C37   A    
C26   C29   A    
C13   C16   S    
C14   C15   S    
C19   N1    A    
C21   C22   S    
C15   H24   S    
