data_mof_unit_51200.cif
_audit_creation_date              2012-12-10T18:28:09-0500
_audit_creation_method            fapswitch 2.2
_symmetry_space_group_name_H-M    P1
_symmetry_Int_Tables_number       1
_space_group_crystal_system       triclinic
_cell_length_a                    23.132428
_cell_length_b                    20.346351
_cell_length_c                    15.07717
_cell_angle_alpha                 89.237107
_cell_angle_beta                  99.407415
_cell_angle_gamma                 89.892892
_cell_volume                      7000.11186035

loop_
_atom_site_label
_atom_site_type_symbol
_atom_type_description
_atom_site_fract_x
_atom_site_fract_y
_atom_site_fract_z
_atom_type_partial_charge
C1    C     C_R   0.576476 0.085989 0.554006 0.864463
C2    C     C_R   0.423589 0.913977 0.446007 0.862725
C3    C     C_R   0.423726 0.086412 0.445555 0.864732
C4    C     C_R   0.574543 0.911447 0.553078 0.867332
C5    C     C_R   0.074283 0.588596 0.552207 0.865909
C6    C     C_R   0.925727 0.411415 0.447801 0.864864
C7    C     C_R   0.923784 0.586529 0.445633 0.866289
C8    C     C_R   0.074508 0.411410 0.553075 0.867973
C9    C     C_R   0.194752 0.168502 0.615294 0.188822
C10   C     C_R   0.729859 0.751340 0.312528 0.194572
C11   C     C_R   0.804902 0.170774 0.380300 0.200466
C12   C     C_R   0.192858 0.831026 0.615531 0.199952
C13   C     C_R   0.700360 0.672013 0.625497 0.199486
C14   C     C_R   0.235488 0.259160 0.314433 0.192917
C15   C     C_R   0.231334 0.751456 0.311276 0.191923
C16   C     C_R   0.771554 0.244711 0.690258 0.192447
C17   C     C_R   0.628390 0.004583 0.203116 -0.340805
C18   C     C_R   0.371567 0.994464 0.796876 -0.333174
C19   C     C_R   0.126877 0.521238 0.203392 -0.332315
C20   C     C_R   0.873184 0.478665 0.796761 -0.338278
C21   C     C_R   0.607633 0.999725 0.283811 -0.016956
C22   C     C_R   0.392346 0.000425 0.716247 -0.007549
C23   C     C_R   0.107058 0.509456 0.283826 -0.022754
C24   C     C_R   0.892862 0.491193 0.716357 -0.017036
C25   C     C_R   0.508737 0.999186 0.208402 0.050085
C26   C     C_R   0.491255 0.999339 0.791636 0.049158
C27   C     C_R   0.009032 0.496668 0.208290 0.046776
C28   C     C_R   0.991172 0.501932 0.791607 0.044930
C29   C     C_R   0.527669 0.997490 0.123878 -0.042398
C30   C     C_R   0.472336 0.000523 0.876134 -0.042238
C31   C     C_R   0.028000 0.499558 0.123819 -0.042606
C32   C     C_R   0.972382 0.498577 0.876127 -0.040621
C33   C     C_R   0.588349 0.007408 0.123316 0.180093
C34   C     C_R   0.411643 0.990795 0.876645 0.179812
C35   C     C_R   0.086948 0.518830 0.123336 0.178394
C36   C     C_R   0.913358 0.479756 0.876661 0.180946
C37   C     C_R   0.489521 0.990688 0.040442 0.076060
C38   C     C_R   0.510553 0.006904 0.959530 0.076604
C39   C     C_R   0.990777 0.488768 0.040464 0.077006
C40   C     C_R   0.009791 0.508837 0.959410 0.076683
C41   C     C_R   0.568221 0.030927 0.965158 -0.228182
C42   C     C_R   0.431872 0.966556 0.034686 -0.228874
C43   C     C_R   0.064427 0.540620 0.964656 -0.228079
C44   C     C_R   0.936191 0.456828 0.035079 -0.227222
C45   C     C_R   0.607813 0.025361 0.044134 -0.202038
C46   C     C_R   0.392238 0.972341 0.955710 -0.201673
C47   C     C_R   0.104112 0.540599 0.043942 -0.204628
C48   C     C_R   0.896358 0.457307 0.955874 -0.206743
C49   C     C_R   0.610527 0.853010 0.579089 -0.057268
C50   C     C_R   0.375070 0.129859 0.408705 -0.057235
C51   C     C_R   0.374359 0.872144 0.409362 -0.048072
C52   C     C_R   0.626041 0.127462 0.590642 -0.055089
C53   C     C_R   0.110131 0.352642 0.578681 -0.054171
C54   C     C_R   0.874773 0.629618 0.409036 -0.058763
C55   C     C_R   0.891083 0.352427 0.424044 -0.053016
C56   C     C_R   0.108874 0.647692 0.575785 -0.057308
C57   C     C_R   0.637037 0.757159 0.673731 -0.199365
C58   C     C_R   0.324464 0.200737 0.291015 -0.198052
C59   C     C_R   0.322028 0.806520 0.289835 -0.196974
C60   C     C_R   0.681073 0.188993 0.712280 -0.200073
C61   C     C_R   0.131142 0.252102 0.665751 -0.191058
C62   C     C_R   0.819291 0.693927 0.288101 -0.199045
C63   C     C_R   0.866930 0.257136 0.331467 -0.199530
C64   C     C_R   0.131189 0.744727 0.665647 -0.198776
C65   C     C_R   0.607190 0.816901 0.657722 -0.178149
C66   C     C_R   0.371584 0.159766 0.323881 -0.172723
C67   C     C_R   0.369996 0.845131 0.323560 -0.197995
C68   C     C_R   0.632394 0.151493 0.678304 -0.184513
C69   C     C_R   0.102776 0.312948 0.652609 -0.199259
C70   C     C_R   0.867799 0.654904 0.321147 -0.173331
C71   C     C_R   0.895123 0.317379 0.346058 -0.186773
C72   C     C_R   0.103559 0.684032 0.652226 -0.189214
C73   C     C_R   0.643822 0.829234 0.517644 -0.241205
C74   C     C_R   0.330019 0.138728 0.458276 -0.245152
C75   C     C_R   0.329452 0.862549 0.459322 -0.249927
C76   C     C_R   0.669737 0.138918 0.538941 -0.248455
C77   C     C_R   0.146197 0.331527 0.519491 -0.241627
C78   C     C_R   0.832170 0.641738 0.462050 -0.248372
C79   C     C_R   0.858822 0.326986 0.486600 -0.241230
C80   C     C_R   0.142135 0.672110 0.513936 -0.237512
C81   C     C_R   0.669822 0.767193 0.528207 0.077464
C82   C     C_R   0.281856 0.178860 0.426411 0.078936
C83   C     C_R   0.280129 0.825285 0.426101 0.065671
C84   C     C_R   0.719955 0.174621 0.572536 0.077478
C85   C     C_R   0.170360 0.268523 0.526266 0.063939
C86   C     C_R   0.782011 0.678410 0.429408 0.078571
C87   C     C_R   0.833395 0.264876 0.476433 0.076855
C88   C     C_R   0.166943 0.734578 0.522717 0.076968
C89   C     C_R   0.668734 0.731452 0.609483 0.087988
C90   C     C_R   0.280317 0.212961 0.343048 0.093079
C91   C     C_R   0.277373 0.794871 0.341174 0.135950
C92   C     C_R   0.724422 0.202834 0.659160 0.100930
C93   C     C_R   0.165466 0.229353 0.603228 0.131821
C94   C     C_R   0.776813 0.708026 0.342504 0.094867
C95   C     C_R   0.835495 0.230272 0.395900 0.090313
C96   C     C_R   0.163291 0.770736 0.601489 0.087344
C97   C     C_R   0.700203 0.742545 0.461747 0.016937
C98   C     C_R   0.238353 0.190398 0.480155 0.038300
C99   C     C_R   0.236470 0.812635 0.479634 0.017113
C100  C     C_R   0.763150 0.187375 0.518317 0.017517
C101  C     C_R   0.201703 0.245418 0.459918 0.015480
C102  C     C_R   0.739715 0.690558 0.485019 0.018274
C103  C     C_R   0.802479 0.238979 0.542216 0.017641
C104  C     C_R   0.198469 0.759527 0.457161 0.035468
C105  C     C_R   0.231400 0.149972 0.554760 -0.288417
C106  C     C_R   0.692695 0.768911 0.373268 -0.260747
C107  C     C_R   0.767659 0.150912 0.440507 -0.250829
C108  C     C_R   0.230370 0.850495 0.555544 -0.252552
C109  C     C_R   0.736385 0.652976 0.563658 -0.251161
C110  C     C_R   0.197486 0.275847 0.374211 -0.260921
C111  C     C_R   0.193602 0.732594 0.370295 -0.298915
C112  C     C_R   0.809104 0.263756 0.630466 -0.263512
H1    H     H_    0.583636 0.055440 0.909791 0.152065
H2    H     H_    0.416499 0.941836 0.089919 0.152133
H3    H     H_    0.077234 0.566926 0.908525 0.151005
H4    H     H_    0.923488 0.430255 0.091070 0.150789
H5    H     H_    0.334586 0.116400 0.524305 0.157703
H6    H     H_    0.650034 0.860615 0.461767 0.155850
H7    H     H_    0.662890 0.121774 0.470633 0.158684
H8    H     H_    0.334880 0.882084 0.526320 0.158388
H9    H     H_    0.839851 0.624299 0.530827 0.160948
H10   H     H_    0.155240 0.365370 0.467803 0.155771
H11   H     H_    0.149216 0.640966 0.459317 0.155154
H12   H     H_    0.852722 0.357206 0.542618 0.154880
H13   H     H_    0.405682 0.152450 0.283559 0.165129
H14   H     H_    0.581364 0.834479 0.706393 0.165663
H15   H     H_    0.599575 0.141838 0.720432 0.159131
H16   H     H_    0.404033 0.852932 0.283050 0.160410
H17   H     H_    0.899994 0.645136 0.278257 0.165743
H18   H     H_    0.074424 0.328251 0.699067 0.165124
H19   H     H_    0.077591 0.666045 0.700984 0.159447
H20   H     H_    0.920330 0.336150 0.296760 0.158877
H21   H     H_    0.634991 0.731538 0.736478 0.150151
H22   H     H_    0.323810 0.223843 0.225808 0.149558
H23   H     H_    0.321008 0.784432 0.224666 0.170850
H24   H     H_    0.683921 0.207795 0.779664 0.150594
H25   H     H_    0.125244 0.222662 0.723921 0.172197
H26   H     H_    0.815857 0.713375 0.220302 0.149674
H27   H     H_    0.869678 0.232191 0.269330 0.151002
H28   H     H_    0.127285 0.770842 0.726475 0.151292
H29   H     H_    0.253244 0.102924 0.566570 0.141451
H30   H     H_    0.657335 0.802720 0.350536 0.163360
H31   H     H_    0.744290 0.105267 0.428578 0.156845
H32   H     H_    0.252690 0.896873 0.566085 0.155825
H33   H     H_    0.759796 0.607022 0.575079 0.156576
H34   H     H_    0.164122 0.312290 0.352775 0.164870
H35   H     H_    0.159329 0.698239 0.345655 0.151944
H36   H     H_    0.844016 0.297383 0.653971 0.163650
H37   H     H_    0.653012 0.039544 0.044450 0.148093
H38   H     H_    0.347029 0.958176 0.955323 0.146896
H39   H     H_    0.147268 0.561355 0.044090 0.146149
H40   H     H_    0.853165 0.436631 0.955643 0.146591
H41   H     H_    0.362089 0.002009 0.653405 0.129142
H42   H     H_    0.637867 0.998848 0.346676 0.135763
H43   H     H_    0.862741 0.489088 0.653512 0.136553
H44   H     H_    0.136976 0.512508 0.346758 0.139020
H45   H     H_    0.674976 0.007555 0.202790 0.155941
H46   H     H_    0.324956 0.991337 0.797117 0.153971
H47   H     H_    0.172371 0.534133 0.203894 0.144813
H48   H     H_    0.827608 0.466187 0.796316 0.152060
N1    N     N_R   0.549130 0.000000 0.284090 -0.116024
N2    N     N_R   0.450870 0.000000 0.715910 -0.116086
N3    N     N_R   0.049130 0.500000 0.284090 -0.116972
N4    N     N_R   0.950870 0.500000 0.715910 -0.116737
O1    O     O_R   0.541320 0.066090 0.608930 -0.608869
O2    O     O_R   0.458680 0.933910 0.391070 -0.610481
O3    O     O_R   0.458680 0.066090 0.391070 -0.603818
O4    O     O_R   0.541320 0.933910 0.608930 -0.603138
O5    O     O_R   0.041320 0.566090 0.608930 -0.608089
O6    O     O_R   0.958680 0.433910 0.391070 -0.609219
O7    O     O_R   0.958680 0.566090 0.391070 -0.604678
O8    O     O_R   0.041320 0.433910 0.608930 -0.604060
O9    O     O_R   0.572880 0.066110 0.470280 -0.620476
O10   O     O_R   0.427120 0.933890 0.529720 -0.622762
O11   O     O_R   0.427120 0.066110 0.529720 -0.622564
O12   O     O_R   0.572880 0.933890 0.470280 -0.624779
O13   O     O_R   0.072880 0.566110 0.470280 -0.624360
O14   O     O_R   0.927120 0.433890 0.529720 -0.626588
O15   O     O_R   0.927120 0.566110 0.529720 -0.620988
O16   O     O_R   0.072880 0.433890 0.470280 -0.621525
Zn1   Zn    Zn3+2 0.478910 0.000000 0.592580 0.946629
Zn2   Zn    Zn3+2 0.521090 0.000000 0.407420 0.944736
Zn3   Zn    Zn3+2 0.978910 0.500000 0.592580 0.943972
Zn4   Zn    Zn3+2 0.021090 0.500000 0.407420 0.943868
N5    N     N_2   0.188938 0.126288 0.689314 -0.317246
H49   H     H_    0.185381 0.077370 0.672227 0.226407
C113  C     C_3   0.232916 0.136392 0.767823 -0.804259
H50   H     H_    0.223568 0.104155 0.823732 0.241814
H51   H     H_    0.232380 0.188284 0.789740 0.254441
H52   H     H_    0.277138 0.123935 0.752946 0.243020
N6    N     N_2   0.723629 0.780517 0.224424 -0.309266
H53   H     H_    0.759267 0.807592 0.212439 0.218618
C114  C     C_3   0.667650 0.807791 0.183083 -0.779337
H54   H     H_    0.668076 0.816842 0.110418 0.245484
H55   H     H_    0.659642 0.855437 0.214200 0.236136
H56   H     H_    0.631748 0.772736 0.189516 0.251424
N7    N     N_2   0.811444 0.132818 0.303309 -0.303322
H57   H     H_    0.853900 0.119005 0.299642 0.222422
C115  C     C_3   0.767208 0.085508 0.268835 -0.823317
H58   H     H_    0.774333 0.069665 0.201258 0.241358
H59   H     H_    0.722942 0.108202 0.261956 0.255023
H60   H     H_    0.770197 0.041531 0.313831 0.232645
N8    N     N_2   0.184876 0.870398 0.690576 -0.303214
H61   H     H_    0.142151 0.884313 0.692040 0.222010
C116  C     C_3   0.228625 0.918336 0.724880 -0.827939
H62   H     H_    0.220327 0.935595 0.791224 0.242506
H63   H     H_    0.226365 0.961412 0.678423 0.226253
H64   H     H_    0.272966 0.895646 0.734195 0.255423
N9    N     N_2   0.696311 0.633348 0.704411 -0.303970
H65   H     H_    0.654194 0.621455 0.712735 0.220197
C117  C     C_3   0.739598 0.582926 0.734675 -0.799623
H66   H     H_    0.734331 0.565622 0.803033 0.243166
H67   H     H_    0.784563 0.603005 0.738482 0.256113
H68   H     H_    0.733420 0.540289 0.688879 0.228072
N10   N     N_2   0.232493 0.292204 0.229306 -0.310062
H69   H     H_    0.268847 0.319995 0.222857 0.218984
C118  C     C_3   0.177516 0.320825 0.186045 -0.778131
H70   H     H_    0.180129 0.332055 0.114558 0.244990
H71   H     H_    0.168808 0.367488 0.219057 0.235744
H72   H     H_    0.140974 0.285737 0.187968 0.251077
N11   N     N_2   0.225008 0.722992 0.224415 -0.318366
H73   H     H_    0.208325 0.675915 0.221793 0.225137
C119  C     C_3   0.194753 0.764662 0.153117 -0.799315
H74   H     H_    0.194482 0.740551 0.087409 0.240024
H75   H     H_    0.217192 0.812783 0.151433 0.249564
H76   H     H_    0.148717 0.772867 0.162987 0.245387
N12   N     N_2   0.777428 0.271593 0.778462 -0.311692
H77   H     H_    0.744604 0.304022 0.787345 0.216966
C120  C     C_3   0.835123 0.288980 0.824703 -0.791283
H78   H     H_    0.833494 0.295363 0.897261 0.240933
H79   H     H_    0.849529 0.336091 0.797624 0.234918
H80   H     H_    0.867198 0.249359 0.818044 0.255846
C121  C     C_1   0.551425 0.987775 0.781792 0.208380
N13   N     N_1   0.599877 0.978538 0.774732 -0.216769
C122  C     C_1   0.448381 0.009118 0.218346 0.207622
N14   N     N_1   0.399771 0.016892 0.225595 -0.214713
C123  C     C_1   0.051893 0.495223 0.781640 0.215417
N15   N     N_1   0.100704 0.489676 0.774228 -0.216344
C124  C     C_1   0.948175 0.502029 0.218014 0.210144
N16   N     N_1   0.899251 0.506391 0.225282 -0.216088

loop_
_geom_bond_atom_site_label_1
_geom_bond_atom_site_label_2
_ccdc_geom_bond_type
C50   C74   A    
N8    H61   S    
C88   C96   A    
C16   N12   S    
C15   N11   S    
C7    O7    A    
C33   C45   A    
C5    C56   S    
C19   C23   A    
C124  N16   T    
O2    Zn2   S    
C6    C55   S    
C53   C69   A    
C76   C84   A    
C79   C87   A    
C119  H76   S    
C27   C124  S    
C116  H62   S    
C58   H22   S    
C118  H72   S    
O12   Zn2   S    
C99   C108  A    
N8    C116  S    
C1    O9    A    
C37   C38   A    
C98   C105  A    
C57   C89   A    
C32   C36   A    
C44   H4    S    
C51   C75   A    
C120  H80   S    
C9    N5    S    
N10   C118  S    
C105  H29   S    
C22   N2    A    
C61   C93   A    
N5    C113  S    
O3    Zn2   S    
C10   C94   A    
C9    C105  A    
C64   H28   S    
C63   C95   A    
C37   C42   A    
C62   C70   A    
C42   C46   A    
C12   N8    S    
N1    Zn2   S    
N7    C115  S    
C78   H9    S    
C20   C24   A    
C117  H67   S    
C14   C90   A    
C113  H52   S    
C13   C109  A    
C77   H10   S    
C86   C94   A    
C27   N3    A    
C71   H20   S    
C85   C93   A    
C42   H2    S    
C40   C43   A    
O5    Zn3   S    
C119  H74   S    
C29   C33   A    
C25   N1    A    
C69   H18   S    
C56   C72   A    
C87   C95   A    
C115  H60   S    
O16   Zn4   S    
C122  N14   T    
C34   C46   A    
C17   H45   S    
C121  N13   T    
C60   H24   S    
O15   Zn3   S    
O14   Zn3   S    
C52   C68   A    
C24   H43   S    
O11   Zn1   S    
C110  H34   S    
C59   C67   A    
C78   C86   A    
C32   C40   A    
C99   C104  A    
C35   C47   A    
C115  H58   S    
C83   C99   A    
C123  N15   T    
C6    O14   A    
C82   C98   A    
C57   H21   S    
C24   N4    A    
C17   C33   A    
C74   C82   A    
O10   Zn1   S    
C73   C81   A    
C88   C104  A    
C3    C50   S    
C58   C66   A    
C106  H30   S    
C23   N3    A    
C116  H63   S    
C25   C29   A    
C76   H7    S    
C21   N1    A    
C30   C34   A    
C3    O3    A    
N6    H53   S    
C84   C100  A    
C75   C83   A    
C13   N9    S    
O7    Zn4   S    
C28   C32   A    
C8    O8    A    
C64   C96   A    
N2    Zn1   S    
C57   C65   A    
C39   C40   A    
C12   C108  A    
C51   C67   A    
C114  H55   S    
C101  C110  A    
C27   C31   A    
C26   N2    A    
C70   H17   S    
C17   C21   A    
C111  H35   S    
C4    O4    A    
C43   H3    S    
C103  C112  A    
C100  C103  A    
C114  H54   S    
C53   C77   A    
N10   H69   S    
N6    C114  S    
C117  H66   S    
C120  H78   S    
C18   H46   S    
C15   C111  A    
C28   C123  S    
N11   H73   S    
C55   C79   A    
C8    O16   A    
O6    Zn4   S    
N12   H77   S    
C54   C70   A    
C1    O1    A    
C21   H42   S    
C114  H56   S    
C119  H75   S    
N9    H65   S    
C4    O12   A    
C7    C54   S    
C7    O15   A    
C59   C91   A    
C62   H26   S    
C18   C34   A    
C68   H15   S    
C5    O13   A    
C49   C65   A    
C38   C41   A    
C87   C103  A    
C97   C106  A    
C26   C121  S    
C3    O11   A    
C46   H38   S    
C63   C71   A    
O9    Zn2   S    
C16   C92   A    
C28   N4    A    
C62   C94   A    
C11   C107  A    
C120  H79   S    
C49   C73   A    
C10   C106  A    
C25   C122  S    
C107  H31   S    
C86   C102  A    
C9    C93   A    
C108  H32   S    
C85   C101  A    
C16   C112  A    
C72   H19   S    
C115  H59   S    
C6    O6    A    
C116  H64   S    
C61   C69   A    
C14   C110  A    
C74   H5    S    
C2    O2    A    
C100  C107  A    
C5    O5    A    
C73   H6    S    
C13   C89   A    
N3    Zn4   S    
C18   C22   A    
C63   H27   S    
O13   Zn4   S    
C109  H33   S    
C75   H8    S    
C97   C102  A    
C41   H1    S    
C52   C76   A    
C82   C90   A    
C8    C53   S    
C104  C111  A    
C50   C66   A    
C26   C30   A    
C39   C44   A    
C118  H71   S    
C98   C101  A    
C83   C91   A    
C79   H12   S    
C10   N6    S    
C56   C80   A    
C66   H13   S    
C4    C49   S    
C58   C90   A    
O1    Zn1   S    
C65   H14   S    
C48   H40   S    
C118  H70   S    
C45   H37   S    
C19   H47   S    
C113  H50   S    
C80   C88   A    
N12   C120  S    
C19   C35   A    
C67   H16   S    
C2    O10   A    
O8    Zn3   S    
C61   H25   S    
N5    H49   S    
C81   C97   A    
C77   C85   A    
C59   H23   S    
N9    C117  S    
C31   C39   A    
C14   N10   S    
C36   C48   A    
C31   C35   A    
C64   C72   A    
C81   C89   A    
N7    H57   S    
C1    C52   S    
C113  H51   S    
C2    C51   S    
C47   H39   S    
C15   C91   A    
C11   N7    S    
C20   C36   A    
C112  H36   S    
C117  H68   S    
C11   C95   A    
C60   C68   A    
N11   C119  S    
O4    Zn1   S    
C20   H48   S    
C29   C37   A    
N4    Zn3   S    
C41   C45   A    
C12   C96   A    
C102  C109  A    
C84   C92   A    
C30   C38   A    
C23   H44   S    
C60   C92   A    
C43   C47   A    
C80   H11   S    
C55   C71   A    
C44   C48   A    
C54   C78   A    
C22   H41   S    
