data_mof_unit_8268.cif
_audit_creation_date              2012-12-11T17:43:20-0500
_audit_creation_method            fapswitch 2.2
_symmetry_space_group_name_H-M    P1
_symmetry_Int_Tables_number       1
_space_group_crystal_system       triclinic
_cell_length_a                    15.053619
_cell_length_b                    14.961849
_cell_length_c                    16.917235
_cell_angle_alpha                 108.73806
_cell_angle_beta                  106.305614
_cell_angle_gamma                 109.027593
_cell_volume                      3078.72530837

loop_
_atom_site_label
_atom_site_type_symbol
_atom_type_description
_atom_site_fract_x
_atom_site_fract_y
_atom_site_fract_z
_atom_type_partial_charge
C1    C     C_R   0.091451 0.277518 0.022484 -0.121217
C2    C     C_R   0.916014 0.711638 0.918981 -0.140226
C3    C     C_R   0.028036 0.464948 0.725550 0.058150
C4    C     C_R   0.973529 0.420919 0.255655 0.066714
C5    C     C_R   0.664482 0.217304 0.744323 0.064916
C6    C     C_R   0.240105 0.803749 0.274369 0.054235
C7    C     C_R   0.359558 0.567342 0.057058 0.059454
C8    C     C_R   0.710205 0.538115 0.030732 0.045867
C9    C     C_R   0.916752 0.886450 0.867286 -0.231216
C10   C     C_R   0.102863 0.072399 0.952517 -0.230838
C11   C     C_R   0.009901 0.888379 0.916723 0.054580
C12   C     C_R   0.007963 0.075534 0.921106 0.054455
C13   C     C_R   0.104976 0.977770 0.945659 0.029537
C14   C     C_R   0.915779 0.978183 0.863742 0.029931
C15   C     C_R   0.834468 0.016214 0.735691 -0.140351
C16   C     C_R   0.295317 0.049747 0.044752 -0.180535
C17   C     C_R   0.647386 0.934687 0.649362 -0.088324
C18   C     C_R   0.394702 0.964416 0.993872 -0.096916
C19   C     C_R   0.499561 0.708481 0.355874 -0.116833
C20   C     C_R   0.510072 0.412600 0.727625 -0.122879
C21   C     C_R   0.506669 0.690471 0.272020 -0.133827
C22   C     C_R   0.520603 0.436711 0.817722 -0.116716
C23   C     C_R   0.935852 0.450901 0.734681 -0.128396
C24   C     C_R   0.064438 0.480804 0.253493 -0.139918
C25   C     C_R   0.530973 0.609571 0.230150 0.117095
C26   C     C_R   0.551499 0.541280 0.880261 0.113820
C27   C     C_R   0.549088 0.548007 0.274497 -0.170766
C28   C     C_R   0.570670 0.620971 0.851249 -0.192847
C29   C     C_R   0.542131 0.566520 0.358511 -0.106693
C30   C     C_R   0.561738 0.596691 0.761505 -0.122567
C31   C     C_R   0.517343 0.646604 0.399121 -0.094438
C32   C     C_R   0.531358 0.492492 0.699683 -0.100256
C33   C     C_R   0.621582 0.577067 0.128739 -0.242029
C34   C     C_R   0.476909 0.582090 0.987378 -0.235206
C35   C     C_R   0.629281 0.561886 0.045179 0.069834
C36   C     C_R   0.462640 0.586435 0.066136 0.058156
C37   C     C_R   0.556907 0.566394 0.974248 0.015622
C38   C     C_R   0.537739 0.590143 0.140597 0.022280
C39   C     C_R   0.747263 0.000038 0.664362 -0.092659
C40   C     C_R   0.389396 0.044618 0.060221 -0.111872
C41   C     C_R   0.965869 0.379551 0.322616 0.132103
C42   C     C_R   0.037200 0.419978 0.639030 0.129046
C43   C     C_R   0.141973 0.438441 0.554247 -0.225760
C44   C     C_R   0.861772 0.305569 0.393143 -0.227865
C45   C     C_R   0.720328 0.214670 0.823182 -0.124610
C46   C     C_R   0.223669 0.797902 0.187543 -0.134246
C47   C     C_R   0.135173 0.453159 0.637336 -0.170813
C48   C     C_R   0.868196 0.323258 0.318732 -0.176942
C49   C     C_R   0.946846 0.356471 0.555506 -0.282216
C50   C     C_R   0.056785 0.405799 0.396699 -0.283183
C51   C     C_R   0.952760 0.347419 0.473044 0.192004
C52   C     C_R   0.051031 0.393533 0.473382 0.188515
C53   C     C_R   0.555873 0.144202 0.677451 0.131412
C54   C     C_R   0.280979 0.899990 0.360411 0.132852
C55   C     C_R   0.388191 0.089951 0.444945 -0.234686
C56   C     C_R   0.406253 0.972191 0.607788 -0.244410
C57   C     C_R   0.318604 0.000004 0.361992 -0.170336
C58   C     C_R   0.498660 0.052988 0.683055 -0.178098
C59   C     C_R   0.298046 0.893394 0.443821 -0.291096
C60   C     C_R   0.512311 0.160092 0.601519 -0.314270
C61   C     C_R   0.371753 0.982220 0.526675 0.192389
C62   C     C_R   0.421625 0.079422 0.525741 0.199234
C63   C     C_R   0.634356 0.887384 0.707035 -0.136982
C64   C     C_R   0.306046 0.889389 0.911691 -0.122989
C65   C     C_R   0.721319 0.903559 0.778712 -0.178336
C66   C     C_R   0.211850 0.894290 0.895756 -0.143343
C67   C     C_R   0.300559 0.598969 0.006145 -0.154959
C68   C     C_R   0.737810 0.463968 0.048103 -0.137590
C69   C     C_R   0.822453 0.967485 0.793251 0.113373
C70   C     C_R   0.205447 0.973957 0.962631 0.112479
C71   C     C_R   0.726562 0.310534 0.746778 -0.146831
C72   C     C_R   0.217911 0.702326 0.265404 -0.128184
C73   C     C_R   0.296394 0.501054 0.080726 -0.129390
C74   C     C_R   0.754062 0.566458 0.976146 -0.108377
C75   C     C_R   0.109661 0.535869 0.812450 -0.135407
C76   C     C_R   0.891876 0.397328 0.176666 -0.141332
C77   C     C_R   0.917443 0.192994 0.948318 -0.131584
C78   C     C_R   0.087300 0.796593 0.999723 -0.145002
C79   C     C_R   0.005893 0.178372 0.959106 0.053506
C80   C     C_R   0.004650 0.803356 0.945096 0.063871
H1    H     H_    0.172735 0.296415 0.048959 0.092823
H2    H     H_    0.838855 0.683098 0.866976 0.096262
H3    H     H_    0.911383 0.065136 0.744940 0.116861
H4    H     H_    0.292159 0.111628 0.097277 0.109542
H5    H     H_    0.512005 0.660779 0.464133 0.101004
H6    H     H_    0.523375 0.473450 0.629893 0.097035
H7    H     H_    0.480461 0.770584 0.387415 0.110802
H8    H     H_    0.484093 0.331766 0.679144 0.121748
H9    H     H_    0.493488 0.739837 0.239899 0.112968
H10   H     H_    0.503530 0.374029 0.838451 0.114757
H11   H     H_    0.567254 0.484842 0.243574 0.106859
H12   H     H_    0.593163 0.701741 0.898368 0.113881
H13   H     H_    0.555736 0.518543 0.392056 0.103381
H14   H     H_    0.577466 0.658400 0.739635 0.106201
H15   H     H_    0.680386 0.577872 0.183849 0.131808
H16   H     H_    0.418421 0.578098 0.929642 0.129884
H17   H     H_    0.132787 0.445764 0.399889 0.115206
H18   H     H_    0.870841 0.324922 0.554822 0.116838
H19   H     H_    0.796404 0.298785 0.261437 0.111801
H20   H     H_    0.206689 0.497646 0.700184 0.117530
H21   H     H_    0.218031 0.471719 0.554993 0.126768
H22   H     H_    0.785802 0.268387 0.391472 0.124111
H23   H     H_    0.857175 0.401502 0.681603 0.094356
H24   H     H_    0.142903 0.500329 0.296444 0.087713
H25   H     H_    0.757150 0.037208 0.620000 0.112634
H26   H     H_    0.458157 0.102657 0.123826 0.103407
H27   H     H_    0.553267 0.230364 0.596043 0.114714
H28   H     H_    0.264513 0.817737 0.444193 0.120370
H29   H     H_    0.528407 0.039910 0.742100 0.122821
H30   H     H_    0.302334 0.008679 0.299240 0.116187
H31   H     H_    0.423711 0.165251 0.444204 0.122958
H32   H     H_    0.367455 0.898666 0.610116 0.127817
H33   H     H_    0.580094 0.920826 0.593054 0.114560
H34   H     H_    0.467540 0.960450 0.006117 0.098740
H35   H     H_    0.556807 0.837551 0.695791 0.104543
H36   H     H_    0.310269 0.827345 0.860347 0.105726
H37   H     H_    0.709677 0.866006 0.822537 0.105617
H38   H     H_    0.143711 0.835574 0.831786 0.117140
H39   H     H_    0.690493 0.161887 0.850784 0.088853
H40   H     H_    0.233812 0.861654 0.168920 0.095967
H41   H     H_    0.703462 0.347817 0.705330 0.092161
H42   H     H_    0.222902 0.676812 0.318562 0.094720
H43   H     H_    0.319906 0.469095 0.127235 0.104163
H44   H     H_    0.751177 0.624289 0.951907 0.113733
H45   H     H_    0.191934 0.564558 0.831476 0.092583
H46   H     H_    0.811564 0.339651 0.148723 0.084389
H47   H     H_    0.837089 0.134327 0.908945 0.115505
H48   H     H_    0.168926 0.846901 0.025892 0.118455
H49   H     H_    0.844624 0.813680 0.831013 0.120488
H50   H     H_    0.175687 0.143532 0.983143 0.122910
N1    N     N_R   0.055660 0.348550 0.045620 -0.041280
N2    N     N_R   0.944340 0.651450 0.954380 -0.039996
N3    N     N_R   0.960830 0.507850 0.823700 -0.040544
N4    N     N_R   0.039170 0.492150 0.176300 -0.038215
N5    N     N_R   0.811290 0.303410 0.871650 -0.041069
N6    N     N_R   0.188710 0.696590 0.128350 -0.039670
N7    N     N_R   0.205200 0.552990 0.997670 -0.037024
N8    N     N_R   0.794800 0.447010 0.002330 -0.041122
N9    N     N_R   0.814800 0.361830 0.823700 -0.038721
N10   N     N_R   0.185200 0.638170 0.176300 -0.038951
N11   N     N_R   0.201680 0.494570 0.045620 -0.040634
N12   N     N_R   0.798320 0.505430 0.954380 -0.041551
N13   N     N_R   0.068420 0.560530 0.871650 -0.039066
N14   N     N_R   0.931580 0.439470 0.128350 -0.037225
N15   N     N_R   0.948070 0.295860 0.997670 -0.043092
N16   N     N_R   0.051930 0.704140 0.002330 -0.039996
Ni1   Ni    Ni4+2 0.119340 0.493420 0.109960 0.214516
Ni2   Ni    Ni4+2 0.880660 0.506580 0.890040 0.215142
Ni3   Ni    Ni4+2 0.872590 0.372590 0.000000 0.208878
Ni4   Ni    Ni4+2 0.127410 0.627410 0.000000 0.214613
H51   H     H_    0.327802 0.660559 0.985814 0.095405
H52   H     H_    0.714823 0.423486 0.087043 0.099234

loop_
_geom_bond_atom_site_label_1
_geom_bond_atom_site_label_2
_ccdc_geom_bond_type
C74   H44   S    
C63   C65   A    
C3    C42   S    
C31   H5    S    
C27   C29   A    
C34   C37   A    
C76   H46   S    
C7    C36   S    
C3    C23   A    
N6    N10   A    
C19   C31   A    
C18   H34   S    
C10   H50   S    
C17   H33   S    
C7    C73   A    
C73   N11   A    
N5    N9    A    
N4    Ni1   S    
C64   H36   S    
C5    C53   S    
C35   C37   A    
C34   H16   S    
C19   H7    S    
C4    C24   A    
C78   C80   A    
C43   C52   A    
C4    C41   S    
C1    H1    S    
C58   H29   S    
C12   C79   S    
C16   H4    S    
C60   C62   A    
C17   C39   A    
C18   C40   A    
N7    N11   A    
C49   H18   S    
N16   Ni4   S    
C68   N8    A    
N13   Ni4   S    
C23   H23   S    
C49   C51   A    
C2    N2    A    
C27   H11   S    
C3    C75   A    
C77   H47   S    
C59   H28   S    
C55   H31   S    
C45   H39   S    
C74   N12   A    
C78   H48   S    
C6    C54   S    
C33   H15   S    
N10   Ni1   S    
C29   H13   S    
C53   C60   A    
C10   C12   A    
C54   C59   A    
C77   C79   A    
N8    Ni3   S    
C15   C69   A    
N9    Ni2   S    
C45   N5    A    
C59   C61   A    
C23   N3    A    
N11   Ni1   S    
C67   H51   S    
C51   C52   A    
N2    Ni2   S    
N12   Ni2   S    
C16   C70   A    
N6    Ni4   S    
N8    N12   A    
C66   H38   S    
C44   H22   S    
C71   N9    A    
C73   H43   S    
N5    Ni3   S    
C5    C45   A    
C47   H20   S    
C24   H24   S    
C8    C35   S    
C64   C66   A    
N3    N13   A    
C6    C72   A    
C9    C14   A    
C43   H21   S    
N14   Ni3   S    
C68   H52   S    
C25   C38   S    
C50   C52   A    
C57   H30   S    
C29   C31   A    
C32   H6    S    
C8    C74   A    
C22   H10   S    
C46   H40   S    
C28   H12   S    
N3    Ni2   S    
N1    Ni1   S    
C9    C11   A    
C15   C39   A    
C60   H27   S    
C75   N13   A    
C16   C40   A    
C76   N14   A    
C44   C51   A    
C12   C14   A    
C8    C68   A    
C55   C57   A    
C22   C26   A    
C1    C79   A    
C14   C69   S    
N7    Ni4   S    
C2    H2    S    
C77   N15   A    
C41   C50   A    
N4    N14   A    
C40   H26   S    
C20   C32   A    
C24   N4    A    
C39   H25   S    
C48   H19   S    
C21   C25   A    
C50   H17   S    
C6    C46   A    
C72   H42   S    
C71   H41   S    
C21   H9    S    
C20   C22   A    
C1    N1    A    
C10   C13   A    
C15   H3    S    
C53   C58   A    
C26   C37   S    
C9    H49   S    
C25   C27   A    
C26   C28   A    
C33   C38   A    
N2    N16   A    
C28   C30   A    
C63   H35   S    
C30   H14   S    
C17   C63   A    
C30   C32   A    
C11   C13   A    
C18   C64   A    
C66   C70   A    
C65   C69   A    
C20   H8    S    
C36   C38   A    
C33   C35   A    
C41   C48   A    
C56   C58   A    
N1    N15   A    
C34   C36   A    
C42   C47   A    
C61   C62   A    
C67   N7    A    
C4    C76   A    
C2    C80   A    
C11   C80   S    
C78   N16   A    
C42   C49   A    
C7    C67   A    
C46   N6    A    
C72   N10   A    
C55   C62   A    
C5    C71   A    
C13   C70   S    
C65   H37   S    
C56   C61   A    
C75   H45   S    
C43   C47   A    
C56   H32   S    
N15   Ni3   S    
C44   C48   A    
C19   C21   A    
C54   C57   A    
