data_mof_unit_22509.cif
_audit_creation_date              2013-03-05T15:51:16-0500
_audit_creation_method            fapswitch 2.2
_symmetry_space_group_name_H-M    P1
_symmetry_Int_Tables_number       1
_space_group_crystal_system       triclinic
_cell_length_a                    9.63568
_cell_length_b                    10.765525
_cell_length_c                    13.895309
_cell_angle_alpha                 92.647081
_cell_angle_beta                  84.996386
_cell_angle_gamma                 90.123058
_cell_volume                      1434.37658243

loop_
_atom_site_label
_atom_site_type_symbol
_atom_site_description
_atom_site_fract_x
_atom_site_fract_y
_atom_site_fract_z
_atom_type_partial_charge
O1    O     O_R   0.381190 0.680360 0.500010 -0.583402
O2    O     O_R   0.618760 0.680340 0.500000 -0.524724
C1    C     C_R   0.499981 0.737081 0.500975 0.811809
O3    O     O_R   0.364420 0.499990 0.637850 -0.590854
O4    O     O_R   0.601990 0.499960 0.637840 -0.503921
C2    C     C_R   0.477559 0.501029 0.682666 0.786703
Cu1   Cu    Cu3+1 0.359340 0.500010 0.500010 0.956304
Cu2   Cu    Cu3+1 0.640660 0.499990 0.499990 1.021730
O5    O     O_R   0.381240 0.319660 0.500000 -0.597222
O6    O     O_R   0.618810 0.319640 0.499990 -0.585673
O7    O     O_R   0.398010 0.500040 0.362160 -0.595279
O8    O     O_R   0.635580 0.500010 0.362150 -0.589482
C3    C     C_R   0.499795 0.262853 0.500019 0.831394
C4    C     C_R   0.522566 0.499462 0.317338 0.826134
C5    C     C_1   0.536796 0.499162 0.214351 -0.110663
C6    C     C_2   0.569413 0.500518 0.023850 0.353085
C7    C     C_2   0.454235 0.508420 0.976039 -0.294152
C8    C     C_1   0.458251 0.505178 0.872449 0.117200
C9    C     C_1   0.551169 0.499391 0.127654 -0.028867
C10   C     C_1   0.465113 0.502922 0.785689 -0.100901
H1    H     H_    0.352184 0.514833 0.016038 0.154032
H2    H     H_    0.572294 0.875194 0.354086 0.174986
C11   C     C_R   0.415310 0.881290 0.678043 -0.115242
H3    H     H_    0.414978 0.781084 0.681549 0.126184
C12   C     C_R   0.374277 0.951728 0.762456 -0.101978
H4    H     H_    0.342889 0.905828 0.828572 0.152333
C13   C     C_R   0.374039 0.081002 0.761934 -0.106687
H5    H     H_    0.342420 0.135408 0.827648 0.150821
C14   C     C_R   0.414782 0.140570 0.676991 -0.130512
H6    H     H_    0.413563 0.241024 0.679846 0.125459
C15   C     C_R   0.456320 0.071069 0.590480 0.041198
C16   C     C_R   0.456515 0.939877 0.591162 0.095289
C17   C     C_R   0.499572 0.870960 0.504974 -0.138429
C18   C     C_R   0.541023 0.929751 0.419963 -0.202032
C19   C     C_R   0.539426 0.058128 0.418356 0.342443
C20   C     C_R   0.498581 0.128985 0.503342 -0.159143
C21   C     C_R   0.872418 0.334889 0.371405 -0.074417
H7    H     H_    0.763896 0.327996 0.365191 0.228696
C22   C     C_R   0.952045 0.253709 0.308752 -0.140094
H8    H     H_    0.902190 0.190713 0.259474 0.205314
C23   C     C_R   0.095021 0.253255 0.309030 -0.200855
H9    H     H_    0.156942 0.189863 0.260041 0.179453
C24   C     C_R   0.159329 0.334149 0.371814 -0.099451
H10   H     H_    0.269513 0.326396 0.365751 0.210926
C25   C     C_R   0.082410 0.418534 0.437057 0.185090
C26   C     C_R   0.933121 0.418730 0.436962 0.112963
N1    N     N_R   0.852210 0.498790 0.499090 -0.235635
C27   C     C_R   0.920082 0.577730 0.560187 0.468993
H11   H     H_    0.117303 0.640663 0.608751 0.172702
C28   C     C_R   0.067395 0.577324 0.559820 -0.077611
N2    N     N_R   0.148080 0.498710 0.499060 -0.224916
N3    N     N_R   0.708902 0.491958 0.976396 0.149566
O9    O     O_R   0.810849 0.456877 0.024504 -0.331720
O10   O     O_R   0.738109 0.530320 0.889515 -0.307791
Cl1   Cl    Cl    0.583476 0.127196 0.307222 -0.686023
Cl2   Cl    Cl    0.827676 0.683312 0.641845 -0.543131

loop_
_geom_bond_atom_site_label_1
_geom_bond_atom_site_label_2
_geom_bond_distance
_ccdc_geom_bond_type
O4    Cu2   1.919224 S    
C5    C9    1.200675 T    
C11   H3    1.082101 S    
C21   H7    1.058884 S    
C18   C19   1.383397 A    
O2    C1    1.297215 A    
C12   C13   1.392068 A    
C24   C25   1.416373 A    
C23   H9    1.083092 S    
C15   C20   1.415361 A    
C19   C20   1.402971 A    
C27   Cl2   1.755334 S    
Cu2   O8    1.920228 S    
C11   C16   1.413694 A    
C27   C28   1.419043 A    
C7    C8    1.435369 S    
C12   H4    1.082807 S    
Cu2   N1    2.037440 S    
Cu1   N2    2.036842 S    
Cu1   Cu2   2.710686 S    
C21   C22   1.387977 A    
O1    Cu1   1.952495 S    
C25   C26   1.438624 A    
C16   C17   1.410466 A    
Cu1   O7    1.919224 S    
C23   C24   1.387545 A    
C14   H6    1.080383 S    
O3    Cu1   1.920228 S    
Cu2   O6    1.952495 S    
N3    O10   1.301335 A    
C17   C18   1.393246 A    
C8    C10   1.200725 T    
C11   C12   1.394768 A    
C24   H10   1.060847 S    
C6    C9    1.438365 S    
O4    C2    1.301834 A    
H2    C18   1.084742 S    
O7    C4    1.302945 A    
C7    H1    1.087209 S    
O3    C2    1.301578 A    
C13   C14   1.395179 A    
C25   N2    1.382651 A    
C19   Cl1   1.762976 S    
N1    C27   1.377850 A    
C22   H8    1.082880 S    
C2    C10   1.425295 S    
N3    O9    1.301507 A    
C22   C23   1.378034 A    
C3    C20   1.444017 S    
C14   C15   1.413979 A    
H11   C28   1.082274 S    
C13   H5    1.082824 S    
Cu1   O5    1.953438 S    
C1    C17   1.439789 S    
C4    C5    1.425486 S    
O5    C3    1.296936 A    
C28   N2    1.362286 A    
C21   C26   1.414688 A    
C26   N1    1.383000 A    
C15   C16   1.412826 A    
O2    Cu2   1.953439 S    
C6    N3    1.445729 S    
O8    C4    1.300586 A    
C6    C7    1.347049 D    
O1    C1    1.296976 A    
O6    C3    1.298384 A    
