data_mof_unit_46451.cif
_audit_creation_date              2012-12-11T14:36:19-0500
_audit_creation_method            fapswitch 2.2
_symmetry_space_group_name_H-M    P1
_symmetry_Int_Tables_number       1
_space_group_crystal_system       triclinic
_cell_length_a                    13.509359
_cell_length_b                    13.513259
_cell_length_c                    27.460556
_cell_angle_alpha                 90.715427
_cell_angle_beta                  89.918661
_cell_angle_gamma                 60.014391
_cell_volume                      4341.57109956

loop_
_atom_site_label
_atom_site_type_symbol
_atom_type_description
_atom_site_fract_x
_atom_site_fract_y
_atom_site_fract_z
_atom_type_partial_charge
C1    C     C_R   0.620100 0.101477 0.570175 0.544593
C2    C     C_1   0.648785 0.705418 0.658499 -0.060491
C3    C     C_3   0.248508 0.862062 0.759319 -0.313536
C4    C     C_3   0.094592 0.127410 0.738354 -0.072673
C5    C     C_R   0.599427 0.779767 0.568773 0.545577
C6    C     C_3   0.188741 0.061789 0.775925 0.180659
C7    C     C_1   0.097584 0.200968 0.902023 -0.012502
C8    C     C_1   0.228678 0.138745 0.617335 -0.015227
C9    C     C_3   0.052826 0.237695 0.769926 -0.121554
C10   C     C_3   0.147468 0.169375 0.807229 0.057866
C11   C     C_3   0.136142 0.265727 0.742529 -0.112361
C12   C     C_3   0.178029 0.155570 0.711900 0.028478
C13   C     C_1   0.630565 0.732578 0.616442 -0.016995
C14   C     C_3   0.230378 0.197519 0.780433 -0.129650
C15   C     C_3   0.273317 0.087021 0.748978 -0.098031
C16   C     C_1   0.125355 0.181903 0.859763 -0.049032
C17   C     C_R   0.277438 0.122063 0.569561 0.545209
C18   C     C_1   0.200409 0.147966 0.659477 -0.060415
C19   C     C_3   0.627609 0.277590 0.740127 -0.103531
C20   C     C_3   0.554779 0.257786 0.778311 -0.100813
C21   C     C_1   0.691649 0.207544 0.903033 -0.013609
C22   C     C_1   0.635077 0.133918 0.618300 -0.016369
C23   C     C_3   0.735983 0.205965 0.770876 -0.099198
C24   C     C_3   0.691666 0.563946 0.768060 -0.099687
C25   C     C_3   0.662991 0.185895 0.808222 0.053149
C26   C     C_3   0.758792 0.095967 0.743175 -0.096569
C27   C     C_3   0.650662 0.167744 0.713199 0.051428
C28   C     C_3   0.686042 0.076116 0.781244 -0.101044
C29   C     C_R   0.623936 0.100127 0.431887 0.545767
C30   C     C_3   0.577642 0.147671 0.750524 -0.103470
C31   C     C_1   0.674755 0.196475 0.860773 -0.056429
C32   C     C_1   0.643452 0.152927 0.660628 -0.059429
C33   C     C_R   0.725588 0.722324 0.356297 -0.134161
C34   C     C_R   0.732417 0.712168 0.305584 0.017039
C35   C     C_3   0.679567 0.654905 0.805608 0.053289
C36   C     C_R   0.742332 0.695328 0.203551 0.016715
C37   C     C_R   0.824136 0.708897 0.229150 -0.141631
C38   C     C_R   0.821295 0.713882 0.279996 -0.135502
C39   C     C_R   0.756711 0.667238 0.153865 -0.139025
C40   C     C_R   0.676256 0.647876 0.129992 -0.004599
C41   C     C_R   0.601334 0.776994 0.429913 0.546275
C42   C     C_R   0.551648 0.710558 0.355244 -0.129172
C43   C     C_R   0.554659 0.705337 0.304822 0.014025
C44   C     C_R   0.645130 0.706511 0.279788 0.064994
C45   C     C_R   0.465758 0.704304 0.279055 -0.134857
C46   C     C_3   0.584786 0.656518 0.741642 -0.102033
C47   C     C_R   0.468200 0.701182 0.228432 -0.138032
C48   C     C_R   0.561265 0.695600 0.203369 0.011846
C49   C     C_R   0.648959 0.700452 0.228883 0.066286
C50   C     C_R   0.572852 0.675431 0.153589 -0.129513
C51   C     C_R   0.632419 0.726680 0.380996 -0.003999
C52   C     C_R   0.207688 0.059940 0.358375 -0.131089
C53   C     C_R   0.277681 0.120783 0.431008 0.544272
C54   C     C_R   0.181875 0.073212 0.308619 0.027971
C55   C     C_R   0.142898 0.095554 0.207781 0.025008
C56   C     C_R   0.148190 0.002573 0.232345 -0.119794
C57   C     C_3   0.662825 0.683912 0.710845 0.052928
C58   C     C_R   0.169942 0.990224 0.282284 -0.119241
C59   C     C_R   0.116636 0.111410 0.158264 -0.129554
C60   C     C_R   0.110259 0.205803 0.134387 -0.018658
C61   C     C_R   0.194817 0.245453 0.360708 -0.115159
C62   C     C_R   0.179920 0.255523 0.310484 -0.005957
C63   C     C_R   0.173294 0.168849 0.284255 0.018374
C64   C     C_R   0.179674 0.346681 0.285960 0.146903
C65   C     C_3   0.769582 0.591720 0.736485 -0.101061
C66   C     C_R   0.177239 0.348662 0.234671 0.271068
C67   C     C_R   0.161873 0.266764 0.208786 -0.003353
C68   C     C_3   0.572922 0.747014 0.779921 -0.105361
C69   C     C_R   0.159046 0.177278 0.233641 0.010051
C70   C     C_R   0.143318 0.276140 0.158672 -0.113874
C71   C     C_R   0.218948 0.144245 0.383998 -0.016617
C72   C     C_R   0.591866 0.245694 0.368297 -0.147487
C73   C     C_R   0.606727 0.266704 0.319610 0.011647
C74   C     C_R   0.613283 0.299382 0.218870 0.019063
C75   C     C_R   0.549750 0.393125 0.250289 -0.127161
C76   C     C_R   0.547353 0.377009 0.300455 -0.146225
C77   C     C_3   0.757731 0.682261 0.774893 -0.099884
C78   C     C_R   0.616472 0.313695 0.168609 -0.125311
C79   C     C_3   0.650741 0.774886 0.748388 -0.103130
C80   C     C_R   0.685362 0.218914 0.138296 -0.002722
C81   C     C_R   0.736629 0.046011 0.356338 -0.124585
C82   C     C_R   0.747183 0.064301 0.307701 0.011029
C83   C     C_R   0.678370 0.173829 0.288631 0.065203
C84   C     C_R   0.820926 0.972846 0.277350 -0.126213
C85   C     C_R   0.818881 0.987105 0.227348 -0.125747
C86   C     C_R   0.746797 0.094507 0.207649 0.014383
C87   C     C_R   0.679525 0.189456 0.238370 0.063560
C88   C     C_R   0.745501 0.109265 0.157829 -0.127308
C89   C     C_1   0.697378 0.608092 0.900228 -0.015897
C90   C     C_1   0.688492 0.634083 0.858019 -0.059480
C91   C     C_R   0.652750 0.133753 0.385830 -0.000916
C92   C     C_R   0.049546 0.236053 0.949891 0.544948
C93   C     C_R   0.711665 0.562919 0.948230 0.544167
C94   C     C_R   0.722299 0.225379 0.950951 0.546065
C95   C     C_R   0.049093 0.244336 0.088173 0.544798
C96   C     C_R   0.706072 0.577483 0.085580 0.545212
C97   C     C_R   0.719370 0.235230 0.089970 0.546364
C98   C     C_3   0.110138 0.527403 0.203173 -0.017766
C99   C     C_3   0.147801 0.616349 0.201332 -0.384048
C100  C     C_3   0.300411 0.415183 0.318267 -0.296810
Cr1   Cr    Cr6+3 0.417550 0.169090 0.500530 1.022786
Cr2   Cr    Cr6+3 0.669180 0.913420 0.499920 1.020571
Cr3   Cr    Cr6+3 0.413260 0.917540 0.499520 1.019743
Cr4   Cr    Cr6+3 0.909170 0.177380 0.020380 1.023284
Cr5   Cr    Cr6+3 0.912710 0.429210 0.018220 1.021145
Cr6   Cr    Cr6+3 0.657170 0.432570 0.019030 1.022160
H1    H     H_    0.828506 0.693253 0.789203 0.105217
H2    H     H_    0.801490 0.229912 0.779837 0.101464
H3    H     H_    0.834558 0.650383 0.135233 0.112897
H4    H     H_    0.850147 0.527706 0.718157 0.102778
H5    H     H_    0.787942 0.735015 0.376027 0.121006
H6    H     H_    0.891001 0.713713 0.209674 0.090436
H7    H     H_    0.888955 0.717878 0.299345 0.089778
H8    H     H_    0.507053 0.666743 0.134725 0.130576
H9    H     H_    0.399982 0.698081 0.209007 0.096913
H10   H     H_    0.394646 0.705678 0.298016 0.093720
H11   H     H_    0.479872 0.712768 0.374029 0.127591
H12   H     H_    0.285774 0.226357 0.798007 0.106467
H13   H     H_    0.094669 0.054352 0.139205 0.125066
H14   H     H_    0.224441 0.982163 0.376361 0.119778
H15   H     H_    0.136355 0.939040 0.212874 0.099003
H16   H     H_    0.633770 0.862012 0.739665 0.101220
H17   H     H_    0.176413 0.916423 0.300370 0.096716
H18   H     H_    0.143474 0.345160 0.139255 0.162475
H19   H     H_    0.199480 0.311995 0.381147 0.175083
H20   H     H_    0.571814 0.398938 0.153714 0.128504
H21   H     H_    0.530049 0.314336 0.391549 0.110876
H22   H     H_    0.500241 0.478334 0.235962 0.115577
H23   H     H_    0.113789 0.350641 0.728002 0.110955
H24   H     H_    0.495741 0.450177 0.323942 0.101977
H25   H     H_    0.799146 0.036109 0.134556 0.126086
H26   H     H_    0.492621 0.811044 0.798376 0.103623
H27   H     H_    0.874189 0.914617 0.204167 0.098159
H28   H     H_    0.878156 0.889944 0.292236 0.097452
H29   H     H_    0.786810 0.959682 0.369735 0.131293
H30   H     H_    0.514048 0.645348 0.727417 0.098289
H31   H     H_    0.708514 0.476858 0.776775 0.099334
H32   H     H_    0.039258 0.098311 0.720931 0.099352
H33   H     H_    0.363769 0.023794 0.740051 0.096852
H34   H     H_    0.962332 0.300327 0.779064 0.100610
H35   H     H_    0.045543 0.552087 0.232689 0.118882
H36   H     H_    0.068783 0.528402 0.168128 0.131678
H37   H     H_    0.211638 0.594454 0.171627 0.161970
H38   H     H_    0.073266 0.702090 0.194454 0.081791
H39   H     H_    0.186785 0.619239 0.236519 0.141180
H40   H     H_    0.127935 0.516022 0.304028 0.248300
H41   H     H_    0.332884 0.423323 0.282304 0.196016
H42   H     H_    0.358051 0.329083 0.333148 0.168333
H43   H     H_    0.298958 0.480299 0.343767 0.119587
H44   H     H_    0.275565 0.927752 0.823564 0.246246
H45   H     H_    0.470823 0.323951 0.793353 0.103998
H46   H     H_    0.268499 0.781455 0.777647 0.142030
H47   H     H_    0.324818 0.847770 0.738153 0.136206
H48   H     H_    0.176138 0.885001 0.734172 0.154359
H49   H     H_    0.604070 0.360158 0.722756 0.102431
H50   H     H_    0.512211 0.123620 0.741545 0.100680
H51   H     H_    0.709642 0.993496 0.798582 0.104287
H52   H     H_    0.842840 0.029784 0.728202 0.105784
N1    N     N_2   0.186447 0.433503 0.313168 -0.531357
N2    N     N_2   0.217984 0.951629 0.795440 -0.513641
O1    O     O_R   0.301710 0.195650 0.554160 -0.507093
O2    O     O_R   0.635520 0.542770 0.964420 -0.507780
O3    O     O_R   0.665950 0.325030 0.970100 -0.494474
O4    O     O_R   0.522390 0.158990 0.550460 -0.495659
O5    O     O_R   0.816620 0.158530 0.074540 -0.521478
O6    O     O_R   0.004460 0.188870 0.069750 -0.500712
O7    O     O_R   0.025800 0.341780 0.072300 -0.522324
O8    O     O_R   0.807650 0.528950 0.067500 -0.499589
O9    O     O_R   0.633420 0.550490 0.071810 -0.525989
O10   O     O_R   0.664000 0.332180 0.069640 -0.500586
O11   O     O_3   0.826350 0.346390 0.019210 -0.245032
O12   O     O_R   0.658900 0.818120 0.449760 -0.502270
O13   O     O_R   0.694390 0.003530 0.554040 -0.507517
O14   O     O_R   0.657700 0.819660 0.549320 -0.494304
O15   O     O_R   0.501930 0.803280 0.552920 -0.508729
O16   O     O_R   0.318170 0.023580 0.549580 -0.495818
O17   O     O_R   0.303010 0.193990 0.446760 -0.522702
O18   O     O_R   0.523600 0.157450 0.450900 -0.497644
O19   O     O_R   0.695690 0.001860 0.446640 -0.524488
O20   O     O_3   0.207115 0.418940 0.210024 -0.563247
O21   O     O_R   0.503220 0.801620 0.445520 -0.522632
O22   O     O_R   0.319370 0.022040 0.450020 -0.499087
O23   O     O_3   0.499990 0.000010 0.499990 -0.244460
O24   O     O_R   0.818720 0.150820 0.967160 -0.505801
O25   O     O_R   0.006410 0.181720 0.970200 -0.493326
O26   O     O_R   0.027890 0.334070 0.964920 -0.507633
O27   O     O_R   0.809600 0.521790 0.967960 -0.495861

loop_
_geom_bond_atom_site_label_1
_geom_bond_atom_site_label_2
_ccdc_geom_bond_type
C44   C49   A    
C25   C31   S    
C83   C87   A    
C55   C56   A    
C55   C59   A    
C80   C97   S    
Cr3   O22   S    
C19   H49   S    
Cr6   O11   S    
C57   C79   S    
C19   C20   S    
C100  N1    S    
C75   C76   A    
C81   C82   A    
C2    C57   S    
C20   C30   S    
C85   C86   A    
Cr2   O13   S    
C47   H9    S    
Cr4   O25   S    
C21   C31   T    
C1    O13   A    
C58   H17   S    
C37   C38   A    
H44   N2    S    
Cr3   O23   S    
Cr2   O23   S    
C35   C68   S    
C99   H37   S    
C36   C37   A    
Cr1   O4    S    
C11   C14   S    
C92   O26   A    
C20   C25   S    
C7    C92   S    
C100  H41   S    
C3    H47   S    
C86   C88   A    
C75   H22   S    
C5    O14   A    
C23   C26   S    
C68   H26   S    
C2    C13   T    
C54   C63   A    
C28   H51   S    
C37   H6    S    
C62   C64   A    
Cr1   O18   S    
C6    C15   S    
C76   H24   S    
C63   C69   A    
C1    O4    A    
C14   H12   S    
C96   O8    A    
C33   H5    S    
C74   C87   A    
C4    C12   S    
C19   C27   S    
C9    C10   S    
C5    C13   S    
Cr1   O23   S    
C17   O16   A    
C42   C51   A    
C17   O1    A    
C61   C71   A    
C68   C79   S    
C30   H50   S    
C66   C67   A    
C99   H39   S    
C59   C60   A    
C34   C38   A    
C98   H36   S    
C27   C30   S    
Cr2   O19   S    
Cr6   O10   S    
C41   O21   A    
C94   O24   A    
C40   C96   S    
C11   H23   S    
C41   O12   A    
C52   C54   A    
C81   H29   S    
C15   H33   S    
C45   C47   A    
Cr2   O12   S    
C79   H16   S    
C24   C35   S    
C65   C77   S    
C74   C75   A    
C72   H21   S    
C99   H38   S    
C77   H1    S    
C34   C44   A    
C84   C85   A    
C4    C6    S    
C10   C14   S    
C39   C40   A    
C38   H7    S    
C66   O20   S    
C92   O25   A    
C1    C22   S    
H40   N1    S    
Cr4   O6    S    
C35   C77   S    
C3    H48   S    
C8    C18   T    
C97   O10   A    
Cr4   O5    S    
C53   O17   A    
C25   C28   S    
C46   H30   S    
C64   C66   A    
Cr5   O26   S    
C19   C23   S    
C43   C44   A    
C60   C95   S    
C46   C68   S    
C62   C63   A    
C70   H18   S    
C9    C11   S    
C47   C48   A    
C12   C15   S    
C60   C70   A    
C84   H28   S    
Cr3   O15   S    
C33   C34   A    
C3    H46   S    
C77   C79   S    
C40   C50   A    
C55   C69   A    
Cr6   O3    S    
C43   C45   A    
C5    O15   A    
C22   C32   T    
C24   C65   S    
Cr4   O11   S    
C52   H14   S    
C7    C16   T    
Cr4   O24   S    
C98   C99   S    
C82   C84   A    
C29   O18   A    
C98   H35   S    
C26   C27   S    
C3    N2    S    
C100  H43   S    
Cr6   O9    S    
Cr2   O14   S    
C42   C43   A    
C98   O20   S    
C53   C71   S    
C95   O6    A    
C93   O27   A    
C29   C91   S    
C86   C87   A    
C54   C58   A    
C72   C91   A    
C48   C49   A    
C59   H13   S    
Cr5   O11   S    
C27   C32   S    
Cr3   O21   S    
C36   C39   A    
C57   C65   S    
C72   C73   A    
C95   O7    A    
C6    C10   S    
C6    N2    S    
C11   C12   S    
Cr5   O8    S    
C42   H11   S    
C73   C83   A    
C24   H31   S    
C33   C51   A    
C74   C78   A    
C26   C28   S    
C8    C17   S    
C20   H45   S    
C96   O9    A    
C67   C70   A    
C24   C46   S    
C56   H15   S    
Cr5   O27   S    
Cr1   O1    S    
C4    C9    S    
C28   C30   S    
C46   C57   S    
C52   C71   A    
C10   C16   S    
C53   O22   A    
C45   H10   S    
C29   O19   A    
C93   O2    A    
C100  H42   S    
C97   O5    A    
C23   H2    S    
C64   N1    S    
C48   C50   A    
Cr3   O16   S    
C9    H34   S    
C56   C58   A    
C26   H52   S    
C78   C80   A    
Cr6   O2    S    
C89   C93   S    
C61   C62   A    
C65   H4    S    
Cr1   O17   S    
C4    H32   S    
C81   C91   A    
C35   C90   S    
Cr5   O7    S    
C39   H3    S    
C23   C25   S    
C73   C76   A    
C80   C88   A    
C82   C83   A    
C21   C94   S    
C12   C18   S    
C50   H8    S    
C14   C15   S    
C61   H19   S    
C88   H25   S    
C67   C69   A    
C89   C90   T    
C94   O3    A    
C41   C51   S    
C36   C49   A    
C85   H27   S    
C78   H20   S    
