data_mof_unit_17050.cif
_audit_creation_date              2012-10-26T20:31:37-0400
_audit_creation_method            fapswitch 2.2
_symmetry_space_group_name_H-M    P1
_symmetry_Int_Tables_number       1
_space_group_crystal_system       triclinic
_cell_length_a                    16.250153
_cell_length_b                    11.097999
_cell_length_c                    9.650215
_cell_angle_alpha                 91.817795
_cell_angle_beta                  90.213358
_cell_angle_gamma                 95.432227
_cell_volume                      1731.63248703

loop_
_atom_site_label
_atom_site_type_symbol
_atom_type_description
_atom_site_fract_x
_atom_site_fract_y
_atom_site_fract_z
_atom_type_partial_charge
C1    C     C_R   0.499557 0.262220 0.497432 0.624880
C2    C     C_R   0.492827 0.127649 0.493127 -0.022376
C3    C     C_R   0.487936 0.053600 0.368185 0.138596
C4    C     C_R   0.340772 0.494069 0.499407 0.577723
C5    C     C_R   0.463476 0.927219 0.375253 0.244149
C6    C     C_R   0.477969 0.867196 0.499613 -0.028271
C7    C     C_R   0.486197 0.941810 0.618782 -0.091165
C8    C     C_3   0.543552 0.948757 0.740266 0.159514
C9    C     C_3   0.531919 0.083475 0.753853 0.209364
C10   C     C_R   0.528408 0.599582 0.078533 0.145470
C11   C     C_R   0.457237 0.410931 0.073213 0.096215
C12   C     C_3   0.951076 0.445274 0.650867 0.462666
C13   C     C_R   0.452519 0.412432 0.925282 0.393535
C14   C     C_R   0.527096 0.601455 0.933620 0.136193
C15   C     C_3   0.605809 0.683436 0.942225 0.126506
C16   C     C_R   0.492396 0.736027 0.500918 0.557569
C17   C     C_3   0.607281 0.674074 0.098550 -0.185870
C18   C     C_R   0.660266 0.497839 0.499205 0.535910
C19   C     C_3   0.051455 0.446619 0.644305 0.419764
C20   C     C_3   0.047247 0.387463 0.367862 0.399087
C21   C     C_3   0.949431 0.399058 0.375111 0.116664
C22   C     C_1   0.750918 0.492578 0.495380 0.024557
C23   C     C_3   0.920190 0.484282 0.500603 -0.060900
C24   C     C_3   0.085922 0.480306 0.490857 -0.061624
C25   C     C_3   0.912046 0.499022 0.889433 0.096705
C26   C     C_3   0.909418 0.606513 0.992520 -0.348916
C27   C     C_3   0.655163 0.936523 0.574726 0.015196
C28   C     C_3   0.747406 0.968787 0.573372 -0.305364
C29   C     C_3   0.092866 0.289787 0.796716 0.086009
C30   C     C_3   0.093790 0.153093 0.797804 -0.282704
C31   C     C_3   0.709293 0.715781 0.789010 -0.032299
C32   C     C_3   0.787925 0.674145 0.736455 -0.333785
C33   C     C_3   0.154970 0.431339 0.191388 0.040984
C34   C     C_3   0.964393 0.615767 0.470027 0.109895
C35   C     C_3   0.194876 0.559533 0.168718 -0.302070
C36   C     C_3   0.931801 0.813319 0.514976 0.028038
C37   C     C_3   0.941574 0.914940 0.624339 -0.319451
C38   C     C_3   0.059839 0.609544 0.449212 0.123057
C39   C     C_1   0.826701 0.489537 0.495332 0.071663
C40   C     C_1   0.177254 0.479643 0.493729 0.104838
C41   C     C_1   0.251992 0.483697 0.497272 0.071682
C42   C     C_R   0.484532 0.066879 0.618290 -0.044898
Cu1   Cu    Cu3+1 0.500000 0.499980 0.640670 1.131807
Cu2   Cu    Cu3+1 0.500000 0.500020 0.359330 1.050976
H1    H     H_    0.937529 0.640332 0.368509 0.044893
H2    H     H_    0.875111 0.168516 0.856719 0.393766
H3    H     H_    0.082635 0.739077 0.858217 0.370309
H4    H     H_    0.960242 0.445188 0.927249 0.232308
H5    H     H_    0.850757 0.445968 0.895809 0.213197
H6    H     H_    0.844759 0.628299 0.008494 0.139228
H7    H     H_    0.933661 0.583113 0.094831 0.133090
H8    H     H_    0.946594 0.688596 0.958442 0.198353
H9    H     H_    0.411885 0.139745 0.153699 0.365357
H10   H     H_    0.406895 0.802880 0.026820 0.361036
H11   H     H_    0.628046 0.007786 0.517486 0.182673
H12   H     H_    0.515629 0.898571 0.828386 0.141659
H13   H     H_    0.642621 0.848699 0.517159 0.095210
H14   H     H_    0.777275 0.905683 0.638237 0.106944
H15   H     H_    0.770462 0.962481 0.465458 0.138648
H16   H     H_    0.763820 0.061748 0.615526 0.276292
H17   H     H_    0.661835 0.361451 0.857384 0.390728
H18   H     H_    0.047713 0.314530 0.874248 0.211338
H19   H     H_    0.154780 0.328112 0.828899 0.197468
H20   H     H_    0.132308 0.120773 0.712080 0.222950
H21   H     H_    0.119601 0.126650 0.897935 0.158036
H22   H     H_    0.029846 0.109647 0.787613 0.176985
H23   H     H_    0.489478 0.103500 0.839587 0.191570
H24   H     H_    0.266092 0.427638 0.765641 0.386686
H25   H     H_    0.724703 0.806945 0.839950 0.188137
H26   H     H_    0.666823 0.719556 0.699315 0.193941
H27   H     H_    0.785042 0.574931 0.745373 0.232193
H28   H     H_    0.794629 0.698407 0.627228 0.112412
H29   H     H_    0.840683 0.719746 0.795716 0.180244
H30   H     H_    0.155296 0.380430 0.090700 0.229096
H31   H     H_    0.194746 0.383346 0.259613 0.162746
H32   H     H_    0.221355 0.600413 0.265956 0.192706
H33   H     H_    0.246018 0.556918 0.093071 0.201066
H34   H     H_    0.419490 0.345122 0.130564 0.160928
H35   H     H_    0.149304 0.619408 0.130926 0.228754
H36   H     H_    0.028666 0.044110 0.392928 0.356714
H37   H     H_    0.751948 0.326417 0.252673 0.393358
H38   H     H_    0.157435 0.908670 0.355642 0.405789
H39   H     H_    0.867789 0.804247 0.472941 0.085669
H40   H     H_    0.973310 0.839219 0.427586 0.185723
H41   H     H_    0.007045 0.948357 0.639401 0.202950
H42   H     H_    0.909654 0.990471 0.587241 0.177815
H43   H     H_    0.915300 0.886756 0.725167 0.147474
H44   H     H_    0.595045 0.777076 0.915231 0.147122
H45   H     H_    0.656872 0.621543 0.138332 0.166990
H46   H     H_    0.600126 0.760955 0.155408 0.168361
H47   H     H_    0.940943 0.459209 0.287692 0.126912
H48   H     H_    0.064235 0.612201 0.335717 0.137398
N1    N     N_R   0.500530 0.500930 0.147930 -0.274431
N2    N     N_R   0.500530 0.500890 0.852020 -0.224291
O1    O     O_R   0.500000 0.319640 0.618810 -0.416403
O2    O     O_2   0.929770 0.200442 0.602769 -0.231874
O3    O     O_3   0.906268 0.249654 0.855537 -0.567763
O4    O     O_2   0.101572 0.515265 0.916757 -0.391962
O5    O     O_2   0.190008 0.602512 0.739436 -0.239663
O6    O     O_3   0.052526 0.687329 0.785320 -0.407011
O7    O     O_3   0.927307 0.535736 0.750303 -0.521774
O8    O     O_2   0.597462 0.209663 0.231334 -0.227522
O9    O     O_2   0.579695 0.000553 0.148494 -0.232601
O10   O     O_3   0.462110 0.133378 0.097385 -0.472752
O11   O     O_2   0.356062 0.738300 0.287779 -0.258055
O12   O     O_R   0.500010 0.319680 0.381230 -0.482207
O13   O     O_2   0.331170 0.939140 0.213228 -0.254999
O14   O     O_3   0.449462 0.834736 0.095744 -0.517034
O15   O     O_3   0.627274 0.925210 0.714015 -0.563158
O16   O     O_2   0.691650 0.127703 0.841760 -0.200090
O17   O     O_2   0.655123 0.216234 0.621761 -0.283974
O18   O     O_3   0.607687 0.312248 0.852626 -0.474373
O19   O     O_3   0.074445 0.326076 0.661846 -0.522506
O20   O     O_2   0.363317 0.273911 0.719994 -0.287163
O21   O     O_2   0.326529 0.238047 0.958871 -0.298190
O22   O     O_3   0.291723 0.438325 0.858361 -0.535091
O23   O     O_R   0.379430 0.499990 0.618840 -0.456419
O24   O     O_3   0.673212 0.632369 0.881996 -0.564613
O25   O     O_3   0.070845 0.432275 0.232897 -0.599477
O26   O     O_2   0.101027 0.192151 0.223918 -0.266073
O27   O     O_2   0.151544 0.220692 0.460092 -0.285432
O28   O     O_3   0.004073 0.121187 0.411625 -0.417341
O29   O     O_2   0.920835 0.209983 0.187145 -0.158794
O30   O     O_2   0.834134 0.197653 0.393431 -0.207342
O31   O     O_3   0.805240 0.351712 0.207933 -0.537355
O32   O     O_2   0.112642 0.821772 0.603687 -0.214898
O33   O     O_2   0.219298 0.725682 0.482333 -0.236324
O34   O     O_R   0.379440 0.500030 0.381260 -0.507280
O35   O     O_3   0.118579 0.835328 0.338635 -0.564148
O36   O     O_3   0.949447 0.703476 0.574206 -0.445771
O37   O     O_R   0.499990 0.680320 0.618770 -0.524202
O38   O     O_R   0.500000 0.680360 0.381190 -0.474376
O39   O     O_R   0.620560 0.499970 0.618740 -0.461299
O40   O     O_R   0.620570 0.500010 0.381160 -0.511384
O41   O     O_2   0.807024 0.296599 0.664359 -0.240904
S1    S     S_3+6 0.897417 0.295461 0.691889 0.002517
S2    S     S_3+6 0.102023 0.561883 0.773535 0.033741
S3    S     S_3+6 0.535113 0.101769 0.210220 0.077164
S4    S     S_3+6 0.397197 0.857146 0.242559 0.071333
S5    S     S_3+6 0.625662 0.184880 0.764516 0.097206
S6    S     S_3+6 0.359149 0.333487 0.860869 0.011953
S7    S     S_3+6 0.077386 0.229027 0.368673 0.112099
S8    S     S_3+6 0.877247 0.282396 0.293233 0.108451
S9    S     S_3+6 0.129992 0.748830 0.476287 0.051114

loop_
_geom_bond_atom_site_label_1
_geom_bond_atom_site_label_2
_ccdc_geom_bond_type
C29   H19   S    
C30   H20   S    
O18   S5    S    
C8    H12   S    
O21   S6    D    
O16   S5    D    
O41   S1    D    
C32   H28   S    
O35   S9    S    
H36   O28   S    
C12   C23   S    
C9    C42   S    
C19   C24   S    
C37   H41   S    
C36   C37   S    
O31   S8    S    
C26   H8    S    
C26   H6    S    
C5    C6    A    
C9    S5    S    
C27   H11   S    
C4    C41   S    
C19   O19   S    
C36   H39   S    
C38   H48   S    
Cu1   N2    S    
C18   O39   A    
C1    C2    S    
O8    S3    D    
C7    C42   A    
O32   S9    D    
Cu1   O39   S    
C16   O37   A    
Cu2   N1    S    
C24   C40   S    
C33   H31   S    
C31   H26   S    
C20   C24   S    
C8    C9    S    
Cu1   O1    S    
O30   S8    D    
C13   S6    S    
C19   S2    S    
C1    O12   A    
C11   N1    A    
C18   C22   S    
O17   S5    D    
C5    S4    S    
C32   H27   S    
C28   H16   S    
Cu2   O40   S    
C35   H32   S    
C4    O34   A    
O4    S2    D    
O20   S6    D    
C20   S7    S    
C37   H42   S    
C7    C8    S    
C17   H45   S    
C21   S8    S    
O2    S1    D    
C27   H13   S    
O9    S3    D    
C32   H29   S    
C3    S3    S    
C10   N1    A    
C25   C26   S    
C35   H33   S    
H3    O6    S    
Cu1   Cu2   S    
C9    H23   S    
C31   O24   S    
C29   C30   S    
C11   H34   S    
C36   O36   S    
O11   S4    D    
C24   C38   S    
C31   C32   S    
C1    O1    A    
C23   C34   S    
O26   S7    D    
C34   H1    S    
H38   O35   S    
C25   H4    S    
C34   O36   S    
C30   H22   S    
H9    O10   S    
H24   O22   S    
C40   C41   T    
H2    O3    S    
Cu1   O23   S    
C33   O25   S    
C28   H14   S    
C21   C23   S    
C10   C14   A    
C4    O23   A    
O28   S7    S    
C21   H47   S    
C28   H15   S    
C15   C17   S    
C29   O19   S    
C29   H18   S    
Cu2   O34   S    
H37   O31   S    
C34   C38   S    
C38   S9    S    
O27   S7    D    
C37   H43   S    
C17   H46   S    
C36   H40   S    
C3    C5    A    
O14   S4    S    
C6    C7    A    
Cu2   O12   S    
Cu2   O38   S    
C15   O24   S    
H10   O14   S    
C13   N2    A    
Cu1   O37   S    
C2    C3    A    
C12   O7    S    
C26   H7    S    
C11   C13   A    
C25   O7    S    
C2    C42   A    
C23   C39   S    
C22   C39   T    
C12   C19   S    
C35   H35   S    
C33   C35   S    
O10   S3    S    
C18   O40   A    
O33   S9    D    
O13   S4    D    
C16   O38   A    
C25   H5    S    
C30   H21   S    
O6    S2    S    
C6    C16   S    
O22   S6    S    
C33   H30   S    
C31   H25   S    
C20   C21   S    
C27   O15   S    
C12   S1    S    
O29   S8    D    
C27   C28   S    
C14   C15   S    
O5    S2    D    
C10   C17   S    
O3    S1    S    
C8    O15   S    
H17   O18   S    
C14   N2    A    
C20   O25   S    
C15   H44   S    
