data_mof_unit_6148.cif
_audit_creation_date              2012-12-10T17:53:25-0500
_audit_creation_method            fapswitch 2.2
_symmetry_space_group_name_H-M    P1
_symmetry_Int_Tables_number       1
_space_group_crystal_system       triclinic
_cell_length_a                    23.219482
_cell_length_b                    10.735385
_cell_length_c                    9.974975
_cell_angle_alpha                 91.370082
_cell_angle_beta                  89.034904
_cell_angle_gamma                 95.084879
_cell_volume                      2475.6985636

loop_
_atom_site_label
_atom_site_type_symbol
_atom_type_description
_atom_site_fract_x
_atom_site_fract_y
_atom_site_fract_z
_atom_type_partial_charge
C1    C     C_R   0.505109 0.261642 0.497675 0.888349
C2    C     C_R   0.126735 0.617108 0.462648 0.605497
C3    C     C_R   0.239662 0.593927 0.582364 -0.060936
C4    C     C_R   0.389736 0.503232 0.502169 0.939089
C5    C     C_R   0.300305 0.606759 0.563784 -0.161546
C6    C     C_R   0.327336 0.502309 0.511662 -0.122348
C7    C     C_R   0.295263 0.386249 0.501147 -0.188184
C8    C     C_R   0.235080 0.378763 0.511175 0.023578
C9    C     C_R   0.208063 0.492232 0.516281 0.146357
C10   C     C_R   0.758365 0.472503 0.343617 -0.009301
C11   C     C_R   0.698740 0.471099 0.361750 -0.271507
C12   C     C_R   0.970512 0.288192 0.321628 -0.161269
C13   C     C_R   0.673102 0.476563 0.490407 -0.140441
C14   C     C_R   0.708081 0.468254 0.603828 0.418097
C15   C     C_R   0.767660 0.467130 0.586370 -0.111022
C16   C     C_R   0.502543 0.740510 0.500085 1.016620
C17   C     C_R   0.792972 0.472596 0.458157 0.158693
C18   C     C_R   0.581611 0.145857 0.685163 -0.195836
C19   C     C_R   0.622218 0.089938 0.758663 -0.208402
C20   C     C_R   0.634250 0.968086 0.727277 0.441829
C21   C     C_R   0.601005 0.897512 0.631112 0.367189
C22   C     C_R   0.551972 0.946096 0.575993 -0.047843
C23   C     C_R   0.030988 0.297323 0.320105 -0.202276
C24   C     C_R   0.547683 0.075678 0.588327 0.010383
C25   C     C_R   0.516252 0.131589 0.489295 -0.192373
C26   C     C_R   0.498467 0.060935 0.374104 0.383471
C27   C     C_R   0.485251 0.934142 0.387424 -0.147563
C28   C     C_R   0.610466 0.491046 0.498448 0.963224
C29   C     C_R   0.511117 0.875257 0.493697 -0.172850
C30   C     C_R   0.401026 0.375704 0.127569 0.396089
C31   C     C_R   0.351939 0.346553 0.046575 -0.104540
C32   C     C_R   0.359967 0.330488 0.909697 -0.266155
C33   C     C_R   0.413400 0.362360 0.852760 -0.091951
C34   C     C_R   0.062695 0.403559 0.372697 0.021053
C35   C     C_R   0.456586 0.431777 0.925580 0.055580
C36   C     C_R   0.453826 0.435165 0.069845 0.071349
C37   C     C_R   0.542700 0.564648 0.070865 -0.115411
C38   C     C_R   0.540891 0.568188 0.928509 0.443891
C39   C     C_R   0.884496 0.593680 0.474425 0.623116
C40   C     C_R   0.880955 0.378693 0.403041 0.570405
C41   C     C_R   0.941065 0.387665 0.379864 -0.015403
C42   C     C_R   0.973261 0.500310 0.420328 -0.048180
C43   C     C_R   0.945142 0.606161 0.465139 -0.128644
C44   C     C_2   0.940579 0.177358 0.252125 1.084100
C45   C     C_R   0.034006 0.506519 0.417937 -0.010870
C46   C     C_2   0.444705 0.865957 0.290520 1.037413
C47   C     C_2   0.591987 0.635347 0.138234 1.038911
C48   C     C_2   0.292984 0.317773 0.103996 1.036079
C49   C     C_2   0.211236 0.659957 0.696224 0.994666
C50   C     C_2   0.333913 0.727331 0.597951 1.024554
C51   C     C_2   0.203495 0.255463 0.539581 0.995181
C52   C     C_2   0.782820 0.477500 0.204577 1.003869
C53   C     C_R   0.066669 0.617283 0.456269 -0.087551
C54   C     C_R   0.039003 0.723901 0.491832 -0.175318
C55   C     C_R   0.978911 0.719317 0.498608 0.436431
C56   C     C_R   0.122977 0.409582 0.382743 0.580992
Cl1   Cl    Cl    0.680668 0.454749 0.768914 -0.503259
Cl2   Cl    Cl    0.505817 0.121098 0.209592 -0.453520
Cl3   Cl    Cl    0.695379 0.911776 0.799281 -0.362138
Cl4   Cl    Cl    0.633349 0.775299 0.547207 -0.486641
Cl5   Cl    Cl    0.397902 0.275142 0.264112 -0.541260
Cl6   Cl    Cl    0.589249 0.673171 0.842978 -0.430755
Cl7   Cl    Cl    0.950050 0.858380 0.554883 -0.440516
H1    H     H_    0.672199 0.468786 0.273828 0.239214
H2    H     H_    0.983811 0.053494 0.351300 0.332099
H3    H     H_    0.372894 0.748327 0.264118 0.358274
H4    H     H_    0.678579 0.673266 0.145497 0.371204
H5    H     H_    0.213060 0.229929 0.081926 0.386786
H6    H     H_    0.142711 0.661602 0.823617 0.365820
H7    H     H_    0.340486 0.915371 0.584810 0.360143
H8    H     H_    0.202629 0.067304 0.528483 0.383864
H9    H     H_    0.769262 0.444287 0.007048 0.388686
H10   H     H_    0.794892 0.463609 0.673111 0.182707
H11   H     H_    0.581235 0.245460 0.699384 0.219250
H12   H     H_    0.648557 0.145770 0.830297 0.230986
H13   H     H_    0.053335 0.220611 0.278025 0.194853
H14   H     H_    0.325090 0.291730 0.846249 0.208138
H15   H     H_    0.418852 0.336630 0.749766 0.210606
H16   H     H_    0.064054 0.810106 0.520640 0.219817
H17   H     H_    0.317397 0.301768 0.490072 0.210146
N1    N     N_R   0.854523 0.481281 0.446004 -0.352672
N2    N     N_R   0.151809 0.505507 0.455521 -0.317235
N3    N     N_R   0.499460 0.498800 0.142780 -0.158943
N4    N     N_R   0.499440 0.498720 0.857170 -0.153426
O1    O     O_R   0.500000 0.316780 0.614690 -0.673268
O2    O     O_R   0.583850 0.500050 0.614640 -0.530453
O3    O     O_R   0.583840 0.500030 0.385310 -0.634001
O4    O     O_2   0.854994 0.691775 0.511717 -0.415158
O5    O     O_2   0.904610 0.192016 0.167334 -0.479358
O6    O     O_R   0.954626 0.056198 0.277330 -0.699033
O7    O     O_2   0.454027 0.871508 0.169730 -0.526301
O8    O     O_R   0.396615 0.792115 0.338626 -0.816083
O9    O     O_2   0.583908 0.717210 0.221396 -0.552596
O10   O     O_R   0.648363 0.615831 0.096856 -0.716335
O11   O     O_2   0.279912 0.364256 0.211902 -0.576175
O12   O     O_2   0.848860 0.268594 0.386393 -0.490027
O13   O     O_R   0.251662 0.241180 0.032699 -0.764794
O14   O     O_2   0.234613 0.754944 0.748646 -0.564282
O15   O     O_R   0.157732 0.609734 0.746529 -0.788960
O16   O     O_2   0.377797 0.729587 0.664152 -0.606914
O17   O     O_R   0.314273 0.839264 0.555795 -0.692538
O18   O     O_2   0.156666 0.250269 0.598191 -0.593940
O19   O     O_R   0.228029 0.145033 0.502716 -0.743995
O20   O     O_2   0.832671 0.519935 0.183421 -0.590682
O21   O     O_R   0.748086 0.435533 0.096515 -0.723003
O22   O     O_2   0.152049 0.323454 0.316328 -0.543924
O23   O     O_2   0.159231 0.727392 0.471548 -0.530343
O24   O     O_R   0.500000 0.316750 0.385360 -0.522573
O25   O     O_R   0.416160 0.499970 0.614690 -0.628789
O26   O     O_R   0.416150 0.499950 0.385360 -0.575683
O27   O     O_R   0.500000 0.683250 0.614640 -0.545793
O28   O     O_R   0.500000 0.683220 0.385310 -0.591382
Zn1   Zn    Zn3+2 0.500000 0.500020 0.653130 1.051265
Zn2   Zn    Zn3+2 0.500000 0.499980 0.346870 1.064559

loop_
_geom_bond_atom_site_label_1
_geom_bond_atom_site_label_2
_ccdc_geom_bond_type
C4    O25   A    
C34   C56   A    
N4    Zn1   S    
C22   C29   A    
C27   C29   A    
C41   C42   A    
C35   C36   A    
C23   H13   S    
C10   C52   S    
O28   Zn2   S    
C3    C49   S    
H7    O17   S    
C7    C8    A    
C53   C54   A    
C51   O18   D    
C48   O13   S    
C12   C23   A    
C26   C27   A    
C37   C38   A    
O2    Zn1   S    
C18   C24   A    
C48   O11   D    
C30   C31   A    
C33   H15   S    
C46   O8    S    
C10   C17   A    
C51   O19   S    
C2    O23   S    
C18   C19   A    
O24   Zn2   S    
H5    O13   S    
O3    Zn2   S    
H8    O19   S    
C49   O14   D    
C19   C20   A    
C8    C9    A    
C55   Cl7   S    
H4    O10   S    
C13   C28   S    
C37   C47   S    
O26   Zn2   S    
O25   Zn1   S    
C9    N2    S    
C32   H14   S    
C45   C53   A    
C18   H11   S    
C21   C22   A    
C1    C25   S    
N3    Zn2   S    
C39   O4    S    
C40   O12   S    
C1    O1    A    
H2    O6    S    
C24   C25   A    
C39   N1    A    
C21   Cl4   S    
C4    C6    S    
C11   H1    S    
C39   C43   A    
C46   O7    D    
C16   C29   S    
C42   C45   A    
C12   C41   A    
C3    C9    A    
C49   O15   S    
C31   C32   A    
C23   C34   A    
C28   O3    A    
C47   O9    D    
O27   Zn1   S    
C34   C45   A    
H9    O21   S    
C20   Cl3   S    
C26   Cl2   S    
C8    C51   S    
C56   O22   S    
H6    O15   S    
C27   C46   S    
C43   C55   A    
C40   C41   A    
C15   H10   S    
C52   O21   S    
C31   C48   S    
C28   O2    A    
C22   C24   A    
C5    C50   S    
C2    N2    A    
C42   C43   A    
C44   O6    S    
C16   O28   A    
C54   H16   S    
C15   C17   A    
C14   Cl1   S    
C4    O26   A    
C54   C55   A    
C52   O20   D    
C38   N4    A    
C40   N1    A    
C3    C5    A    
C2    C53   A    
H3    O8    S    
C35   N4    A    
C56   N2    A    
C6    C7    A    
C50   O16   D    
C30   C36   A    
C32   C33   A    
O1    Zn1   S    
C25   C26   A    
C12   C44   S    
C11   C13   A    
C5    C6    A    
C19   H12   S    
C33   C35   A    
C47   O10   S    
C17   N1    S    
C10   C11   A    
C1    O24   A    
C20   C21   A    
C50   O17   S    
C30   Cl5   S    
C14   C15   A    
C37   N3    A    
C36   N3    A    
C13   C14   A    
C44   O5    D    
C16   O27   A    
C7    H17   S    
C38   Cl6   S    
