data_mof_unit_13094.cif
_audit_creation_date              2012-12-11T17:44:02-0500
_audit_creation_method            fapswitch 2.2
_symmetry_space_group_name_H-M    P1
_symmetry_Int_Tables_number       1
_space_group_crystal_system       triclinic
_cell_length_a                    20.318207
_cell_length_b                    22.653208
_cell_length_c                    6.931903
_cell_angle_alpha                 89.999718
_cell_angle_beta                  86.230282
_cell_angle_gamma                 90.000102
_cell_volume                      3183.66155808

loop_
_atom_site_label
_atom_site_type_symbol
_atom_type_description
_atom_site_fract_x
_atom_site_fract_y
_atom_site_fract_z
_atom_type_partial_charge
O1    O     O_R   0.751270 0.447300 0.600030 -0.541248
O2    O     O_R   0.248730 0.947300 0.399970 -0.541248
O3    O     O_R   0.613530 0.440160 0.952150 -0.535416
O4    O     O_R   0.386470 0.940160 0.047850 -0.535415
O5    O     O_R   0.613050 0.552700 0.122560 -0.539476
O6    O     O_R   0.386950 0.052700 0.877440 -0.539480
C1    C     C_R   0.591448 0.425436 0.787869 0.706234
C2    C     C_R   0.408551 0.925436 0.212132 0.706226
O7    O     O_R   0.750780 0.440350 0.929820 -0.537310
O8    O     O_R   0.249220 0.940350 0.070180 -0.537310
O9    O     O_R   0.751280 0.552900 0.100070 -0.508269
O10   O     O_R   0.248720 0.052900 0.899930 -0.508270
C3    C     C_R   0.775248 0.427441 0.756044 0.778136
C4    C     C_R   0.224752 0.927442 0.243955 0.778126
O11   O     O_R   0.613040 0.447100 0.622520 -0.543133
O12   O     O_R   0.386960 0.947100 0.377480 -0.543133
O13   O     O_3   0.682160 0.536920 0.777780 -0.357206
O14   O     O_3   0.317840 0.036920 0.222220 -0.357204
V1    V     V_3+5 0.682160 0.493150 0.052630 1.492197
V2    V     V_3+5 0.317840 0.993150 0.947370 1.492198
O15   O     O_R   0.750790 0.559840 0.429870 -0.537279
O16   O     O_R   0.249210 0.059840 0.570130 -0.537278
C5    C     C_R   0.775122 0.572843 0.256223 0.743552
C6    C     C_R   0.224878 0.072843 0.743777 0.743551
O17   O     O_R   0.613540 0.559650 0.452200 -0.542249
O18   O     O_R   0.386460 0.059650 0.547800 -0.542246
C7    C     C_R   0.591473 0.574355 0.287645 0.699784
C8    C     C_R   0.408527 0.074355 0.712354 0.699782
V3    V     V_3+5 0.682160 0.506850 0.552630 1.469339
V4    V     V_3+5 0.317840 0.006850 0.447370 1.469338
O19   O     O_3   0.682150 0.463080 0.277610 -0.375870
O20   O     O_3   0.317850 0.963080 0.722390 -0.375867
C9    C     C_R   0.576817 0.857917 0.122743 -0.157584
C10   C     C_R   0.423191 0.357910 0.877373 -0.157589
H1    H     H_    0.535749 0.944537 0.097324 0.114333
H2    H     H_    0.464260 0.444529 0.902793 0.114331
H3    H     H_    0.667237 0.773784 0.120515 0.124907
H4    H     H_    0.332774 0.273773 0.879665 0.124908
H5    H     H_    0.625996 0.872843 0.076108 0.121346
H6    H     H_    0.374017 0.372832 0.924067 0.121346
C11   C     C_R   0.462600 0.881853 0.206628 -0.067804
C12   C     C_R   0.537399 0.381853 0.793381 -0.067812
C13   C     C_R   0.470293 0.593226 0.325239 0.079295
C14   C     C_R   0.529706 0.093230 0.674680 0.079293
C15   C     C_R   0.416381 0.630282 0.304960 -0.125816
C16   C     C_R   0.583620 0.130287 0.694913 -0.125820
C17   C     C_R   0.424208 0.689845 0.257812 0.346616
C18   C     C_R   0.575795 0.189848 0.742087 0.346614
C19   C     C_R   0.488161 0.715996 0.245806 -0.009997
C20   C     C_R   0.511841 0.215996 0.754169 -0.009999
C21   C     C_R   0.543813 0.676986 0.248663 -0.015948
C22   C     C_R   0.456189 0.176984 0.751357 -0.015950
C23   C     C_R   0.499751 0.778376 0.220856 0.107256
C24   C     C_R   0.500251 0.278375 0.779149 0.107255
C25   C     C_R   0.564699 0.798191 0.166340 0.131254
C26   C     C_R   0.435307 0.298186 0.833740 0.131256
C27   C     C_R   0.617456 0.758630 0.158562 -0.189924
C28   C     C_R   0.382551 0.258622 0.841560 -0.189925
C29   C     C_R   0.607607 0.699600 0.205510 -0.153640
C30   C     C_R   0.392399 0.199595 0.794582 -0.153648
C31   C     C_R   0.450393 0.822388 0.255308 -0.151066
C32   C     C_R   0.549604 0.322390 0.744662 -0.151078
C33   C     C_R   0.525733 0.898984 0.136960 -0.168408
C34   C     C_R   0.474273 0.398979 0.863123 -0.168399
C35   C     C_R   0.534749 0.615696 0.289593 -0.087148
C36   C     C_R   0.465251 0.115696 0.710397 -0.087150
H7    H     H_    0.402823 0.812127 0.324605 0.171816
H8    H     H_    0.597167 0.312134 0.675315 0.171821
H9    H     H_    0.367108 0.611673 0.317334 0.174987
H10   H     H_    0.632892 0.111680 0.682482 0.174990
H11   H     H_    0.650719 0.671462 0.203112 0.103290
H12   H     H_    0.349287 0.171455 0.797017 0.103304
C37   C     C_R   0.167247 0.886080 0.265915 -0.050009
C38   C     C_R   0.832751 0.386078 0.734082 -0.049992
C39   C     C_R   0.155063 0.847507 0.112823 -0.220329
C40   C     C_R   0.844946 0.347515 0.887194 -0.220320
C41   C     C_R   0.101746 0.808201 0.126024 -0.123584
C42   C     C_R   0.898262 0.308209 0.873992 -0.123590
C43   C     C_R   0.058675 0.806369 0.293960 0.386709
C44   C     C_R   0.941322 0.306364 0.706032 0.386723
C45   C     C_R   0.070053 0.844838 0.445726 -0.166786
C46   C     C_R   0.929934 0.344823 0.554245 -0.166783
C47   C     C_R   0.123143 0.884865 0.434833 0.114275
C48   C     C_R   0.876845 0.384851 0.565140 0.114277
C49   C     C_R   0.897686 0.692640 0.372716 -0.128610
C50   C     C_R   0.102312 0.192638 0.627283 -0.128609
C51   C     C_R   0.844646 0.652992 0.387759 -0.234511
C52   C     C_R   0.155351 0.152989 0.612237 -0.234509
C53   C     C_R   0.939992 0.694902 0.202918 0.361937
C54   C     C_R   0.060010 0.194904 0.797090 0.361938
N1    N     N_2   0.003468 0.767221 0.318139 -0.292906
N2    N     N_2   0.996526 0.267215 0.681852 -0.292904
N3    N     N_2   0.995174 0.734066 0.177779 -0.284160
N4    N     N_2   0.004831 0.234070 0.822232 -0.284162
C55   C     C_R   0.832111 0.614564 0.234675 -0.135180
C56   C     C_R   0.167889 0.114564 0.765326 -0.135183
H13   H     H_    0.813024 0.652735 0.519791 0.179736
H14   H     H_    0.186970 0.152730 0.480199 0.179749
H15   H     H_    0.905300 0.721331 0.494132 0.154196
H16   H     H_    0.094696 0.221327 0.505863 0.154196
H17   H     H_    0.036592 0.843558 0.574087 0.130600
H18   H     H_    0.963386 0.343533 0.425866 0.130595
C57   C     C_R   0.875276 0.616512 0.064979 0.351625
C58   C     C_R   0.124728 0.116515 0.935030 0.351626
C59   C     C_R   0.927951 0.656555 0.051229 -0.211470
C60   C     C_R   0.072054 0.156560 0.948784 -0.211474
H19   H     H_    0.094594 0.779326 0.004741 0.155061
H20   H     H_    0.905422 0.279342 0.995292 0.155053
H21   H     H_    0.960503 0.657471 0.920985 0.168780
H22   H     H_    0.039506 0.157479 0.079035 0.168778
H23   H     H_    0.187322 0.847306 0.982077 0.153740
H24   H     H_    0.812696 0.347323 0.017958 0.153726
C61   C     C_3   0.129602 0.926377 0.603074 -0.677033
H25   H     H_    0.087240 0.922532 0.712120 0.198890
H26   H     H_    0.174813 0.915921 0.677846 0.206251
H27   H     H_    0.131178 0.972800 0.551463 0.227526
C62   C     C_3   0.870376 0.426351 0.396870 -0.677036
H28   H     H_    0.912729 0.422494 0.287795 0.198883
H29   H     H_    0.825158 0.415892 0.322141 0.206252
H30   H     H_    0.868810 0.472778 0.448441 0.227512
Cl1   Cl    Cl    0.868566 0.568170 0.867596 -0.677730
Cl2   Cl    Cl    0.131441 0.068176 0.132421 -0.677750
C63   C     C_3   0.456046 0.529203 0.373369 -0.756445
H31   H     H_    0.500905 0.502199 0.387786 0.204035
H32   H     H_    0.425905 0.526462 0.512656 0.212871
H33   H     H_    0.427839 0.509157 0.258081 0.204926
C64   C     C_3   0.543951 0.029208 0.626516 -0.756440
H34   H     H_    0.499090 0.002201 0.612168 0.204038
H35   H     H_    0.574068 0.026473 0.487187 0.212862
H36   H     H_    0.572182 0.009162 0.741750 0.204937
Cl3   Cl    Cl    0.352773 0.723649 0.176247 -0.671937
Cl4   Cl    Cl    0.647240 0.223653 0.823587 -0.671929

loop_
_geom_bond_atom_site_label_1
_geom_bond_atom_site_label_2
_ccdc_geom_bond_type
C9    C25   A    
C52   C56   A    
C14   C64   S    
C10   C26   A    
O11   V3    S    
C12   C34   A    
O13   V3    S    
C47   C61   S    
C14   C36   A    
C11   C31   A    
O4    C2    A    
V1    O19   S    
C58   C60   A    
C63   H31   S    
C17   C19   A    
C45   H17   S    
O9    V1    S    
C9    H5    S    
C38   C40   A    
C5    C55   S    
C10   H6    S    
C40   C42   A    
O3    C1    A    
C6    C56   S    
V2    O20   S    
C42   C44   A    
C63   H32   S    
C58   Cl2   S    
C30   H12   S    
C28   C30   A    
C50   C52   A    
C42   H20   S    
C21   C35   A    
C15   C17   A    
O7    C3    A    
C22   C30   A    
O5    C7    A    
C23   C31   A    
O7    V1    S    
O6    C8    A    
O8    V2    S    
C48   C62   S    
C19   C21   A    
C51   C55   A    
C20   C22   A    
O3    V1    S    
O14   V4    S    
C50   H16   S    
C12   C32   A    
C43   N1    S    
C9    C33   A    
C61   H27   S    
C18   C20   A    
C2    O12   A    
H4    C28   S    
C40   H24   S    
C37   C39   A    
C64   H35   S    
C10   C34   A    
C45   C47   A    
C14   C16   A    
C54   N4    S    
C16   C18   A    
C23   C25   A    
O15   C5    A    
O17   V3    S    
C24   C26   A    
C49   C51   A    
C15   H9    S    
C4    C37   S    
C41   H19   S    
C2    C11   S    
C54   C60   A    
C44   C46   A    
C50   C54   A    
C62   H30   S    
C43   C45   A    
C49   C53   A    
C63   H33   S    
C1    O11   A    
C24   C32   A    
O15   V3    S    
C17   Cl3   S    
C44   N2    S    
C8    C36   S    
C1    C12   S    
C7    C35   S    
N1    N3    D    
C55   C57   A    
C13   C15   A    
C31   H7    S    
C13   C35   A    
O10   V2    S    
O1    V3    S    
C46   H18   S    
C41   C43   A    
C57   C59   A    
C20   C24   A    
C39   C41   A    
O18   V4    S    
C46   C48   A    
C25   C27   A    
O8    C4    A    
O16   C6    A    
O1    C3    A    
C11   C33   A    
C64   H34   S    
C57   Cl1   S    
C13   C63   S    
C22   C36   A    
C61   H25   S    
C60   H22   S    
C56   C58   A    
C59   H21   S    
O16   V4    S    
O18   C8    A    
C38   C48   A    
O5    V1    S    
O17   C7    A    
O6    V2    S    
O10   C6    A    
C39   H23   S    
C32   H8    S    
O2    V4    S    
C62   H29   S    
C64   H36   S    
V3    O19   S    
C62   H28   S    
V4    O20   S    
C49   H15   S    
N2    N4    D    
C19   C23   A    
O9    C5    A    
O13   V1    S    
C26   C28   A    
O14   V2    S    
C53   N3    S    
O2    C4    A    
H3    C27   S    
C16   H10   S    
C27   C29   A    
O4    V2    S    
C21   C29   A    
C3    C38   S    
C53   C59   A    
C18   Cl4   S    
H1    C33   S    
C61   H26   S    
H2    C34   S    
O12   V4    S    
C37   C47   A    
C52   H14   S    
C29   H11   S    
C51   H13   S    
