data_mof_unit_17641.cif
_audit_creation_date              2012-12-11T14:39:33-0500
_audit_creation_method            fapswitch 2.2
_symmetry_space_group_name_H-M    P1
_symmetry_Int_Tables_number       1
_space_group_crystal_system       triclinic
_cell_length_a                    7.241717
_cell_length_b                    13.858169
_cell_length_c                    16.476488
_cell_angle_alpha                 90.064465
_cell_angle_beta                  97.263337
_cell_angle_gamma                 89.61029
_cell_volume                      1640.22321172

loop_
_atom_site_label
_atom_site_type_symbol
_atom_type_description
_atom_site_fract_x
_atom_site_fract_y
_atom_site_fract_z
_atom_type_partial_charge
O1    O     O_R   0.525340 0.338340 0.164530 -0.542061
O2    O     O_R   0.474660 0.661660 0.835470 -0.540158
O3    O     O_R   0.974660 0.838340 0.835470 -0.544013
O4    O     O_R   0.025340 0.161660 0.164530 -0.534660
O5    O     O_R   0.253520 0.352000 0.336710 -0.531605
O6    O     O_R   0.746480 0.648000 0.663290 -0.535758
O7    O     O_R   0.246480 0.852000 0.663290 -0.542151
O8    O     O_R   0.753520 0.148000 0.336710 -0.543927
O9    O     O_R   0.083330 0.168380 0.337300 -0.537295
O10   O     O_R   0.916670 0.831620 0.662700 -0.538862
O11   O     O_R   0.416670 0.668380 0.662700 -0.533004
O12   O     O_R   0.583330 0.331620 0.337300 -0.538863
C1    C     C_R   0.431405 0.371748 0.361520 0.777097
C2    C     C_R   0.568488 0.627449 0.639214 0.783743
C3    C     C_R   0.067204 0.872300 0.638840 0.687633
C4    C     C_R   0.933031 0.127927 0.360936 0.757135
O13   O     O_R   0.195840 0.349670 0.165140 -0.537564
O14   O     O_R   0.804160 0.650330 0.834860 -0.538248
O15   O     O_R   0.304160 0.849670 0.834860 -0.546813
O16   O     O_R   0.695840 0.150330 0.165140 -0.546480
C5    C     C_R   0.356479 0.370785 0.136723 0.763482
C6    C     C_R   0.643466 0.629045 0.863159 0.770234
C7    C     C_R   0.143052 0.870754 0.863132 0.741424
C8    C     C_R   0.857341 0.128189 0.137673 0.783724
O17   O     O_3   0.387830 0.193120 0.250910 -0.383535
O18   O     O_3   0.612170 0.806880 0.749090 -0.382959
O19   O     O_3   0.112170 0.693120 0.749090 -0.374900
O20   O     O_3   0.887830 0.306880 0.250910 -0.379904
V1    V     V_3+5 0.113010 0.264540 0.250910 1.404191
V2    V     V_3+5 0.886990 0.735460 0.749090 1.390215
V3    V     V_3+5 0.386990 0.764540 0.749090 1.385662
V4    V     V_3+5 0.613010 0.235460 0.250910 1.389060
C9    C     C_R   0.974181 0.204377 0.520125 -0.165961
C10   C     C_R   0.998101 0.799909 0.477602 -0.167239
C11   C     C_R   0.528422 0.700922 0.479761 -0.166731
C12   C     C_R   0.470370 0.297692 0.521303 -0.164207
C13   C     C_R   0.994568 0.247841 0.595885 -0.218694
C14   C     C_R   0.971870 0.760264 0.399687 -0.200508
C15   C     C_R   0.504291 0.743186 0.403465 -0.198975
C16   C     C_R   0.491197 0.255388 0.597637 -0.195106
C17   C     C_R   0.028458 0.193885 0.667290 0.199340
C18   C     C_R   0.968335 0.817997 0.330120 0.151089
C19   C     C_R   0.459675 0.688839 0.332632 0.150298
C20   C     C_R   0.530608 0.309724 0.668854 0.144759
C21   C     C_R   0.040080 0.091424 0.661305 0.170130
C22   C     C_R   0.001641 0.918688 0.341246 0.173162
C23   C     C_R   0.435327 0.587077 0.340728 0.176416
C24   C     C_R   0.551881 0.411914 0.661104 0.172283
C25   C     C_R   0.021223 0.044052 0.582139 -0.022295
C26   C     C_R   0.992412 0.961515 0.420162 -0.009752
C27   C     C_R   0.469975 0.541324 0.419782 0.028113
C28   C     C_R   0.524803 0.457433 0.581677 0.027837
C29   C     C_R   0.988669 0.103337 0.511143 0.024871
C30   C     C_R   0.005883 0.900947 0.489778 0.029079
C31   C     C_R   0.511875 0.600320 0.490020 -0.004147
C32   C     C_R   0.486224 0.398310 0.511221 -0.004061
C33   C     C_R   0.029903 0.941121 0.570138 -0.132009
C34   C     C_R   0.973262 0.062560 0.431528 -0.147778
C35   C     C_R   0.462655 0.439101 0.431366 -0.137474
C36   C     C_R   0.535887 0.559608 0.569843 -0.137953
H1    H     H_    0.948703 0.252565 0.468261 0.130194
H2    H     H_    0.004921 0.749640 0.528066 0.135004
H3    H     H_    0.562198 0.749529 0.530810 0.128181
H4    H     H_    0.439837 0.249110 0.470002 0.125098
H5    H     H_    0.984165 0.325869 0.598726 0.134627
H6    H     H_    0.955937 0.682752 0.393721 0.134763
H7    H     H_    0.520029 0.820810 0.399882 0.131177
H8    H     H_    0.476748 0.177668 0.600956 0.130702
H9    H     H_    0.137478 0.066396 0.056492 0.159255
H10   H     H_    0.862858 0.932976 0.944047 0.158365
H11   H     H_    0.362447 0.566389 0.942851 0.158798
H12   H     H_    0.637334 0.433067 0.056752 0.158460
C37   C     C_2   0.149920 0.941002 0.931363 -0.313184
C38   C     C_2   0.850519 0.058070 0.069372 -0.334514
C39   C     C_2   0.349148 0.440856 0.068116 -0.353638
C40   C     C_2   0.650714 0.558780 0.931617 -0.351821
C41   C     C_2   0.996469 0.964991 0.966006 -0.137320
C42   C     C_2   0.003887 0.034349 0.034552 -0.137870
C43   C     C_2   0.503251 0.464974 0.034094 -0.132912
C44   C     C_2   0.496547 0.534519 0.965535 -0.134338
H13   H     H_    0.717443 0.025903 0.046710 0.124338
H14   H     H_    0.283066 0.973056 0.954076 0.122684
H15   H     H_    0.784342 0.526791 0.954912 0.127304
H16   H     H_    0.215529 0.472863 0.044836 0.128189
C45   C     C_3   0.927946 0.765819 0.247852 -0.378659
C46   C     C_3   0.853347 0.826791 0.172862 -0.742008
H17   H     H_    0.768646 0.888949 0.189868 0.239894
H18   H     H_    0.968213 0.851978 0.139847 0.231236
H19   H     H_    0.764946 0.781486 0.128261 0.213169
H20   H     H_    0.049722 0.723022 0.234683 0.181148
H21   H     H_    0.821231 0.710280 0.254524 0.187450
C47   C     C_3   0.051922 0.254460 0.745758 -0.361681
C48   C     C_3   0.078405 0.203912 0.828981 -0.691255
H22   H     H_    0.957592 0.157450 0.836653 0.249502
H23   H     H_    0.209909 0.161500 0.837384 0.243225
H24   H     H_    0.088072 0.259332 0.878058 0.194298
H25   H     H_    0.171184 0.303563 0.743134 0.181560
H26   H     H_    0.929063 0.302712 0.744970 0.174965
C49   C     C_3   0.552905 0.248315 0.747090 -0.367395
C50   C     C_3   0.561632 0.295289 0.831554 -0.769942
H27   H     H_    0.692794 0.335211 0.848105 0.228256
H28   H     H_    0.437601 0.341064 0.836556 0.232578
H29   H     H_    0.560894 0.237329 0.878029 0.214856
H30   H     H_    0.434020 0.197578 0.742781 0.190450
H31   H     H_    0.676866 0.201150 0.746570 0.192502
C51   C     C_3   0.434995 0.749514 0.254274 -0.369114
C52   C     C_3   0.424676 0.701573 0.170150 -0.773893
H32   H     H_    0.547939 0.654911 0.165742 0.230899
H33   H     H_    0.293163 0.661852 0.154052 0.224726
H34   H     H_    0.425163 0.758863 0.123094 0.216242
H35   H     H_    0.313019 0.797096 0.255346 0.176387
H36   H     H_    0.552391 0.800686 0.257937 0.195200
N1    N     N_3   0.069154 0.038313 0.735770 -0.697052
H37   H     H_    0.197479 0.002871 0.740354 0.231069
H38   H     H_    0.956502 0.992834 0.739808 0.236596
N2    N     N_3   0.073327 0.974303 0.278527 -0.665104
H39   H     H_    0.195060 0.007075 0.306007 0.224246
H40   H     H_    0.127640 0.929268 0.236961 0.227674
N3    N     N_3   0.363688 0.530832 0.271459 -0.685545
H41   H     H_    0.234333 0.558073 0.246259 0.230837
H42   H     H_    0.460595 0.528224 0.229920 0.232688
N4    N     N_3   0.607896 0.469483 0.731603 -0.692039
H43   H     H_    0.737240 0.446190 0.760164 0.228569
H44   H     H_    0.504510 0.469306 0.770168 0.236598

loop_
_geom_bond_atom_site_label_1
_geom_bond_atom_site_label_2
_ccdc_geom_bond_type
O1    C5    A    
C48   H22   S    
C29   C34   A    
O13   V1    S    
O3    C7    A    
C6    C40   S    
O15   V3    S    
C45   H21   S    
C47   H26   S    
C51   H36   S    
C41   C42   S    
C26   C30   A    
H10   C41   S    
O20   V1    S    
O9    C4    A    
C14   C18   A    
H12   C43   S    
O10   C3    A    
C24   N4    S    
O4    C8    A    
C20   C49   S    
C46   H18   S    
C39   H16   S    
C51   C52   S    
C10   H2    S    
C25   C33   A    
N2    H39   S    
C18   C22   A    
C50   H27   S    
C28   C36   A    
C28   C32   A    
O16   C8    A    
C13   H5    S    
O2    C6    A    
C52   H32   S    
O14   V2    S    
O5    C1    A    
O4    V1    S    
O9    V1    S    
O17   V4    S    
O7    C3    A    
C49   H30   S    
O11   V3    S    
O18   V3    S    
C48   H23   S    
O14   C6    A    
C31   C36   A    
O12   V4    S    
O19   V2    S    
C3    C33   S    
H9    C42   S    
C7    C37   S    
C40   H15   S    
H11   C44   S    
C47   H25   S    
O5    V1    S    
C51   H35   S    
N3    H42   S    
C9    C29   A    
C49   H31   S    
O7    V3    S    
C11   C31   A    
C26   C34   A    
C14   H6    S    
C12   C16   A    
C24   C28   A    
O15   C7    A    
C10   C14   A    
C15   C19   A    
C45   C46   S    
C50   H29   S    
O13   C5    A    
O2    V3    S    
C19   C51   S    
O8    V4    S    
O3    V2    S    
C11   C15   A    
C12   C32   A    
O6    C2    A    
O10   V2    S    
C49   C50   S    
C21   C25   A    
N3    H41   S    
C50   H28   S    
C18   C45   S    
C4    C34   S    
O6    V2    S    
C10   C30   A    
C48   H24   S    
C16   H8    S    
C52   H34   S    
C27   C35   A    
C38   H13   S    
N4    H44   S    
C37   H14   S    
N1    H37   S    
O16   V4    S    
C5    C39   S    
C37   C41   D    
O8    C4    A    
C46   H17   S    
C15   H7    S    
C40   C44   D    
C46   H19   S    
C23   C27   A    
C45   H20   S    
C1    C35   S    
C2    C36   S    
C22   C26   A    
C32   C35   A    
C22   N2    S    
C8    C38   S    
C52   H33   S    
C19   C23   A    
C25   C29   A    
C23   N3    S    
C47   C48   S    
O11   C2    A    
N2    H40   S    
C27   C31   A    
O1    V4    S    
C13   C17   A    
C9    C13   A    
C43   C44   S    
C21   N1    S    
C16   C20   A    
C17   C47   S    
O12   C1    A    
C9    H1    S    
C38   C42   D    
C17   C21   A    
C11   H3    S    
N4    H43   S    
C12   H4    S    
C39   C43   D    
C20   C24   A    
N1    H38   S    
C30   C33   A    
