data_mof_unit_18394.cif
_audit_creation_date              2012-10-26T19:09:54-0400
_audit_creation_method            fapswitch 2.2
_symmetry_space_group_name_H-M    P1
_symmetry_Int_Tables_number       1
_space_group_crystal_system       triclinic
_cell_length_a                    16.378718
_cell_length_b                    13.97043
_cell_length_c                    9.693291
_cell_angle_alpha                 90.431495
_cell_angle_beta                  90.294422
_cell_angle_gamma                 89.716673
_cell_volume                      2217.87799783

loop_
_atom_site_label
_atom_site_type_symbol
_atom_type_description
_atom_site_fract_x
_atom_site_fract_y
_atom_site_fract_z
_atom_type_partial_charge
C1    C     C_R   0.118535 0.378751 0.500672 0.539328
C2    C     C_R   0.878923 0.617515 0.500657 0.540171
C3    C     C_R   0.379756 0.880432 0.499361 0.533268
C4    C     C_R   0.379552 0.118775 0.500993 0.538564
C5    C     C_3   0.814723 0.245622 0.624766 -0.238149
C6    C     C_3   0.811975 0.244990 0.368181 -0.240322
C7    C     C_3   0.840365 0.788675 0.517216 -0.236381
C8    C     C_3   0.755363 0.671324 0.371815 -0.230062
C9    C     C_3   0.312085 0.748531 0.627340 -0.238640
C10   C     C_3   0.311386 0.744484 0.371260 -0.242014
C11   C     C_3   0.291998 0.224000 0.653619 -0.230226
C12   C     C_R   0.118042 0.621633 0.500201 0.538258
C13   C     C_3   0.326903 0.272868 0.413243 -0.245992
C14   C     C_3   0.241555 0.676863 0.627886 -0.229475
C15   C     C_3   0.238974 0.675566 0.368981 -0.226316
C16   C     C_3   0.215550 0.288042 0.654343 -0.227403
C17   C     C_3   0.260377 0.350083 0.425287 -0.235928
C18   C     C_3   0.745508 0.172129 0.623005 -0.229135
C19   C     C_3   0.738825 0.176617 0.365133 -0.225749
C20   C     C_3   0.768988 0.861091 0.512160 -0.226227
C21   C     C_3   0.687065 0.746425 0.367646 -0.240783
C22   C     C_3   0.727728 0.365905 0.500454 -0.224451
C23   C     C_R   0.618214 0.877995 0.500201 0.537467
C24   C     C_3   0.751571 0.666166 0.628257 -0.226206
C25   C     C_3   0.226399 0.867163 0.497642 -0.225777
C26   C     C_3   0.230192 0.137168 0.451019 -0.234407
C27   C     C_3   0.810101 0.311145 0.497591 0.054706
C28   C     C_3   0.808381 0.684567 0.503489 0.063000
C29   C     C_3   0.308810 0.812337 0.498374 0.053250
C30   C     C_3   0.308835 0.186321 0.505194 0.058610
C31   C     C_3   0.186347 0.691129 0.499281 0.061435
C32   C     C_3   0.187013 0.308856 0.503856 0.060224
C33   C     C_3   0.687826 0.189654 0.498226 0.061439
C34   C     C_R   0.618888 0.120713 0.499998 0.538027
C35   C     C_3   0.686770 0.807446 0.501775 0.059195
C36   C     C_3   0.154102 0.795811 0.495573 -0.238164
C37   C     C_3   0.161170 0.212412 0.436121 -0.243682
C38   C     C_3   0.655647 0.294517 0.498858 -0.238098
C39   C     C_3   0.679854 0.738521 0.626903 -0.234880
C40   C     C_3   0.950822 0.581239 0.082768 0.040988
C41   C     C_3   0.957349 0.585525 0.916258 0.044527
C42   C     C_3   0.974207 0.405160 0.082102 0.042015
C43   C     C_3   0.964205 0.409568 0.915489 0.027634
C44   C     C_3   0.455385 0.085249 0.083155 0.039839
C45   C     C_3   0.084538 0.516388 0.082260 -0.096760
C46   C     C_3   0.460376 0.087432 0.916509 0.047569
C47   C     C_3   0.470197 0.906780 0.081551 0.039691
C48   C     C_3   0.461860 0.910810 0.914658 0.030065
C49   C     C_3   0.968978 0.682587 0.150338 -0.205533
C50   C     C_3   0.902949 0.758613 0.119275 -0.476054
C51   C     C_3   0.984763 0.684846 0.849163 -0.214016
C52   C     C_3   0.063259 0.739981 0.889281 -0.450184
C53   C     C_3   0.031816 0.319324 0.131316 -0.206219
C54   C     C_3   0.990555 0.242569 0.215946 -0.446908
C55   C     C_3   0.994302 0.314419 0.839001 -0.224630
C56   C     C_3   0.085348 0.503202 0.918283 -0.092930
C57   C     C_3   0.949225 0.222204 0.879640 -0.491215
C58   C     C_3   0.481088 0.184996 0.151102 -0.212924
C59   C     C_3   0.424580 0.270664 0.118744 -0.481237
C60   C     C_3   0.490922 0.184340 0.848240 -0.203380
C61   C     C_3   0.572768 0.233412 0.886662 -0.439953
C62   C     C_3   0.524613 0.818363 0.130314 -0.211095
C63   C     C_3   0.481791 0.740574 0.209518 -0.453175
C64   C     C_3   0.491770 0.814584 0.838856 -0.220413
C65   C     C_3   0.446241 0.722549 0.878362 -0.488424
C66   C     C_3   0.585427 0.010790 0.082086 -0.095546
C67   C     C_3   0.585528 0.999106 0.917875 -0.090833
C68   C     C_R   0.880345 0.379815 0.499236 0.531310
Cu1   Cu    Cu3+1 0.000100 0.500000 0.642410 0.830916
Cu2   Cu    Cu3+1 0.000100 0.500000 0.357590 0.841919
Cu3   Cu    Cu3+1 0.500100 1.000000 0.642410 0.831960
Cu4   Cu    Cu3+1 0.500100 1.000000 0.357590 0.840594
H1    H     H_    0.810980 0.289055 0.721129 0.132104
H2    H     H_    0.867441 0.199607 0.373401 0.100728
H3    H     H_    0.478935 0.681040 0.957545 0.150404
H4    H     H_    0.382871 0.737762 0.912224 0.134601
H5    H     H_    0.446220 0.671113 0.791154 0.110556
H6    H     H_    0.489388 0.815635 0.727566 0.210491
H7    H     H_    0.557962 0.801872 0.847461 0.103203
H8    H     H_    0.885548 0.804890 0.436388 0.094494
H9    H     H_    0.791785 0.676100 0.276752 0.135157
H10   H     H_    0.370156 0.708065 0.624104 0.104164
H11   H     H_    0.366588 0.698994 0.378674 0.101272
H12   H     H_    0.345017 0.266639 0.690154 0.102837
H13   H     H_    0.387879 0.303796 0.437341 0.092833
H14   H     H_    0.266399 0.602500 0.628697 0.105189
H15   H     H_    0.261284 0.600131 0.363830 0.106055
H16   H     H_    0.229569 0.355764 0.710815 0.115063
H17   H     H_    0.811922 0.288060 0.272148 0.120466
H18   H     H_    0.284898 0.413743 0.481222 0.103873
H19   H     H_    0.771816 0.098591 0.616094 0.102802
H20   H     H_    0.760641 0.101202 0.355521 0.105922
H21   H     H_    0.776413 0.908975 0.421841 0.103086
H22   H     H_    0.697391 0.792960 0.276882 0.110148
H23   H     H_    0.206476 0.686667 0.724489 0.120797
H24   H     H_    0.202238 0.688623 0.273895 0.115372
H25   H     H_    0.166209 0.250861 0.710721 0.107138
H26   H     H_    0.242093 0.373819 0.320081 0.110997
H27   H     H_    0.712726 0.176242 0.722347 0.119548
H28   H     H_    0.873323 0.797212 0.617246 0.098061
H29   H     H_    0.700950 0.192115 0.272109 0.114265
H30   H     H_    0.770201 0.906968 0.606550 0.106328
H31   H     H_    0.627585 0.709688 0.354855 0.105052
H32   H     H_    0.724293 0.411643 0.594740 0.104366
H33   H     H_    0.723049 0.413861 0.409581 0.103796
H34   H     H_    0.785868 0.673983 0.727110 0.114490
H35   H     H_    0.727526 0.591862 0.624029 0.101891
H36   H     H_    0.222164 0.913672 0.591026 0.104867
H37   H     H_    0.222674 0.914052 0.405538 0.104548
H38   H     H_    0.211017 0.081004 0.524517 0.103647
H39   H     H_    0.728170 0.598431 0.370768 0.100249
H40   H     H_    0.241222 0.101688 0.349547 0.109640
H41   H     H_    0.113138 0.810889 0.583543 0.094496
H42   H     H_    0.117016 0.806927 0.400400 0.098086
H43   H     H_    0.104251 0.185269 0.483995 0.092119
H44   H     H_    0.149236 0.223407 0.324668 0.115299
H45   H     H_    0.615330 0.308870 0.587700 0.094190
H46   H     H_    0.617601 0.306930 0.405087 0.097631
H47   H     H_    0.681325 0.780108 0.725154 0.115298
H48   H     H_    0.620850 0.699414 0.622125 0.095553
H49   H     H_    0.885996 0.565593 0.108048 0.100613
H50   H     H_    0.309371 0.793214 0.722599 0.132430
H51   H     H_    0.892888 0.579174 0.880473 0.093482
H52   H     H_    0.912064 0.390757 0.122140 0.121545
H53   H     H_    0.897384 0.412668 0.894004 0.099408
H54   H     H_    0.389962 0.075724 0.110230 0.102904
H55   H     H_    0.395479 0.083704 0.882247 0.090793
H56   H     H_    0.407452 0.895677 0.121184 0.121611
H57   H     H_    0.395350 0.915499 0.891276 0.100575
H58   H     H_    0.107994 0.587840 0.110227 0.100341
H59   H     H_    0.122673 0.558331 0.868519 0.130410
H60   H     H_    0.132491 0.471201 0.129134 0.094279
H61   H     H_    0.311027 0.786726 0.274515 0.121589
H62   H     H_    0.120047 0.437148 0.893443 0.093148
H63   H     H_    0.613452 0.079464 0.111694 0.100218
H64   H     H_    0.624825 0.052044 0.867814 0.130665
H65   H     H_    0.631014 0.961593 0.127190 0.092648
H66   H     H_    0.618473 0.932187 0.891885 0.092594
H67   H     H_    0.928279 0.818734 0.059592 0.131455
H68   H     H_    0.850379 0.728125 0.061325 0.122007
H69   H     H_    0.879717 0.791442 0.214987 0.127105
H70   H     H_    0.982395 0.684024 0.260289 0.196905
H71   H     H_    0.028588 0.710228 0.123613 0.113078
H72   H     H_    0.282998 0.163748 0.726400 0.116665
H73   H     H_    0.109435 0.698699 0.946378 0.118403
H74   H     H_    0.093614 0.767332 0.796417 0.117685
H75   H     H_    0.048401 0.805776 0.948740 0.122285
H76   H     H_    0.992951 0.676548 0.739177 0.218511
H77   H     H_    0.932545 0.735520 0.853703 0.093301
H78   H     H_    0.987508 0.265249 0.325209 0.178676
H79   H     H_    0.929623 0.226453 0.172220 0.128305
H80   H     H_    0.026812 0.175193 0.212362 0.099578
H81   H     H_    0.066020 0.282203 0.051380 0.092614
H82   H     H_    0.087265 0.340233 0.182655 0.167081
H83   H     H_    0.324412 0.245334 0.306936 0.140749
H84   H     H_    0.981412 0.181567 0.960396 0.149077
H85   H     H_    0.885650 0.237284 0.912575 0.133454
H86   H     H_    0.949291 0.170479 0.792674 0.113386
H87   H     H_    0.990138 0.315789 0.727821 0.211858
H88   H     H_    0.060750 0.303300 0.846595 0.106023
H89   H     H_    0.447454 0.317995 0.037883 0.137224
H90   H     H_    0.362201 0.247088 0.089295 0.126686
H91   H     H_    0.423529 0.320717 0.207679 0.115033
H92   H     H_    0.487336 0.182835 0.262596 0.203512
H93   H     H_    0.543824 0.206062 0.130078 0.118476
H94   H     H_    0.873711 0.206805 0.621388 0.102259
H95   H     H_    0.616206 0.190457 0.946886 0.116231
H96   H     H_    0.604781 0.255013 0.792797 0.121511
H97   H     H_    0.563327 0.301987 0.942068 0.118658
H98   H     H_    0.495231 0.176846 0.737487 0.214644
H99   H     H_    0.441086 0.237450 0.854325 0.083566
H100  H     H_    0.480817 0.760561 0.320001 0.172254
H101  H     H_    0.420436 0.727546 0.165534 0.132987
H102  H     H_    0.516724 0.672385 0.201663 0.100884
H103  H     H_    0.562593 0.783871 0.052649 0.091996
H104  H     H_    0.576836 0.837750 0.188612 0.175956
N1    N     N_3   0.001260 0.500000 0.143650 -0.242299
N2    N     N_3   0.001260 0.500000 0.856350 -0.241743
N3    N     N_3   0.501260 1.000000 0.143650 -0.243973
N4    N     N_3   0.501260 0.000000 0.856350 -0.242335
O1    O     O_R   0.091250 0.408820 0.620260 -0.527444
O2    O     O_R   0.908940 0.408800 0.379740 -0.510188
O3    O     O_R   0.908940 0.591200 0.620260 -0.538821
O4    O     O_R   0.908940 0.591200 0.379740 -0.522896
O5    O     O_R   0.408940 0.908800 0.620260 -0.528153
O6    O     O_R   0.408940 0.908800 0.379740 -0.507927
O7    O     O_R   0.408940 0.091200 0.620260 -0.537281
O8    O     O_R   0.408940 0.091200 0.379740 -0.524395
O9    O     O_R   0.091250 0.408820 0.379740 -0.518577
O10   O     O_R   0.091250 0.591180 0.620260 -0.522551
O11   O     O_R   0.091250 0.591180 0.379740 -0.525758
O12   O     O_R   0.591250 0.908820 0.620260 -0.526077
O13   O     O_R   0.591250 0.908820 0.379740 -0.520605
O14   O     O_R   0.591250 0.091180 0.620260 -0.522155
O15   O     O_R   0.591250 0.091180 0.379740 -0.527234
O16   O     O_R   0.908940 0.408800 0.620260 -0.528160

loop_
_geom_bond_atom_site_label_1
_geom_bond_atom_site_label_2
_ccdc_geom_bond_type
C34   O15   A    
Cu2   O9    S    
C20   H21   S    
C43   N2    S    
C53   H81   S    
C52   H73   S    
C14   H23   S    
C10   H61   S    
C48   N4    S    
C14   C31   S    
C57   H86   S    
C58   H92   S    
C43   H53   S    
C47   C62   S    
C42   H52   S    
C47   H56   S    
C54   H78   S    
C37   H44   S    
C56   N2    S    
C53   C54   S    
C6    C19   S    
C44   H54   S    
C65   H4    S    
C11   C30   S    
C18   H19   S    
C4    O7    A    
C40   N1    S    
Cu3   O5    S    
C67   N4    S    
C42   C53   S    
C50   H68   S    
C16   H25   S    
C48   C64   S    
C20   H30   S    
C21   H22   S    
C42   N1    S    
C40   C49   S    
C22   C38   S    
C10   H11   S    
C24   C39   S    
C22   H32   S    
C3    C29   S    
C58   H93   S    
C13   H83   S    
C47   N3    S    
C19   H20   S    
C5    C27   S    
C20   C35   S    
Cu2   O2    S    
Cu4   O8    S    
C47   C48   S    
C45   C56   S    
C44   C58   S    
C67   H66   S    
C63   H101  S    
C27   C68   S    
Cu3   O12   S    
C11   H72   S    
C26   H38   S    
C50   H69   S    
C9    C29   S    
C9    H10   S    
C34   O14   A    
C55   H87   S    
C66   C67   S    
C36   H42   S    
C53   H82   S    
C38   H45   S    
C9    H50   S    
Cu4   O15   S    
C36   H41   S    
C3    O5    A    
C44   N3    S    
C23   O12   A    
C44   C46   S    
Cu2   O11   S    
C6    H2    S    
C25   C29   S    
C57   H84   S    
C65   H5    S    
C7    H28   S    
C8    H9    S    
C46   N4    S    
C41   N2    S    
C14   H14   S    
C19   C33   S    
C8    H39   S    
C15   H24   S    
C1    O1    A    
C50   H67   S    
Cu3   O14   S    
C54   H80   S    
C5    C18   S    
C58   C59   S    
C32   C37   S    
C7    C20   S    
Cu1   O16   S    
C7    C28   S    
C51   C52   S    
C60   C61   S    
C61   H95   S    
C21   H31   S    
Cu3   N4    S    
C35   C39   S    
C9    C14   S    
C62   C63   S    
C59   H89   S    
Cu1   N2    S    
C11   C16   S    
C13   C30   S    
C6    C27   S    
C68   O2    A    
C49   H70   S    
C23   O13   A    
C8    C21   S    
C68   O16   A    
C24   H35   S    
C2    O4    A    
C5    H94   S    
Cu4   O6    S    
Cu1   O3    S    
C21   C35   S    
C43   C55   S    
C40   C41   S    
C26   C30   S    
C52   H75   S    
C23   C35   S    
C22   C27   S    
C55   C57   S    
C12   C31   S    
C8    C28   S    
C64   H7    S    
C48   H57   S    
C24   H34   S    
C18   H27   S    
C6    H17   S    
C3    O6    A    
C26   H40   S    
C62   H104  S    
Cu4   O13   S    
C63   H102  S    
C15   H15   S    
C17   H26   S    
Cu2   O4    S    
C12   O11   A    
C57   H85   S    
C55   H88   S    
C52   H74   S    
C46   C60   S    
C60   H99   S    
C64   H6    S    
C17   H18   S    
C24   C28   S    
Cu3   O7    S    
C65   H3    S    
Cu1   O10   S    
C56   H62   S    
Cu2   N1    S    
C15   C31   S    
C54   H79   S    
C37   H43   S    
C25   H37   S    
C11   H12   S    
C16   C32   S    
C22   H33   S    
C12   O10   A    
C66   N3    S    
C33   C38   S    
C46   H55   S    
C13   C17   S    
C10   C15   S    
C61   H96   S    
C60   H98   S    
C64   C65   S    
C4    O8    A    
C40   H49   S    
C67   H64   S    
Cu3   Cu4   S    
C59   H90   S    
C45   N1    S    
C19   H29   S    
C10   C29   S    
C41   H51   S    
C63   H100  S    
C66   H65   S    
C51   H76   S    
C39   H47   S    
C62   H103  S    
C49   H71   S    
C33   C34   S    
C2    O3    A    
C1    C32   S    
C5    H1    S    
Cu1   Cu2   S    
C18   C33   S    
C56   H59   S    
C59   H91   S    
C25   C36   S    
C66   H63   S    
C38   H46   S    
C45   H58   S    
C61   H97   S    
C26   C37   S    
C51   H77   S    
C45   H60   S    
C49   C50   S    
C42   C43   S    
C13   H13   S    
C16   H16   S    
C17   C32   S    
C31   C36   S    
C2    C28   S    
Cu4   N3    S    
C41   C51   S    
C4    C30   S    
C39   H48   S    
C25   H36   S    
Cu1   O1    S    
C7    H8    S    
C1    O9    A    
