data_mof_unit_67484.cif
_audit_creation_date              2012-10-26T21:06:55-0400
_audit_creation_method            fapswitch 2.2
_symmetry_space_group_name_H-M    P1
_symmetry_Int_Tables_number       1
_space_group_crystal_system       triclinic
_cell_length_a                    10.764232
_cell_length_b                    8.715169
_cell_length_c                    7.499169
_cell_angle_alpha                 102.942706
_cell_angle_beta                  95.406447
_cell_angle_gamma                 93.337462
_cell_volume                      680.304772538

loop_
_atom_site_label
_atom_site_type_symbol
_atom_type_description
_atom_site_fract_x
_atom_site_fract_y
_atom_site_fract_z
_atom_type_partial_charge
Br1   Br    Br    0.168262 0.798313 0.396066 -0.200937
Br2   Br    Br    0.872973 0.756496 0.310124 -0.263510
Br3   Br    Br    0.436110 0.921851 0.164861 -0.248904
Br4   Br    Br    0.874854 0.830651 0.720946 -0.151936
Br5   Br    Br    0.117328 0.214602 0.173371 -0.097047
C1    C     C_R   0.493594 0.200088 0.452660 0.579142
C2    C     C_3   0.076656 0.407617 0.644664 0.105595
C3    C     C_3   0.936168 0.424880 0.659205 0.097777
C4    C     C_3   0.086152 0.672362 0.546279 0.280577
C5    C     C_3   0.051728 0.410717 0.303167 0.062392
C6    C     C_3   0.121848 0.494319 0.497715 -0.093166
C7    C     C_3   0.877742 0.500605 0.501550 -0.075391
C8    C     C_3   0.937814 0.674991 0.522941 0.264244
C9    C     C_3   0.908769 0.394339 0.315020 0.050513
C10   C     C_2   0.483637 0.032174 0.421272 0.167142
C11   C     C_2   0.504922 0.966992 0.566166 -0.051241
C12   C     C_R   0.259954 0.492911 0.499003 0.604221
C13   C     C_R   0.502727 0.799828 0.545471 0.579767
C14   C     C_R   0.739675 0.499254 0.499976 0.581546
Cl1   Cl    Cl    0.360610 0.308397 0.905555 -0.329626
Cl2   Cl    Cl    0.107204 0.202949 0.602627 -0.355364
Cl3   Cl    Cl    0.916766 0.527550 0.888540 -0.520704
Cl4   Cl    Cl    0.154425 0.768337 0.776934 -0.342171
Cl5   Cl    Cl    0.842699 0.193009 0.280426 -0.422136
Cu1   Cu    Cu3+1 0.514070 0.517380 0.684380 1.205976
Cu2   Cu    Cu3+1 0.485930 0.482620 0.315620 1.212241
H1    H     H_    0.130475 0.460032 0.780610 0.243636
H2    H     H_    0.862233 0.433777 0.197141 0.219390
H3    H     H_    0.527561 0.039270 0.705132 0.164072
H4    H     H_    0.597259 0.625558 0.052087 0.250280
H5    H     H_    0.886461 0.306846 0.646156 0.235100
H6    H     H_    0.067804 0.490194 0.209322 0.190114
N1    N     N_2   0.464720 0.456420 0.038520 0.035395
N2    N     N_2   0.535280 0.543580 0.961480 -0.182771
O1    O     O_R   0.509140 0.286130 0.619770 -0.500256
O2    O     O_R   0.485380 0.256770 0.308360 -0.439572
O3    O     O_R   0.329570 0.514650 0.655700 -0.449371
O4    O     O_R   0.305810 0.485300 0.344290 -0.467258
O5    O     O_R   0.514620 0.743230 0.691640 -0.468523
O6    O     O_R   0.490860 0.713870 0.380230 -0.495161
O7    O     O_R   0.694190 0.514700 0.655710 -0.454646
O8    O     O_R   0.670430 0.485350 0.344300 -0.519429

loop_
_geom_bond_atom_site_label_1
_geom_bond_atom_site_label_2
_ccdc_geom_bond_type
C3    Cl3   S    
C13   O5    A    
Cu2   O4    S    
Cu2   N1    S    
C14   O8    A    
Cu1   N2    S    
C3    C7    S    
C9    H2    S    
N1    N2    D    
C11   H3    S    
Br1   C4    S    
C2    C3    S    
C12   O3    A    
Cu1   O5    S    
C2    C6    S    
C7    C8    S    
C4    C6    S    
Cu2   O6    S    
Cu1   O1    S    
Cl1   N1    S    
C7    C14   S    
Cu2   O2    S    
C1    O2    A    
C12   O4    A    
C1    C10   S    
C5    C6    S    
H4    N2    S    
C9    Cl5   S    
C10   C11   D    
C5    H6    S    
Br5   C5    S    
C2    H1    S    
C1    O1    A    
Cu2   O8    S    
C11   C13   S    
C5    C9    S    
Cu1   O7    S    
Br4   C8    S    
Br2   C8    S    
C4    C8    S    
C4    Cl4   S    
Br3   C10   S    
C13   O6    A    
Cu1   O3    S    
Cu1   Cu2   S    
C2    Cl2   S    
C3    H5    S    
C6    C12   S    
C14   O7    A    
C7    C9    S    
