data_mof_unit_20263.cif
_audit_creation_date              2013-03-05T16:08:48-0500
_audit_creation_method            fapswitch 2.2
_symmetry_space_group_name_H-M    P1
_symmetry_Int_Tables_number       1
_space_group_crystal_system       triclinic
_cell_length_a                    27.336699
_cell_length_b                    11.553787
_cell_length_c                    10.775373
_cell_angle_alpha                 90.277784
_cell_angle_beta                  90.067551
_cell_angle_gamma                 90.170761
_cell_volume                      3403.26210594

loop_
_atom_site_label
_atom_site_type_symbol
_atom_site_description
_atom_site_fract_x
_atom_site_fract_y
_atom_site_fract_z
_atom_type_partial_charge
O1    O     O_R   0.500000 0.334450 0.602530 -0.610603
O2    O     O_R   0.500000 0.665550 0.397470 -0.614398
O3    O     O_R   0.500000 0.665550 0.602530 -0.603792
O4    O     O_R   0.500000 0.334450 0.397470 -0.606194
C1    C     C_R   0.499947 0.281178 0.499752 0.906709
C2    C     C_R   0.499943 0.718816 0.500241 0.903315
O5    O     O_R   0.428750 0.500000 0.602520 -0.606378
O6    O     O_R   0.571250 0.500000 0.397480 -0.610804
O7    O     O_R   0.571250 0.500000 0.602520 -0.607839
O8    O     O_R   0.428750 0.500000 0.397480 -0.610153
C3    C     C_R   0.405482 0.502101 0.499810 0.919527
C4    C     C_R   0.594545 0.501457 0.499961 0.922672
Zn1   Zn    Zn3+2 0.500000 0.500000 0.636920 0.991393
Zn2   Zn    Zn3+2 0.500000 0.500000 0.363080 0.985990
C5    C     C_R   0.181766 0.604153 0.380615 0.542971
C6    C     C_R   0.821341 0.649960 0.586687 0.549395
C7    C     C_R   0.181107 0.674423 0.589169 0.560949
C8    C     C_R   0.824069 0.548697 0.393305 0.552991
O9    O     O_2   0.207037 0.562370 0.282632 -0.538186
O10   O     O_2   0.794928 0.690831 0.683051 -0.550296
O11   O     O_2   0.205966 0.703329 0.693113 -0.547751
O12   O     O_2   0.800576 0.488251 0.303615 -0.550864
N1    N     N_R   0.205467 0.629638 0.489250 -0.326242
N2    N     N_R   0.798734 0.589363 0.493583 -0.329069
C9    C     C_R   0.290460 0.661476 0.426025 0.505910
C10   C     C_R   0.727834 0.490182 0.585074 0.488943
C11   C     C_R   0.271283 0.509586 0.575541 0.499382
C12   C     C_R   0.716275 0.625290 0.414309 0.480567
C13   C     C_R   0.338581 0.621753 0.421135 -0.316558
C14   C     C_R   0.677435 0.469263 0.587297 -0.320659
C15   C     C_R   0.320822 0.478869 0.579023 -0.338750
C16   C     C_R   0.666689 0.598022 0.412008 -0.298252
C17   C     C_R   0.256333 0.602094 0.499572 0.099740
C18   C     C_R   0.747144 0.569393 0.499175 0.091306
C19   C     C_R   0.104740 0.656143 0.476079 -0.057046
C20   C     C_R   0.898811 0.628288 0.479858 -0.055475
C21   C     C_R   0.131084 0.617060 0.371970 -0.048126
C22   C     C_R   0.871900 0.669846 0.582041 -0.041892
C23   C     C_R   0.130221 0.688486 0.584477 -0.045431
C24   C     C_R   0.874366 0.568715 0.383739 -0.041886
C25   C     C_R   0.106280 0.588529 0.262759 -0.132285
C26   C     C_R   0.895908 0.730126 0.676884 -0.140726
C27   C     C_R   0.104316 0.730037 0.686885 -0.137836
C28   C     C_R   0.900571 0.528793 0.281235 -0.138259
C29   C     C_R   0.353899 0.531948 0.498543 -0.150304
C30   C     C_R   0.647108 0.521149 0.499021 -0.167795
H1    H     H_    0.333115 0.411941 0.641781 0.171760
H2    H     H_    0.643267 0.639935 0.344686 0.183588
H3    H     H_    0.364401 0.663376 0.359351 0.173496
H4    H     H_    0.662286 0.410760 0.655607 0.179008
H5    H     H_    0.125891 0.562346 0.179976 0.194722
H6    H     H_    0.875835 0.765618 0.754843 0.188715
H7    H     H_    0.123110 0.755869 0.771210 0.190812
H8    H     H_    0.882559 0.482328 0.206399 0.190968
C31   C     C_R   0.976516 0.604435 0.369521 0.042643
C32   C     C_R   0.026717 0.699587 0.578265 0.042353
C33   C     C_R   0.974796 0.697609 0.576358 0.042643
C34   C     C_R   0.027939 0.618536 0.365718 0.042339
C35   C     C_R   0.950194 0.644320 0.474813 0.075455
C36   C     C_R   0.052936 0.659318 0.472938 0.077077
C37   C     C_R   0.950627 0.546489 0.273820 -0.215956
C38   C     C_R   0.053575 0.735875 0.684003 -0.215163
C39   C     C_R   0.946384 0.743973 0.674278 -0.215889
C40   C     C_R   0.055619 0.589965 0.259186 -0.218166
H9    H     H_    0.968203 0.509194 0.193753 0.143223
H10   H     H_    0.036490 0.764798 0.768561 0.141832
H11   H     H_    0.961986 0.792298 0.750389 0.141518
H12   H     H_    0.039219 0.568168 0.171145 0.142985
C41   C     C_1   0.499809 0.161066 0.499363 -0.185955
C42   C     C_1   0.499793 0.838912 0.500602 -0.187879
C43   C     C_1   0.499717 0.059134 0.499648 0.002088
C44   C     C_1   0.499708 0.940838 0.500288 0.000804
N3    N     N_1   0.500000 0.500000 0.180630 -0.077684
N4    N     N_1   0.500000 0.500000 0.819370 -0.077001
C45   C     C_1   0.500000 0.500006 0.069752 0.050659
C46   C     C_1   0.500000 0.500005 0.930248 0.051531
O13   O     O_3   0.237820 0.456623 0.653435 -0.605778
C47   C     C_3   0.229792 0.340064 0.617147 0.071847
H13   H     H_    0.222538 0.289685 0.702764 0.181735
H14   H     H_    0.261848 0.298440 0.571294 0.123485
C48   C     C_3   0.184897 0.331612 0.532394 -0.360176
H15   H     H_    0.153672 0.377894 0.575978 0.238324
H16   H     H_    0.193266 0.373177 0.442277 0.235072
C49   C     C_3   0.170224 0.206018 0.508009 -0.926589
H17   H     H_    0.200041 0.159726 0.458874 0.272271
H18   H     H_    0.136969 0.203516 0.448775 0.271375
H19   H     H_    0.162073 0.161235 0.596632 0.266837
O14   O     O_3   0.735157 0.702120 0.328881 -0.606792
C50   C     C_3   0.733529 0.814478 0.380775 0.054646
H20   H     H_    0.753268 0.817996 0.471372 0.158509
H21   H     H_    0.694853 0.841868 0.394827 0.141646
C51   C     C_3   0.758283 0.898967 0.291957 -0.292016
H22   H     H_    0.796622 0.871003 0.275384 0.232102
H23   H     H_    0.738538 0.898344 0.201710 0.237789
C52   C     C_3   0.758593 0.021860 0.344592 -0.962986
H24   H     H_    0.720605 0.052162 0.361034 0.267471
H25   H     H_    0.776517 0.081163 0.277686 0.277484
H26   H     H_    0.779271 0.024810 0.433294 0.266703
O15   O     O_3   0.275000 0.751085 0.350544 -0.603479
C53   C     C_3   0.296565 0.857076 0.388832 0.067478
H27   H     H_    0.294551 0.917533 0.309147 0.183689
H28   H     H_    0.336108 0.849120 0.412386 0.124138
C54   C     C_3   0.268383 0.910369 0.497939 -0.346719
H29   H     H_    0.229300 0.920819 0.471779 0.234809
H30   H     H_    0.270460 0.852028 0.579350 0.248089
C55   C     C_3   0.289598 0.027974 0.534743 -0.962998
H31   H     H_    0.328248 0.018597 0.564924 0.272121
H32   H     H_    0.268155 0.064807 0.612900 0.270025
H33   H     H_    0.287930 0.088751 0.455306 0.260957
O16   O     O_3   0.758192 0.436775 0.669686 -0.606026
C56   C     C_3   0.770474 0.326125 0.623330 0.060274
H34   H     H_    0.786297 0.331997 0.528129 0.156230
H35   H     H_    0.737485 0.269243 0.620950 0.143371
C57   C     C_3   0.808668 0.272050 0.708684 -0.294789
H36   H     H_    0.841709 0.328363 0.711658 0.229786
H37   H     H_    0.793608 0.265638 0.804199 0.239134
C58   C     C_3   0.823281 0.151553 0.663753 -0.962538
H38   H     H_    0.790947 0.093092 0.662530 0.269102
H39   H     H_    0.851137 0.114981 0.727443 0.271997
H40   H     H_    0.839155 0.156149 0.569036 0.267949

loop_
_geom_bond_atom_site_label_1
_geom_bond_atom_site_label_2
_geom_bond_distance
_ccdc_geom_bond_type
C31   C35   1.419920 A    
N3    C45   1.194748 T    
C52   H24   1.111013 S    
C49   H19   1.110810 S    
C20   C35   1.417415 A    
C48   H15   1.111920 S    
C52   H26   1.110195 S    
C13   H3    1.083923 S    
O13   C47   1.416887 S    
C11   C17   1.410592 A    
C5    O9    1.350463 S    
C7    N1    1.367007 A    
N4    C46   1.194754 T    
C21   C25   1.395083 A    
C8    N2    1.366288 A    
C40   H12   1.077224 S    
C19   C21   1.407106 A    
C49   H18   1.110364 S    
C22   C26   1.396070 A    
C58   H39   1.110363 S    
C47   H14   1.115571 S    
C33   C35   1.420517 A    
C55   H31   1.110872 S    
C34   C36   1.419402 A    
C32   C33   1.419579 A    
C7    C23   1.401872 A    
C41   C43   1.177719 T    
O7    Zn1   1.983127 S    
O16   C56   1.411870 S    
C5    C21   1.396987 A    
C1    C41   1.387733 S    
C10   C18   1.406916 A    
C56   H34   1.116059 S    
N1    C17   1.431711 S    
C12   O14   1.381328 S    
C50   H21   1.114818 S    
C10   O16   1.381085 S    
C24   C28   1.394561 A    
O3    Zn1   1.950058 S    
O6    C4    1.274093 A    
O3    C2    1.264977 A    
C5    N1    1.367654 A    
C14   H4    1.083535 S    
C12   C18   1.404495 A    
C6    N2    1.366635 A    
C15   H1    1.083633 S    
C9    C13   1.395495 A    
C16   H2    1.083917 S    
C56   C57   1.527615 S    
O2    C2    1.264309 A    
C53   H28   1.114236 S    
C48   H16   1.109180 S    
C27   H7    1.083523 S    
C33   C39   1.415065 A    
C34   C40   1.413902 A    
C39   H11   1.076837 S    
C42   C44   1.177669 T    
C38   H10   1.076552 S    
C11   C15   1.401513 A    
Zn2   N3    1.965967 S    
C20   C24   1.407731 A    
C49   H17   1.109788 S    
C4    C30   1.454206 S    
O8    Zn2   1.983127 S    
C58   H40   1.110937 S    
C47   H13   1.110941 S    
C23   C27   1.395839 A    
C53   C54   1.533879 S    
N2    C18   1.429755 S    
C32   C36   1.420227 A    
C13   C29   1.399233 A    
C19   C36   1.417103 A    
C19   C23   1.407642 A    
C45   C46   1.503211 S    
C37   H9    1.076791 S    
O5    C3    1.276224 A    
O15   C53   1.416894 S    
C12   C16   1.390884 A    
C6    O10   1.349651 S    
C51   H23   1.111642 S    
C56   H35   1.114484 S    
O14   C50   1.411825 S    
C50   C51   1.527547 S    
C10   C14   1.398338 A    
C54   H30   1.110396 S    
O1    C1    1.264398 A    
C3    C29   1.452703 S    
O1    Zn1   1.946531 S    
C48   C49   1.525838 S    
C2    C42   1.387565 S    
O6    Zn2   1.982268 S    
C8    O12   1.350371 S    
C16   C30   1.400312 A    
C14   C30   1.399319 A    
O4    C1    1.264943 A    
C11   O13   1.385338 S    
C57   H37   1.111674 S    
C52   H25   1.110377 S    
C57   H36   1.111933 S    
C28   C37   1.385417 A    
C9    O15   1.386356 S    
C43   C44   1.366812 S    
C58   H38   1.110873 S    
C47   C48   1.531520 S    
C55   H32   1.110469 S    
C31   C37   1.414644 A    
C20   C22   1.408167 A    
C51   H22   1.112025 S    
C54   C55   1.526262 S    
C32   C38   1.415830 A    
C51   C52   1.526404 S    
O4    Zn2   1.950059 S    
O2    Zn2   1.946530 S    
O7    C4    1.276261 A    
C7    O11   1.349469 S    
C57   C58   1.526241 S    
C9    C17   1.404375 A    
O8    C3    1.273775 A    
C28   H8    1.083610 S    
O5    Zn1   1.982268 S    
C8    C24   1.397601 A    
Zn1   N4    1.965966 S    
C15   C29   1.396221 A    
C31   C34   1.415324 A    
C6    C22   1.401410 A    
C54   H29   1.111717 S    
C53   H27   1.110907 S    
C25   C40   1.385556 A    
C50   H20   1.115382 S    
C26   C39   1.388950 A    
C25   H5    1.083552 S    
C27   C38   1.389244 A    
C26   H6    1.083518 S    
C55   H33   1.110743 S    
