data_mof_unit_19850.cif
_audit_creation_date              2012-12-10T18:06:48-0500
_audit_creation_method            fapswitch 2.2
_symmetry_space_group_name_H-M    P1
_symmetry_Int_Tables_number       1
_space_group_crystal_system       triclinic
_cell_length_a                    12.58961
_cell_length_b                    13.160137
_cell_length_c                    15.469414
_cell_angle_alpha                 83.203536
_cell_angle_beta                  99.040708
_cell_angle_gamma                 96.653494
_cell_volume                      2500.9664625

loop_
_atom_site_label
_atom_site_type_symbol
_atom_type_description
_atom_site_fract_x
_atom_site_fract_y
_atom_site_fract_z
_atom_type_partial_charge
C1    C     C_R   0.444764 0.308197 0.512879 0.852958
C2    C     C_R   0.687517 0.518801 0.933330 0.172155
C3    C     C_R   0.583405 0.547335 0.897069 0.091006
C4    C     C_R   0.435627 0.516007 0.335545 0.891778
C5    C     C_R   0.754069 0.486236 0.879381 -0.200023
C6    C     C_R   0.715564 0.476332 0.790864 -0.204819
C7    C     C_R   0.545596 0.533963 0.809111 -0.259096
C8    C     C_R   0.728900 0.925557 0.564250 -0.197935
C9    C     C_R   0.595464 0.798173 0.500426 -0.047038
C10   C     C_R   0.300810 0.165095 0.498882 -0.189103
C11   C     C_R   0.268525 0.061748 0.491475 -0.143185
C12   C     C_R   0.465510 0.571005 0.097431 0.095564
C13   C     C_R   0.345731 0.992210 0.501371 -0.186765
C14   C     C_R   0.457177 0.024983 0.523040 0.083807
C15   C     C_R   0.487459 0.126502 0.543971 0.083878
C16   C     C_R   0.557098 0.691330 0.491736 0.863084
C17   C     C_R   0.539644 0.960451 0.524535 0.075762
C18   C     C_R   0.647848 0.991385 0.560408 0.174874
C19   C     C_R   0.673019 0.086738 0.593016 -0.250051
C20   C     C_R   0.593853 0.153722 0.584900 -0.198503
C21   C     C_R   0.517529 0.866595 0.489399 -0.254003
C22   C     C_R   0.702353 0.828112 0.535634 -0.198100
C23   C     C_R   0.367463 0.612051 0.060762 0.134167
C24   C     C_R   0.410469 0.198419 0.522317 -0.111473
C25   C     C_R   0.138745 0.642718 0.621237 -0.309347
C26   C     C_R   0.757211 0.380164 0.396111 0.017946
C27   C     C_R   0.852545 0.354591 0.374070 -0.250003
C28   C     C_R   0.565809 0.489802 0.663777 0.847710
C29   C     C_R   0.950491 0.399752 0.413858 -0.174409
C30   C     C_R   0.952847 0.470896 0.476244 0.020012
C31   C     C_R   0.853489 0.494319 0.496131 0.235989
C32   C     C_R   0.049067 0.520053 0.519012 -0.008813
C33   C     C_R   0.044219 0.592219 0.579673 0.199292
C34   C     C_R   0.544766 0.563733 0.043446 0.077241
C35   C     C_R   0.945183 0.613266 0.598143 -0.295697
C36   C     C_R   0.851089 0.564530 0.556964 -0.221821
C37   C     C_R   0.150820 0.500870 0.503942 -0.014178
C38   C     C_R   0.236925 0.621326 0.602220 0.012615
C39   C     C_R   0.402954 0.542663 0.240602 -0.119963
C40   C     C_R   0.609926 0.498071 0.756151 -0.054911
C41   C     C_R   0.289372 0.620087 0.114027 -0.227317
C42   C     C_R   0.306215 0.586834 0.203744 0.170846
C43   C     C_R   0.478802 0.532514 0.185935 -0.291154
C44   C     C_R   0.516069 0.579849 0.951273 0.069665
C45   C     C_R   0.420027 0.625716 0.916506 -0.226315
C46   C     C_R   0.347736 0.643016 0.970969 -0.215583
C47   C     C_R   0.651040 0.539989 0.078139 -0.225840
C48   C     C_R   0.722123 0.520202 0.023293 -0.231106
H1    H     H_    0.274265 0.677168 0.942183 0.145495
H2    H     H_    0.311559 0.659469 0.633200 0.130079
H3    H     H_    0.463587 0.546871 0.781694 0.160340
H4    H     H_    0.940322 0.667705 0.644470 0.153672
H5    H     H_    0.136613 0.697989 0.667465 0.142363
H6    H     H_    0.163365 0.446786 0.460445 0.133303
H7    H     H_    0.680385 0.345592 0.365665 0.142531
H8    H     H_    0.022159 0.377713 0.394114 0.145623
H9    H     H_    0.850607 0.300230 0.326376 0.154272
H10   H     H_    0.777490 0.583731 0.573705 0.212906
H11   H     H_    0.767503 0.450246 0.750220 0.163006
H12   H     H_    0.834650 0.466147 0.906103 0.140102
H13   H     H_    0.802479 0.501064 0.051954 0.155916
H14   H     H_    0.214704 0.652368 0.085698 0.161172
H15   H     H_    0.548009 0.491912 0.213132 0.170068
H16   H     H_    0.400051 0.650920 0.847436 0.141509
H17   H     H_    0.681930 0.538335 0.147412 0.157508
H18   H     H_    0.754354 0.110375 0.623315 0.149692
H19   H     H_    0.763670 0.775024 0.544860 0.152906
H20   H     H_    0.811538 0.947940 0.592257 0.136538
H21   H     H_    0.438561 0.842962 0.455400 0.158721
H22   H     H_    0.240329 0.219310 0.483778 0.153323
H23   H     H_    0.315756 0.913084 0.493905 0.140840
H24   H     H_    0.183748 0.036036 0.474428 0.146766
H25   H     H_    0.616593 0.226481 0.612124 0.171153
I1    I     I_    0.178783 0.608241 0.273405 -0.406703
N1    N     N_R   0.239390 0.551900 0.544730 -0.098962
N2    N     N_R   0.759950 0.448600 0.455730 -0.131999
O1    O     O_R   0.374950 0.371210 0.521360 -0.614190
O2    O     O_R   0.542050 0.338030 0.492790 -0.615648
O3    O     O_R   0.368720 0.526070 0.390200 -0.577597
O4    O     O_R   0.535820 0.492890 0.361630 -0.620913
O5    O     O_R   0.457950 0.661970 0.507210 -0.609072
O6    O     O_R   0.625050 0.628790 0.478640 -0.630566
O7    O     O_R   0.464180 0.507110 0.638370 -0.616739
O8    O     O_R   0.631280 0.473930 0.609800 -0.644342
Zn1   Zn    Zn3+2 0.388420 0.522150 0.519080 0.957309
Zn2   Zn    Zn3+2 0.611580 0.477850 0.480920 0.925821

loop_
_geom_bond_atom_site_label_1
_geom_bond_atom_site_label_2
_ccdc_geom_bond_type
C27   C29   A    
C1    O1    A    
C41   C42   A    
C19   C20   A    
C26   H7    S    
C48   H13   S    
C43   H15   S    
C45   C46   A    
C46   H1    S    
C26   C27   A    
C9    C16   S    
C25   H5    S    
C4    O4    A    
C12   C43   A    
C3    C7    A    
C30   C31   A    
C9    C22   A    
C28   O8    A    
C28   C40   S    
C19   H18   S    
C18   C19   A    
O4    Zn2   S    
N1    Zn1   S    
C35   C36   A    
C8    C22   A    
C7    C40   A    
O2    Zn2   S    
C37   N1    A    
O1    Zn1   S    
C23   C46   A    
C13   C14   A    
C28   O7    A    
C1    O2    A    
C14   C17   A    
C41   H14   S    
C39   C42   A    
C38   N1    A    
C15   C20   A    
C3    C44   A    
C42   I1    S    
C34   C44   A    
C4    O3    A    
C27   H9    S    
C11   H24   S    
C39   C43   A    
C13   H23   S    
C10   C24   A    
O6    Zn2   S    
C17   C21   A    
C21   H21   S    
C29   C30   A    
C25   C38   A    
C26   N2    A    
C47   C48   A    
C12   C23   A    
C4    C39   S    
C16   O6    A    
C17   C18   A    
C32   C37   A    
C37   H6    S    
C10   H22   S    
C15   C24   A    
O7    Zn1   S    
C8    H20   S    
C6    C40   A    
C2    C5    A    
C12   C34   A    
N2    Zn2   S    
O3    Zn1   S    
C44   C45   A    
C5    H12   S    
C31   C36   A    
C6    H11   S    
O8    Zn2   S    
C38   H2    S    
C29   H8    S    
C45   H16   S    
C36   H10   S    
C23   C41   A    
C2    C48   A    
C32   C33   A    
C2    C3    A    
C7    H3    S    
C30   C32   A    
C11   C13   A    
C9    C21   A    
C31   N2    A    
C5    C6    A    
C16   O5    A    
C33   C35   A    
C20   H25   S    
C8    C18   A    
C22   H19   S    
C10   C11   A    
C1    C24   S    
C35   H4    S    
C14   C15   A    
C34   C47   A    
C47   H17   S    
O5    Zn1   S    
C25   C33   A    
