data_mof_unit_8840.cif
_audit_creation_date              2012-12-11T16:20:16-0500
_audit_creation_method            fapswitch 2.2
_symmetry_space_group_name_H-M    P1
_symmetry_Int_Tables_number       1
_space_group_crystal_system       triclinic
_cell_length_a                    6.92354
_cell_length_b                    34.275359
_cell_length_c                    38.333902
_cell_angle_alpha                 99.54743
_cell_angle_beta                  90.10829
_cell_angle_gamma                 90.244384
_cell_volume                      8970.77919735

loop_
_atom_site_label
_atom_site_type_symbol
_atom_type_description
_atom_site_fract_x
_atom_site_fract_y
_atom_site_fract_z
_atom_type_partial_charge
O1    O     O_R   0.494320 0.461440 0.460990 -0.537947
O2    O     O_R   0.821450 0.462560 0.532500 -0.520369
O3    O     O_R   0.994330 0.538560 0.539010 -0.538533
C1    C     C_R   0.652561 0.453114 0.543177 0.810649
O4    O     O_R   0.823870 0.456770 0.460860 -0.529847
O5    O     O_R   0.996760 0.532730 0.466860 -0.533449
C2    C     C_R   0.654440 0.446226 0.448046 0.804307
O6    O     O_R   0.491880 0.467270 0.533140 -0.535592
O7    O     O_3   0.661650 0.524930 0.502050 -0.370577
V1    V     V_3+5 0.935500 0.495380 0.499620 1.564125
O8    O     O_R   0.326630 0.537440 0.467500 -0.536105
C3    C     C_R   0.158233 0.545750 0.456127 0.705440
O9    O     O_R   0.324210 0.543230 0.539140 -0.526788
C4    C     C_R   0.156141 0.553204 0.552649 0.774926
V2    V     V_3+5 0.435810 0.504620 0.500380 1.542073
O10   O     O_3   0.159790 0.475070 0.497950 -0.359653
C5    C     C_R   0.029334 0.832943 0.792357 0.606509
N1    N     N_R   0.017337 0.822687 0.825261 -0.557585
C6    C     C_R   0.018823 0.783891 0.829723 0.754685
C7    C     C_R   0.018145 0.752847 0.800095 -0.137554
C8    C     C_R   0.038493 0.763135 0.765954 -0.105582
C9    C     C_R   0.044283 0.803576 0.761856 -0.036372
C10   C     C_R   0.000840 0.712139 0.803314 0.253469
C11   C     C_R   0.013900 0.682389 0.773039 0.212557
C12   C     C_R   0.038663 0.692707 0.739009 -0.108178
C13   C     C_R   0.053879 0.733049 0.735751 -0.060556
C14   C     C_R   0.085496 0.743396 0.702092 -0.039954
C15   C     C_R   0.092734 0.783282 0.698418 -0.207621
C16   C     C_R   0.066935 0.813291 0.727466 0.276202
C17   C     C_R   0.046656 0.663860 0.707746 0.717593
N2    N     N_R   0.087628 0.674633 0.675712 -0.552589
C18   C     C_R   0.108115 0.713540 0.672490 0.597328
O11   O     O_2   0.028910 0.871618 0.789444 -0.496507
O12   O     O_2   0.026322 0.775875 0.862906 -0.427689
O13   O     O_2   0.012564 0.625356 0.709036 -0.448144
O14   O     O_2   0.149144 0.723310 0.640619 -0.521098
H1    H     H_    0.113221 0.791538 0.672576 0.172529
C19   C     C_R   0.962880 0.639196 0.618337 0.341784
C20   C     C_R   0.983062 0.609214 0.588862 -0.227469
H2    H     H_    0.868663 0.604858 0.569249 0.175559
C21   C     C_R   0.146346 0.584719 0.584441 -0.223843
C22   C     C_R   0.292063 0.590076 0.610876 0.215005
C23   C     C_R   0.272016 0.619902 0.640824 0.271416
C24   C     C_R   0.107520 0.644404 0.644739 0.194401
C25   C     C_R   0.848807 0.858908 0.878222 0.312412
C26   C     C_R   0.847654 0.889019 0.907788 -0.256690
H3    H     H_    0.721552 0.892108 0.924680 0.193314
C27   C     C_R   0.006350 0.914839 0.915734 -0.127050
C28   C     C_R   0.168455 0.910046 0.892851 0.255484
C29   C     C_R   0.169832 0.879265 0.863664 -0.141699
H4    H     H_    0.293651 0.875786 0.846222 0.171149
C30   C     C_R   0.011646 0.853591 0.856021 0.276280
C31   C     C_R   0.896665 0.857143 0.176194 0.657727
O15   O     O_2   0.747002 0.881663 0.174367 -0.501301
N3    N     N_R   0.037047 0.854735 0.150815 -0.520413
C32   C     C_R   0.190655 0.829914 0.151129 0.647525
C33   C     C_R   0.982179 0.862989 0.088448 0.223901
C34   C     C_R   0.972942 0.887443 0.062173 0.138844
C35   C     C_R   0.043602 0.945271 0.106855 0.138045
C36   C     C_R   0.056915 0.920730 0.132894 0.245426
C37   C     C_R   0.025185 0.879656 0.123803 0.232391
C38   C     C_R   0.062816 0.807068 0.203429 -0.081351
C39   C     C_R   0.907490 0.833944 0.203611 -0.100477
C40   C     C_R   0.771954 0.836915 0.231458 0.329340
C41   C     C_R   0.206225 0.805729 0.177291 -0.070067
C42   C     C_R   0.004983 0.928522 0.071263 -0.227325
C43   C     C_R   0.150771 0.571539 0.428893 -0.133750
C44   C     C_R   0.940999 0.757231 0.281350 0.006500
C45   C     C_R   0.224775 0.725275 0.251074 -0.009240
C46   C     C_R   0.086845 0.728022 0.278647 0.099439
C47   C     C_R   0.799800 0.757291 0.307901 -0.217434
C48   C     C_R   0.802438 0.730661 0.331651 0.333006
C49   C     C_R   0.951495 0.702300 0.330167 -0.087212
C50   C     C_R   0.092149 0.700585 0.303081 -0.109197
C51   C     C_R   0.236977 0.671049 0.300036 -0.077970
C52   C     C_R   0.251104 0.647079 0.326668 0.693918
N4    N     N_R   0.116182 0.649524 0.352924 -0.558497
C53   C     C_R   0.964893 0.675271 0.354383 0.726222
C54   C     C_R   0.173410 0.638070 0.414538 0.360950
C55   C     C_R   0.181338 0.612290 0.439237 -0.274417
C56   C     C_R   0.118150 0.555906 0.392728 0.283823
C57   C     C_R   0.102456 0.582503 0.368338 -0.120389
C58   C     C_R   0.130163 0.623358 0.378883 0.241614
O16   O     O_2   0.829258 0.674466 0.379382 -0.446490
C59   C     C_R   0.934430 0.783991 0.256386 0.027469
C60   C     C_R   0.075955 0.781678 0.229386 0.059329
C61   C     C_R   0.231230 0.754378 0.228267 -0.020400
C62   C     C_R   0.789245 0.813043 0.257352 -0.165124
H5    H     H_    0.211870 0.624094 0.466707 0.154088
H6    H     H_    0.680492 0.777473 0.310891 0.158874
H7    H     H_    0.681928 0.817851 0.277780 0.158421
O17   O     O_2   0.329035 0.828853 0.126260 -0.534502
C63   C     C_R   0.368703 0.782109 0.178822 -0.107850
H8    H     H_    0.487947 0.784447 0.161080 0.159927
C64   C     C_R   0.341934 0.691419 0.245329 -0.230274
C65   C     C_R   0.357549 0.665941 0.269888 0.317031
O18   O     O_2   0.399877 0.621947 0.326987 -0.461928
C66   C     C_R   0.388212 0.757925 0.204656 0.279352
H9    H     H_    0.421081 0.683587 0.221034 0.184946
H10   H     H_    0.069977 0.571894 0.340804 0.156772
C67   C     C_R   0.512333 0.314109 0.639238 0.699885
O19   O     O_2   0.434823 0.302746 0.606810 -0.462230
N5    N     N_R   0.599174 0.350461 0.647460 -0.539550
C68   C     C_R   0.677469 0.362927 0.680274 0.689133
C69   C     C_R   0.474598 0.404995 0.619210 0.324056
C70   C     C_R   0.489301 0.429470 0.593608 -0.195582
C71   C     C_R   0.780766 0.395226 0.570368 0.206958
C72   C     C_R   0.765645 0.370573 0.596323 0.288383
C73   C     C_R   0.613072 0.375563 0.620852 0.193350
C74   C     C_R   0.588934 0.300282 0.697913 -0.052045
C75   C     C_R   0.504751 0.288445 0.664339 -0.058724
C76   C     C_R   0.416901 0.251188 0.656476 -0.089225
C77   C     C_R   0.673335 0.338130 0.706104 -0.052242
C78   C     C_R   0.642147 0.425407 0.569191 -0.214643
H11   H     H_    0.353676 0.241020 0.630682 0.190050
C79   C     C_R   0.511675 0.074082 0.930278 -0.130245
C80   C     C_R   0.469673 0.214277 0.742996 0.008456
C81   C     C_R   0.700430 0.257629 0.779986 -0.028592
C82   C     C_R   0.581694 0.223262 0.774391 0.013041
C83   C     C_R   0.334286 0.183229 0.740308 -0.206250
C84   C     C_R   0.313947 0.160038 0.766592 0.321850
C85   C     C_R   0.437688 0.166062 0.796519 -0.080469
C86   C     C_R   0.571941 0.198035 0.800416 -0.137921
C87   C     C_R   0.694223 0.205029 0.830495 -0.089956
C88   C     C_R   0.684194 0.178689 0.855401 0.649898
N6    N     N_R   0.552949 0.148420 0.851376 -0.566995
C89   C     C_R   0.431629 0.141616 0.822870 0.648287
C90   C     C_R   0.688446 0.096919 0.882296 -0.041303
C91   C     C_R   0.674412 0.072552 0.908048 -0.209507
C92   C     C_R   0.362719 0.101357 0.926207 0.229292
C93   C     C_R   0.378186 0.125438 0.900162 -0.106937
C94   C     C_R   0.539988 0.123363 0.878089 0.300613
O20   O     O_2   0.308751 0.110684 0.820038 -0.477250
C95   C     C_R   0.488290 0.237825 0.715940 0.045878
C96   C     C_R   0.587655 0.274391 0.723371 0.065685
C97   C     C_R   0.682570 0.285643 0.756306 0.045798
C98   C     C_R   0.408034 0.226379 0.681776 -0.167522
H12   H     H_    0.790676 0.052042 0.910243 0.156656
H13   H     H_    0.814420 0.095040 0.865406 0.163241
H14   H     H_    0.232970 0.177741 0.718623 0.158446
H15   H     H_    0.342316 0.197734 0.673494 0.144676
O21   O     O_2   0.760253 0.399062 0.687783 -0.472742
C99   C     C_R   0.747389 0.350653 0.740093 -0.123890
H16   H     H_    0.381635 0.452235 0.593170 0.196233
H17   H     H_    0.803575 0.380383 0.747821 0.182236
C100  C     C_R   0.834292 0.262417 0.808628 0.215006
C101  C     C_R   0.825993 0.237298 0.834397 0.240609
O22   O     O_2   0.804069 0.183016 0.883564 -0.484586
C102  C     C_R   0.747937 0.325248 0.764940 -0.137047
H18   H     H_    0.264387 0.146251 0.897212 0.175868
H19   H     H_    0.792693 0.337952 0.791357 0.168066
C103  C     C_R   0.703221 0.173399 0.200489 0.670213
N7    N     N_R   0.551424 0.173291 0.177336 -0.547521
C104  C     C_R   0.409991 0.201412 0.183446 0.706922
C105  C     C_R   0.416260 0.230931 0.213678 -0.012477
C106  C     C_R   0.574161 0.232403 0.237145 -0.043316
C107  C     C_R   0.721414 0.203523 0.230727 -0.096958
C108  C     C_R   0.267393 0.258901 0.220971 -0.106518
C109  C     C_R   0.274301 0.287974 0.251149 -0.128372
C110  C     C_R   0.432506 0.290467 0.274407 -0.029058
C111  C     C_R   0.583559 0.262850 0.267203 -0.004479
C112  C     C_R   0.743699 0.265701 0.290051 -0.108164
C113  C     C_R   0.889850 0.237305 0.283569 -0.155655
C114  C     C_R   0.879175 0.206163 0.254926 0.310525
C115  C     C_R   0.443715 0.319998 0.304752 0.689361
N8    N     N_R   0.603917 0.323122 0.326224 -0.535747
C116  C     C_R   0.753444 0.296853 0.319133 0.701713
O23   O     O_2   0.834600 0.144303 0.194097 -0.490434
O24   O     O_2   0.263618 0.200971 0.160167 -0.465450
H20   H     H_    0.143383 0.258116 0.203593 0.181149
H21   H     H_    0.155760 0.308671 0.256027 0.181024
O25   O     O_2   0.295903 0.345436 0.312644 -0.480013
O26   O     O_2   0.911214 0.300814 0.340164 -0.473762
H22   H     H_    0.013246 0.238854 0.301180 0.207542
C117  C     C_R   0.599614 0.345530 0.391226 0.321855
C118  C     C_R   0.615878 0.375590 0.420689 -0.246265
H23   H     H_    0.605019 0.368209 0.447032 0.186220
C119  C     C_R   0.642332 0.415055 0.416460 -0.199320
C120  C     C_R   0.650148 0.424564 0.382120 0.182336
C121  C     C_R   0.642538 0.394208 0.352305 0.272667
C122  C     C_R   0.615560 0.354413 0.356708 0.189229
C123  C     C_R   0.670799 0.142930 0.117732 0.276727
C124  C     C_R   0.659029 0.113601 0.087528 -0.220694
H24   H     H_    0.762960 0.113669 0.066447 0.180472
C125  C     C_R   0.510594 0.085204 0.083838 -0.124376
C126  C     C_R   0.375766 0.086197 0.111187 -0.257360
H25   H     H_    0.261093 0.064426 0.108839 0.131130
C127  C     C_R   0.392907 0.113848 0.142561 0.293998
C128  C     C_R   0.539723 0.143042 0.145938 0.270558
O27   O     O_R   0.662230 0.032770 0.966890 -0.538678
O28   O     O_R   0.330090 0.043230 0.039150 -0.535906
O29   O     O_R   0.157350 0.967260 0.033130 -0.546510
C129  C     C_R   0.499335 0.053881 0.052102 0.725766
O30   O     O_R   0.332650 0.037450 0.967510 -0.517413
O31   O     O_R   0.159930 0.961430 0.960980 -0.511725
C130  C     C_R   0.501448 0.046781 0.956689 0.755378
O32   O     O_R   0.659640 0.038600 0.039040 -0.548930
O33   O     O_3   0.492510 0.975090 0.997960 -0.359562
V3    V     V_3+5 0.218600 0.004620 0.000380 1.528415
O34   O     O_R   0.830050 0.956730 0.960830 -0.546091
C131  C     C_R   0.998559 0.946439 0.947550 0.773930
O35   O     O_R   0.827490 0.962520 0.032470 -0.532160
C132  C     C_R   0.996109 0.954223 0.043865 0.803510
V4    V     V_3+5 0.718310 0.995320 0.999580 1.496557
O36   O     O_3   0.994270 0.024900 0.002040 -0.359815
Br1   Br    Br    0.950698 0.694835 0.848171 -0.378733
N9    N     N_2   0.328968 0.936460 0.898280 -0.503954
H26   H     H_    0.459005 0.923187 0.890610 0.262943
C133  C     C_3   0.302403 0.972537 0.883924 -0.484710
H27   H     H_    0.282965 0.965672 0.854753 0.210912
H28   H     H_    0.431897 0.991715 0.889780 0.178090
H29   H     H_    0.174714 0.989018 0.896006 0.186556
N10   N     N_2   0.073736 0.986759 0.116771 -0.524425
H30   H     H_    0.163666 0.998774 0.099959 0.247933
C134  C     C_3   0.898578 0.009351 0.124800 -0.538381
H31   H     H_    0.808589 0.008248 0.100641 0.187514
H32   H     H_    0.936109 0.040690 0.134982 0.200041
H33   H     H_    0.813531 0.997630 0.145362 0.210787
N11   N     N_2   0.106519 0.937040 0.168415 -0.491945
H34   H     H_    0.043874 0.963988 0.177639 0.291135
C135  C     C_3   0.311412 0.937099 0.175777 -0.387578
H35   H     H_    0.336819 0.948025 0.204337 0.226375
H36   H     H_    0.388775 0.956801 0.160116 0.178159
H37   H     H_    0.370266 0.906706 0.169294 0.253330
Br2   Br    Br    0.557033 0.873020 0.237725 -0.484747
Br3   Br    Br    0.227307 0.693063 0.430315 -0.354621
Br4   Br    Br    0.590495 0.736066 0.364691 -0.367675
N12   N     N_2   0.007888 0.641767 0.776970 -0.460748
H38   H     H_    0.900003 0.634171 0.793105 0.295562
C136  C     C_3   0.194056 0.625122 0.783223 -0.330589
H39   H     H_    0.253392 0.639312 0.809212 0.199307
H40   H     H_    0.297243 0.629383 0.761988 0.222673
H41   H     H_    0.177860 0.592888 0.783247 0.211252
Br5   Br    Br    0.913932 0.864896 0.013769 -0.490261
N13   N     N_2   0.952297 0.821385 0.079599 -0.494628
H42   H     H_    0.006439 0.808655 0.055370 0.313211
C137  C     C_3   0.758014 0.808401 0.085611 -0.404564
H43   H     H_    0.750135 0.775623 0.079389 0.194180
H44   H     H_    0.654144 0.821018 0.068395 0.237245
H45   H     H_    0.716951 0.817545 0.113722 0.215016
N14   N     N_2   0.100527 0.513966 0.381404 -0.495209
H46   H     H_    0.141803 0.496284 0.399362 0.258444
C138  C     C_3   0.148773 0.497416 0.345214 -0.315163
H47   H     H_    0.149922 0.464595 0.342019 0.226324
H48   H     H_    0.294023 0.507713 0.338342 0.222153
H49   H     H_    0.038190 0.505638 0.326774 0.219671
Br6   Br    Br    0.540300 0.623611 0.257860 -0.432058
N15   N     N_2   0.577218 0.743678 0.210478 -0.540291
H50   H     H_    0.610675 0.737860 0.235265 0.272839
C139  C     C_3   0.676381 0.720281 0.181000 -0.517497
H51   H     H_    0.808648 0.707239 0.190707 0.211593
H52   H     H_    0.722233 0.739101 0.161573 0.197378
H53   H     H_    0.581693 0.695948 0.167871 0.210037
Br7   Br    Br    0.984963 0.385258 0.535802 -0.406386
Br8   Br    Br    0.952236 0.329528 0.598734 -0.342831
Br9   Br    Br    0.104781 0.122197 0.758977 -0.434010
Br10  Br    Br    0.263497 0.412628 0.651868 -0.383206
N16   N     N_2   0.064731 0.853167 0.721491 -0.469567
H54   H     H_    0.166667 0.859080 0.703444 0.256977
C140  C     C_3   0.874991 0.866886 0.713442 -0.410193
H55   H     H_    0.882668 0.898813 0.711487 0.212526
H56   H     H_    0.770988 0.863069 0.734683 0.215616
H57   H     H_    0.822154 0.850226 0.687813 0.168555
N17   N     N_2   0.989160 0.290187 0.809877 -0.543742
H58   H     H_    0.027359 0.304868 0.834587 0.262441
C141  C     C_3   0.152886 0.276153 0.788188 -0.512094
H59   H     H_    0.260999 0.300308 0.789005 0.202970
H60   H     H_    0.107349 0.266581 0.760255 0.222263
H61   H     H_    0.220512 0.251010 0.798393 0.190118
Br11  Br    Br    0.138770 0.109345 0.956076 -0.493499
N18   N     N_2   0.953010 0.244340 0.864135 -0.473829
H62   H     H_    0.095151 0.249665 0.858427 0.257374
C142  C     C_3   0.878690 0.271425 0.894072 -0.435410
H63   H     H_    0.862752 0.301556 0.887399 0.157392
H64   H     H_    0.980043 0.272881 0.916733 0.214164
H65   H     H_    0.735960 0.261090 0.902227 0.218394
Br12  Br    Br    0.088319 0.169091 0.252114 -0.468496
Br13  Br    Br    0.550113 0.292623 0.399120 -0.349259
N19   N     N_2   0.791095 0.662393 0.622312 -0.478320
H66   H     H_    0.760664 0.677819 0.647096 0.287354
C143  C     C_3   0.734101 0.682198 0.593335 -0.418371
H67   H     H_    0.733702 0.714721 0.602342 0.208789
H68   H     H_    0.586026 0.672519 0.584618 0.207164
H69   H     H_    0.833574 0.675783 0.570396 0.187798
Br14  Br    Br    0.661102 0.479199 0.376160 -0.502169
Br15  Br    Br    0.674085 0.406785 0.305522 -0.400041
Br16  Br    Br    0.862262 0.183522 0.118674 -0.398454
N20   N     N_2   0.264261 0.111577 0.170978 -0.449701
H70   H     H_    0.127177 0.102461 0.162655 0.298293
C144  C     C_3   0.339038 0.088743 0.196486 -0.425292
H71   H     H_    0.231555 0.088077 0.217818 0.246295
H72   H     H_    0.474456 0.102279 0.208600 0.220832
H73   H     H_    0.367398 0.057789 0.183574 0.165614
Br17  Br    Br    0.512520 0.555335 0.608272 -0.445580
Br18  Br    Br    0.468478 0.627328 0.677120 -0.438374
Br19  Br    Br    0.622685 0.826381 0.868493 -0.469083

loop_
_geom_bond_atom_site_label_1
_geom_bond_atom_site_label_2
_ccdc_geom_bond_type
O30   C130  A    
N3    C32   A    
N6    C89   A    
C9    C16   A    
C23   Br18  S    
C144  H73   S    
C21   C22   A    
N16   C140  S    
C6    C7    A    
C117  Br13  S    
C23   C24   A    
C90   C91   A    
C133  H29   S    
C95   C98   A    
N12   C136  S    
C119  C120  A    
C33   C34   A    
N13   H42   S    
N1    C30   S    
C96   C97   A    
C71   C78   A    
C115  N8    A    
N7    C128  S    
C31   O15   S    
C83   C84   A    
C143  H69   S    
C19   C24   A    
C38   C60   A    
N17   H58   S    
C13   C14   A    
C63   H8    S    
C109  H21   S    
C17   O13   S    
O32   V4    S    
C70   H16   S    
C18   O14   S    
C1    C78   S    
C15   C16   A    
C90   H13   S    
O28   V3    S    
C144  H71   S    
C135  H37   S    
C98   H15   S    
C134  H32   S    
C35   C42   A    
C59   C60   A    
C17   N2    A    
C92   Br11  S    
C64   H9    S    
C16   N16   S    
N4    C58   S    
C139  H52   S    
C138  H47   S    
C137  H44   S    
V3    O36   S    
C142  H65   S    
C72   C73   A    
C136  H41   S    
C5    N1    A    
N14   H46   S    
C49   C50   A    
O29   V3    S    
C56   N14   S    
C85   C89   A    
C28   C29   A    
C74   C75   A    
C40   Br2   S    
C101  N18   S    
N5    C68   A    
C141  H59   S    
C103  O23   S    
C123  Br16  S    
C123  C124  A    
C32   O17   S    
O8    V2    S    
C34   C42   A    
C79   C91   A    
C28   N9    S    
C15   H1    S    
O34   C131  A    
C138  H48   S    
C48   Br4   S    
C46   C50   A    
C99   C102  A    
C29   C30   A    
N19   H66   S    
C7    C10   A    
C100  N17   S    
O33   V3    S    
C83   H14   S    
C123  C128  A    
N6    C94   S    
O7    V1    S    
C65   Br6   S    
C120  Br14  S    
C45   C61   A    
C1    O6    A    
C116  O26   S    
C61   C66   A    
C115  O25   S    
C118  C119  A    
C55   H5    S    
C35   C36   A    
C67   N5    A    
C8    C9    A    
C81   C82   A    
C105  C108  A    
C121  Br15  S    
C44   C59   A    
N13   C137  S    
C129  O32   A    
C74   C96   A    
C45   C46   A    
N8    C122  S    
C5    O11   S    
C140  H57   S    
C80   C95   A    
C90   C94   A    
N12   H38   S    
C33   N13   S    
C8    C13   A    
N15   C139  S    
C51   C65   A    
C29   H4    S    
O31   V3    S    
C31   N3    A    
C14   C15   A    
C3    C43   S    
C26   C27   A    
C11   N12   S    
N2    C24   S    
C91   H12   S    
N9    H26   S    
C67   O19   S    
C22   Br17  S    
C86   C87   A    
C77   C99   A    
C52   N4    A    
C140  H56   S    
C50   C51   A    
C80   C83   A    
N11   H34   S    
O4    C2    A    
C80   C82   A    
C60   C61   A    
N1    C6    A    
C25   C30   A    
C45   C64   A    
C143  H67   S    
N4    C53   A    
C27   C131  S    
C141  H61   S    
C56   C57   A    
C100  C101  A    
C112  C116  A    
C104  O24   S    
C36   C37   A    
N14   C138  S    
N20   C144  S    
C108  C109  A    
O2    C1    A    
C51   C52   A    
O28   C129  A    
C124  H24   S    
C66   N15   S    
C135  H35   S    
C53   O16   S    
O34   V4    S    
N11   C135  S    
C124  C125  A    
C32   C41   A    
C109  C110  A    
C107  C114  A    
C62   H7    S    
C81   C100  A    
C75   C76   A    
C49   C53   A    
C138  H49   S    
C7    C8    A    
C38   C39   A    
C133  H27   S    
C104  C105  A    
C79   C92   A    
C12   C13   A    
C110  C115  A    
C11   C12   A    
C136  H40   S    
C74   C77   A    
C84   C85   A    
O3    C4    A    
O35   V4    S    
C126  H25   S    
C4    C21   S    
O1    V2    S    
C42   C132  S    
C2    C119  S    
C44   C46   A    
C27   C28   A    
C70   C78   A    
C106  C111  A    
C43   C56   A    
O6    V2    S    
C82   C86   A    
O9    V2    S    
C72   Br8   S    
O33   V4    S    
C88   N6    A    
C25   Br19  S    
C68   O21   S    
C54   C55   A    
C36   N11   S    
C54   C58   A    
C67   C75   A    
C22   C23   A    
C71   C72   A    
C126  C127  A    
C93   C94   A    
O2    V1    S    
N18   C142  S    
C20   H2    S    
C81   C97   A    
C121  C122  A    
C84   Br9   S    
N9    C133  S    
C112  C113  A    
C59   C62   A    
C12   C17   A    
C99   H17   S    
C69   C73   A    
C26   H3    S    
C118  H23   S    
C69   Br10  S    
C134  H33   S    
C54   Br3   S    
C38   C41   A    
C14   C18   A    
O1    C2    A    
C57   H10   S    
C76   C98   A    
N2    C18   A    
C108  H20   S    
C43   C55   A    
C89   O20   S    
C125  C129  S    
C48   C49   A    
C34   Br5   S    
C6    O12   S    
O5    V1    S    
C25   C26   A    
C97   C102  A    
O8    C3    A    
C35   N10   S    
C33   C37   A    
C95   C96   A    
O31   C131  A    
O27   C130  A    
C120  C121  A    
C143  H68   S    
C20   C21   A    
C69   C70   A    
C5    C9    A    
C88   O22   S    
C117  C122  A    
N5    C73   S    
N20   H70   S    
C102  H19   S    
C92   C93   A    
C52   O18   S    
N10   C134  S    
O4    V1    S    
C135  H36   S    
C117  C118  A    
V1    O10   S    
N15   H50   S    
C140  H55   S    
O5    C3    A    
C31   C39   A    
O27   V4    S    
C125  C126  A    
C19   C20   A    
N8    C116  A    
C111  C112  A    
C10   Br1   S    
C139  H53   S    
C44   C47   A    
N10   H30   S    
V2    O10   S    
N3    C37   S    
C41   C63   A    
C68   C77   A    
C142  H64   S    
O29   C132  A    
C47   H6    S    
C103  C107  A    
C144  H72   S    
N19   C143  S    
C134  H31   S    
O7    V2    S    
C136  H39   S    
C114  Br12  S    
C110  C111  A    
C137  H43   S    
C139  H51   S    
C113  C114  A    
C141  H60   S    
C10   C11   A    
C39   C40   A    
C79   C130  S    
O30   V3    S    
C127  N20   S    
C19   N19   S    
C47   C48   A    
C106  C107  A    
V4    O36   S    
C71   Br7   S    
N17   C141  S    
C57   C58   A    
O35   C132  A    
C137  H45   S    
N16   H54   S    
C105  C106  A    
O3    V1    S    
C133  H28   S    
C127  C128  A    
C93   H18   S    
C103  N7    A    
C85   C86   A    
O9    C4    A    
C113  H22   S    
C63   C66   A    
C40   C62   A    
C76   H11   S    
C64   C65   A    
C87   C101  A    
N18   H62   S    
C87   C88   A    
N7    C104  A    
C142  H63   S    
