data_mof_unit_48118.cif
_audit_creation_date              2012-12-10T17:13:35-0500
_audit_creation_method            fapswitch 2.2
_symmetry_space_group_name_H-M    P1
_symmetry_Int_Tables_number       1
_space_group_crystal_system       triclinic
_cell_length_a                    10.778784
_cell_length_b                    13.06559
_cell_length_c                    11.852156
_cell_angle_alpha                 99.80256
_cell_angle_beta                  92.61985
_cell_angle_gamma                 96.497913
_cell_volume                      1630.61495797

loop_
_atom_site_label
_atom_site_type_symbol
_atom_type_description
_atom_site_fract_x
_atom_site_fract_y
_atom_site_fract_z
_atom_type_partial_charge
C1    C     C_R   0.500461 0.299355 0.477998 0.865215
C2    C     C_3   0.878658 0.502284 0.497771 0.022048
C3    C     C_3   0.939070 0.596813 0.446046 0.165497
C4    C     C_3   0.911871 0.398738 0.427555 -0.351819
C5    C     C_R   0.504454 0.815156 0.535672 -0.160660
C6    C     C_R   0.503922 0.185474 0.463849 -0.163380
C7    C     C_R   0.501132 0.013918 0.343850 0.292611
C8    C     C_R   0.512503 0.123914 0.355220 0.284975
C9    C     C_R   0.500596 0.138778 0.561356 -0.172749
C10   C     C_R   0.510949 0.032550 0.554700 -0.067577
C11   C     C_R   0.507104 0.968730 0.444579 -0.034401
C12   C     C_R   0.260467 0.500805 0.500883 0.882302
C13   C     C_R   0.512264 0.861589 0.438094 -0.219828
C14   C     C_R   0.501952 0.877812 0.644532 0.372163
C15   C     C_R   0.520140 0.987668 0.655310 0.327583
C16   C     C_R   0.365071 0.407600 0.030959 -0.146710
C17   C     C_R   0.379724 0.417059 0.149749 0.040920
C18   C     C_R   0.561616 0.537252 0.154346 0.628257
C19   C     C_R   0.546538 0.533670 0.033540 -0.161932
C20   C     C_R   0.449501 0.465514 0.968893 -0.147640
C21   C     C_R   0.439511 0.456682 0.845738 0.420372
C22   C     C_R   0.614669 0.591262 0.857125 0.466194
C23   C     C_R   0.501248 0.700757 0.521832 0.913430
C24   C     C_R   0.625397 0.598792 0.977519 0.294967
C25   C     C_R   0.740062 0.500770 0.499107 0.826035
C26   C     C_3   0.076744 0.505425 0.624552 0.236956
C27   C     C_3   0.936197 0.513339 0.622525 -0.499863
C28   C     C_3   0.084278 0.597876 0.450273 0.197063
C29   C     C_3   0.055440 0.401160 0.425224 -0.545986
C30   C     C_3   0.122854 0.502816 0.501750 -0.005126
Cu1   Cu    Cu3+1 0.509350 0.507730 0.615930 1.104777
Cu2   Cu    Cu3+1 0.490650 0.492270 0.384070 1.007283
H1    H     H_    0.869408 0.386342 0.338195 0.245975
H2    H     H_    0.113921 0.589073 0.360675 0.191810
H3    H     H_    0.522857 0.812890 0.356824 0.233871
H4    H     H_    0.487116 0.185946 0.642598 0.246201
H5    H     H_    0.091921 0.429947 0.650666 0.208066
H6    H     H_    0.285418 0.354451 0.992023 0.241643
H7    H     H_    0.313551 0.372507 0.194271 0.150371
H8    H     H_    0.890147 0.451790 0.666528 0.203698
H9    H     H_    0.920715 0.590389 0.671158 0.262863
H10   H     H_    0.913143 0.670220 0.497331 0.104617
H11   H     H_    0.082177 0.396661 0.335052 0.213210
H12   H     H_    0.084488 0.330871 0.455692 0.209826
H13   H     H_    0.872850 0.331419 0.466733 0.172978
N1    N     N_R   0.523430 0.519360 0.790130 -0.316752
N2    N     N_R   0.476570 0.480640 0.209880 -0.240748
O1    O     O_R   0.506640 0.354460 0.582000 -0.563129
O2    O     O_R   0.490840 0.341410 0.386200 -0.533877
O3    O     O_R   0.325590 0.506510 0.597900 -0.489655
O4    O     O_R   0.309790 0.493450 0.402100 -0.628504
O5    O     O_R   0.509160 0.658590 0.613800 -0.462637
O6    O     O_R   0.493360 0.645540 0.418000 -0.642174
O7    O     O_R   0.690210 0.506550 0.597900 -0.557844
O8    O     O_R   0.674410 0.493490 0.402100 -0.554160
O9    O     O_3   0.142143 0.588488 0.704108 -0.668042
H14   H     H_    0.122382 0.575150 0.781701 0.378451
O10   O     O_3   0.892859 0.589264 0.331817 -0.670108
H15   H     H_    0.915751 0.658860 0.310341 0.365062
O11   O     O_3   0.483666 0.829971 0.738831 -0.616971
H16   H     H_    0.447003 0.877501 0.798804 0.390998
S1    S     S_3+6 0.468617 0.935670 0.204151 0.017360
O12   O     O_2   0.588829 0.901462 0.160978 -0.271806
O13   O     O_2   0.377330 0.840490 0.207803 -0.277714
O14   O     O_3   0.407187 0.003373 0.111217 -0.437098
H17   H     H_    0.326567 0.020385 0.141836 0.369538
S2    S     S_3+6 0.572561 0.063125 0.792952 0.018883
O15   O     O_2   0.639459 0.168853 0.785264 -0.315451
O16   O     O_2   0.462112 0.075378 0.864775 -0.260624
O17   O     O_3   0.672814 0.998621 0.857924 -0.434193
H18   H     H_    0.681718 0.034096 0.939203 0.403850
O18   O     O_3   0.531671 0.172706 0.261842 -0.673082
H19   H     H_    0.584076 0.131347 0.209596 0.376469
S3    S     S_3+6 0.314973 0.358343 0.774887 0.022991
O19   O     O_2   0.193989 0.389923 0.819179 -0.315923
O20   O     O_2   0.297259 0.333162 0.647123 -0.295072
O21   O     O_3   0.336488 0.245230 0.817549 -0.474207
H20   H     H_    0.427531 0.251742 0.836883 0.369677
S4    S     S_3+6 0.723301 0.688158 0.809347 0.101982
O22   O     O_2   0.693950 0.792525 0.869454 -0.167638
O23   O     O_2   0.851592 0.673952 0.854825 -0.262766
O24   O     O_3   0.733458 0.696792 0.670643 -0.560640
H21   H     H_    0.791050 0.761400 0.670137 0.356942
O25   O     O_3   0.712308 0.675321 0.040308 -0.574977
H22   H     H_    0.664610 0.721520 0.092443 0.383667
O26   O     O_3   0.666420 0.594281 0.213737 -0.671410
H23   H     H_    0.644698 0.621613 0.291577 0.360275
O27   O     O_3   0.147733 0.693833 0.508780 -0.709056
H24   H     H_    0.106421 0.715092 0.580583 0.374010

loop_
_geom_bond_atom_site_label_1
_geom_bond_atom_site_label_2
_ccdc_geom_bond_type
C3    H10   S    
C19   C20   A    
Cu1   O5    S    
C18   N2    A    
C6    C9    A    
C7    C8    A    
C7    S1    S    
O21   H20   S    
C7    C11   A    
C26   C27   S    
C18   O26   S    
S3    O20   D    
C3    C28   S    
C22   S4    S    
C13   H3    S    
C10   C15   A    
O9    H14   S    
C18   C19   A    
C17   H7    S    
S1    O13   D    
C16   C17   A    
S3    O21   S    
C28   O27   S    
C9    H4    S    
O17   H18   S    
C9    C10   A    
Cu2   O8    S    
C5    C13   A    
C4    C29   S    
C28   H2    S    
C29   H11   S    
C23   O6    A    
C4    H13   S    
C8    O18   S    
S3    O19   D    
S2    O15   D    
C25   O8    A    
O25   H22   S    
S4    O23   D    
O26   H23   S    
C6    C8    A    
O10   H15   S    
C21   S3    S    
Cu1   N1    S    
C1    C6    S    
O11   H16   S    
S2    O16   D    
C2    C4    S    
Cu2   O4    S    
C29   C30   S    
C27   H9    S    
Cu1   Cu2   S    
C5    C23   S    
C27   H8    S    
C16   C20   A    
C15   S2    S    
C20   C21   A    
S1    O12   D    
C1    O1    A    
C25   O7    A    
C5    C14   A    
C2    C27   S    
C22   N1    A    
C26   C30   S    
Cu1   O1    S    
C29   H12   S    
Cu2   N2    S    
C22   C24   A    
Cu1   O3    S    
Cu2   O6    S    
C12   O4    A    
C21   N1    A    
C4    H1    S    
S1    O14   S    
C12   C30   S    
C17   N2    A    
O18   H19   S    
C26   O9    S    
S4    O24   S    
C12   O3    A    
C26   H5    S    
C14   O11   S    
S2    O17   S    
C28   C30   S    
C2    C3    S    
C24   O25   S    
C11   C13   A    
C23   O5    A    
C19   C24   A    
C2    C25   S    
O14   H17   S    
Cu1   O7    S    
Cu2   O2    S    
C10   C11   A    
S4    O22   D    
C3    O10   S    
O27   H24   S    
O24   H21   S    
C14   C15   A    
C1    O2    A    
C16   H6    S    
