data_mof_unit_14267.cif
_audit_creation_date              2013-03-05T15:51:16-0500
_audit_creation_method            fapswitch 2.2
_symmetry_space_group_name_H-M    P1
_symmetry_Int_Tables_number       1
_space_group_crystal_system       triclinic
_cell_length_a                    9.647429
_cell_length_b                    10.817766
_cell_length_c                    13.853689
_cell_angle_alpha                 94.551348
_cell_angle_beta                  85.436134
_cell_angle_gamma                 90.073536
_cell_volume                      1436.67375853

loop_
_atom_site_label
_atom_site_type_symbol
_atom_site_description
_atom_site_fract_x
_atom_site_fract_y
_atom_site_fract_z
_atom_type_partial_charge
O1    O     O_R   0.381190 0.680360 0.500010 -0.567838
O2    O     O_R   0.618760 0.680340 0.500000 -0.568787
C1    C     C_R   0.499352 0.737787 0.507657 0.850873
O3    O     O_R   0.364420 0.499990 0.637850 -0.569014
O4    O     O_R   0.601990 0.499960 0.637840 -0.541126
C2    C     C_R   0.477903 0.493420 0.682060 0.877740
Cu1   Cu    Cu3+1 0.359340 0.500010 0.500010 1.038842
Cu2   Cu    Cu3+1 0.640660 0.499990 0.499990 1.014083
O5    O     O_R   0.381240 0.319660 0.500000 -0.560005
O6    O     O_R   0.618810 0.319640 0.499990 -0.608451
O7    O     O_R   0.398010 0.500040 0.362160 -0.513880
O8    O     O_R   0.635580 0.500010 0.362150 -0.597217
C3    C     C_R   0.500526 0.262860 0.500418 0.784346
C4    C     C_R   0.522162 0.500882 0.317346 0.850205
C5    C     C_1   0.534665 0.502080 0.214203 -0.065918
C6    C     C_2   0.555080 0.505312 0.023793 -0.080560
C7    C     C_2   0.446801 0.471226 0.974004 -0.122314
C8    C     C_1   0.455731 0.477558 0.870840 0.089998
C9    C     C_1   0.544899 0.503376 0.127371 0.057325
C10   C     C_1   0.465371 0.484432 0.784533 -0.016744
H1    H     H_    0.350540 0.440377 0.010540 0.180884
H2    H     H_    0.651087 0.536649 0.987206 0.193127
H3    H     H_    0.419737 0.870651 0.373466 0.175457
C11   C     C_R   0.587855 0.900513 0.681867 0.284662
C12   C     C_R   0.651282 0.977814 0.751399 -0.215006
H4    H     H_    0.682856 0.939444 0.816143 0.224688
C13   C     C_R   0.665005 0.104607 0.742380 0.318458
C14   C     C_R   0.612216 0.154492 0.662968 -0.264046
H5    H     H_    0.616434 0.253643 0.660617 0.183033
C15   C     C_R   0.555151 0.078348 0.588451 0.010360
C16   C     C_R   0.547676 0.948145 0.595149 -0.004695
C17   C     C_R   0.498405 0.872994 0.515299 -0.078260
C18   C     C_R   0.454163 0.927411 0.435033 -0.110445
H6    H     H_    0.426324 0.093774 0.367044 0.225212
C19   C     C_R   0.456680 0.054409 0.431463 -0.048475
C20   C     C_R   0.502984 0.130038 0.507918 -0.057626
H7    H     H_    0.861927 0.665716 0.589402 0.160460
C21   C     C_R   0.863526 0.311727 0.393927 -0.265286
H8    H     H_    0.763957 0.324558 0.367975 0.243972
C22   C     C_R   0.921934 0.194347 0.377013 0.241960
C23   C     C_R   0.063043 0.181181 0.388925 0.276196
C24   C     C_R   0.142954 0.289275 0.404411 0.276315
C25   C     C_R   0.077925 0.400922 0.450756 0.091473
C26   C     C_R   0.929607 0.405828 0.448392 0.107613
N1    N     N_R   0.852210 0.498790 0.499090 -0.179156
C27   C     C_R   0.921014 0.591093 0.548868 0.023241
H9    H     H_    0.118882 0.667211 0.587461 0.162154
C28   C     C_R   0.068641 0.591904 0.547866 -0.003632
N2    N     N_R   0.148080 0.498710 0.499060 -0.180264
N3    N     N_R   0.838878 0.091883 0.342678 0.176651
O9    O     O_R   0.739585 0.109964 0.286952 -0.342631
O10   O     O_R   0.848402 0.984512 0.377914 -0.291562
Cl1   Cl    Cl    0.144416 0.036389 0.354459 -0.506372
Cl2   Cl    Cl    0.276721 0.291019 0.311143 -0.557000
N4    N     N_R   0.546973 0.780536 0.708762 0.089407
O11   O     O_R   0.630835 0.717944 0.755871 -0.382582
O12   O     O_R   0.414799 0.755481 0.716539 -0.384715
N5    N     N_R   0.726872 0.183443 0.815877 0.141014
O13   O     O_R   0.765190 0.138478 0.894081 -0.307219
O14   O     O_R   0.747968 0.300480 0.804544 -0.358926

loop_
_geom_bond_atom_site_label_1
_geom_bond_atom_site_label_2
_geom_bond_distance
_ccdc_geom_bond_type
O4    Cu2   1.916500 S    
N3    O10   1.301244 A    
N4    O11   1.301743 A    
C21   C26   1.401782 A    
C12   C13   1.392333 A    
C2    C10   1.426176 S    
C23   C24   1.411351 A    
Cu1   O7    1.916500 S    
C19   C20   1.388378 A    
Cu2   N1    2.040010 S    
C15   C20   1.414151 A    
Cu2   O8    1.914133 S    
C17   C18   1.394734 A    
C14   C15   1.414784 A    
O2    C1    1.302471 A    
N5    O13   1.301889 A    
C11   C16   1.425446 A    
Cu1   Cu2   2.713993 S    
O1    Cu1   1.962070 S    
N1    C27   1.369327 A    
C24   Cl2   1.753218 S    
C11   N4    1.425107 S    
C21   C22   1.385057 A    
C23   Cl1   1.767048 S    
C15   C16   1.420247 A    
C28   N2    1.368289 A    
O3    Cu1   1.914133 S    
C22   N3    1.439318 S    
O4    C2    1.305120 A    
Cu2   O6    1.962070 S    
C22   C23   1.393112 A    
C18   C19   1.378748 A    
O8    C4    1.300641 A    
H3    C18   1.084557 S    
C7    C8    1.432005 S    
C8    C10   1.200094 T    
N4    O12   1.301132 A    
C25   C26   1.435015 A    
C6    C9    1.432304 S    
C1    C17   1.458047 S    
O7    C4    1.304858 A    
C27   C28   1.423204 A    
H7    C27   1.081778 S    
C24   C25   1.441974 A    
N5    O14   1.301852 A    
C14   H5    1.076291 S    
C21   H8    1.065115 S    
C11   C12   1.402236 A    
Cu1   N2    2.039229 S    
C3    C20   1.449144 S    
O3    C2    1.301009 A    
H6    C19   1.079720 S    
C13   C14   1.394631 A    
Cu1   O5    1.962647 S    
O5    C3    1.305902 A    
C4    C5    1.425478 S    
C25   N2    1.408127 A    
C6    H2    1.086950 S    
N3    O9    1.301542 A    
C12   H4    1.082797 S    
C5    C9    1.200323 T    
O6    C3    1.295067 A    
C16   C17   1.431967 A    
O2    Cu2   1.962648 S    
C26   N1    1.366938 A    
H9    C28   1.081603 S    
C6    C7    1.332769 D    
O1    C1    1.305232 A    
C13   N5    1.441490 S    
C7    H1    1.086833 S    
