data_mof_unit_43895.cif
_audit_creation_date              2012-12-10T17:14:43-0500
_audit_creation_method            fapswitch 2.2
_symmetry_space_group_name_H-M    P1
_symmetry_Int_Tables_number       1
_space_group_crystal_system       triclinic
_cell_length_a                    10.663743
_cell_length_b                    12.985508
_cell_length_c                    11.756313
_cell_angle_alpha                 100.030667
_cell_angle_beta                  94.429574
_cell_angle_gamma                 92.364396
_cell_volume                      1595.78984853

loop_
_atom_site_label
_atom_site_type_symbol
_atom_type_description
_atom_site_fract_x
_atom_site_fract_y
_atom_site_fract_z
_atom_type_partial_charge
C1    C     C_R   0.496569 0.299191 0.478314 0.845371
C2    C     C_R   0.503432 0.700808 0.521686 0.845370
C3    C     C_R   0.442579 0.133104 0.544864 0.131547
C4    C     C_R   0.557427 0.866897 0.455138 0.131547
C5    C     C_R   0.469956 0.028402 0.547202 -0.003185
C6    C     C_R   0.530052 0.971599 0.452800 -0.003184
C7    C     C_R   0.362345 0.415825 0.020765 0.063414
C8    C     C_R   0.637655 0.584174 0.979235 0.063414
C9    C     C_R   0.381705 0.416994 0.141948 0.350912
C10   C     C_R   0.618295 0.583006 0.858052 0.350912
C11   C     C_R   0.559162 0.535971 0.157346 0.058091
C12   C     C_R   0.440838 0.464029 0.842654 0.058091
C13   C     C_R   0.550247 0.530022 0.034509 -0.067231
C14   C     C_R   0.449753 0.469977 0.965491 -0.067230
C15   C     C_R   0.259471 0.500022 0.499657 0.891632
C16   C     C_R   0.740529 0.499978 0.500343 0.891631
C17   C     C_3   0.041093 0.412436 0.534567 -0.356094
C18   C     C_3   0.958907 0.587565 0.465433 -0.356094
C19   C     C_3   0.947866 0.415099 0.427443 0.083285
C20   C     C_3   0.052134 0.584903 0.572557 0.083285
C21   C     C_3   0.877031 0.499748 0.500630 -0.272819
C22   C     C_3   0.122969 0.500253 0.499370 -0.272820
C23   C     C_3   0.969010 0.497575 0.606570 0.698529
C24   C     C_3   0.030990 0.502427 0.393430 0.698529
C25   C     C_R   0.502074 0.814323 0.534527 -0.128422
C26   C     C_R   0.497930 0.185677 0.465473 -0.128423
C27   C     C_R   0.559452 0.021889 0.359691 0.218059
C28   C     C_R   0.440557 0.978112 0.640312 0.218056
C29   C     C_R   0.551567 0.129406 0.371219 -0.213897
C30   C     C_R   0.448438 0.870594 0.628782 -0.213897
Cu1   Cu    Cu3+1 0.509400 0.507730 0.615930 1.029202
Cu2   Cu    Cu3+1 0.490600 0.492270 0.384070 1.029203
H1    H     H_    0.074299 0.341062 0.564011 0.226956
H2    H     H_    0.925700 0.658939 0.435989 0.226955
H3    H     H_    0.418277 0.831411 0.696977 0.203228
H4    H     H_    0.581726 0.168590 0.303024 0.203228
H5    H     H_    0.368093 0.415353 0.787524 0.182222
H6    H     H_    0.631908 0.584646 0.212476 0.182222
N1    N     N_R   0.523540 0.519360 0.790140 -0.235013
N2    N     N_R   0.476460 0.480640 0.209860 -0.235013
O1    O     O_R   0.506670 0.354460 0.582000 -0.568822
O2    O     O_R   0.493330 0.645540 0.418000 -0.568821
O3    O     O_R   0.490800 0.341410 0.386200 -0.579596
O4    O     O_R   0.509200 0.658590 0.613800 -0.579596
O5    O     O_R   0.324790 0.506500 0.597880 -0.581700
O6    O     O_R   0.675210 0.493500 0.402120 -0.581702
O7    O     O_R   0.308910 0.493440 0.402080 -0.535292
O8    O     O_R   0.691090 0.506560 0.597920 -0.535292
I1    I     I_    0.866695 0.280187 0.310490 -0.180440
I2    I     I_    0.133305 0.719814 0.689510 -0.180441
F1    F     F_    0.935940 0.494451 0.717391 -0.591140
F2    F     F_    0.064059 0.505550 0.282610 -0.591141
I3    I     I_    0.722652 0.802413 0.386080 -0.270080
I4    I     I_    0.277346 0.197585 0.613915 -0.270079
I5    I     I_    0.584660 0.945642 0.187633 -0.180654
I6    I     I_    0.415360 0.054362 0.812377 -0.180654
I7    I     I_    0.734177 0.692060 0.789057 -0.110840
I8    I     I_    0.265823 0.307940 0.210943 -0.110838
I9    I     I_    0.195399 0.338590 0.923285 -0.107221
I10   I     I_    0.804602 0.661407 0.076714 -0.107218

loop_
_geom_bond_atom_site_label_1
_geom_bond_atom_site_label_2
_ccdc_geom_bond_type
C24   F2    S    
C11   H6    S    
C16   C21   S    
C17   C22   S    
C4    I3    S    
C27   C29   A    
C5    C28   A    
C11   C13   A    
C19   I1    S    
C27   I5    S    
C23   F1    S    
Cu1   Cu2   S    
Cu1   N1    S    
C20   C23   S    
C15   O7    A    
C16   O8    A    
C12   N1    A    
C28   C30   A    
C4    C25   A    
C28   I6    S    
C3    C26   A    
C17   C23   S    
C13   C14   A    
C8    I10   S    
C1    O1    A    
C18   H2    S    
C29   H4    S    
C8    C13   A    
C17   H1    S    
C30   H3    S    
C2    O2    A    
C18   C24   S    
C5    C6    A    
C7    I9    S    
Cu2   O7    S    
C17   C19   S    
Cu2   O3    S    
C12   C14   A    
C19   C24   S    
C2    C25   S    
C18   C20   S    
Cu1   O8    S    
C9    N2    A    
C21   C23   S    
C1    C26   S    
C3    I4    S    
C22   C24   S    
C4    C6    A    
Cu1   O4    S    
C20   C22   S    
C11   N2    A    
C18   C21   S    
C12   H5    S    
C10   I7    S    
C26   C29   A    
C8    C10   A    
C9    I8    S    
Cu1   O5    S    
C16   O6    A    
C25   C30   A    
C7    C9    A    
Cu2   O2    S    
Cu2   N2    S    
C20   I2    S    
Cu1   O1    S    
C19   C21   S    
Cu2   O6    S    
C1    O3    A    
C15   C22   S    
C7    C14   A    
C6    C27   A    
C2    O4    A    
C10   N1    A    
C3    C5    A    
C15   O5    A    
