data_mof_unit_34696.cif
_audit_creation_date              2012-12-11T14:08:30-0500
_audit_creation_method            fapswitch 2.2
_symmetry_space_group_name_H-M    P1
_symmetry_Int_Tables_number       1
_space_group_crystal_system       triclinic
_cell_length_a                    10.989839
_cell_length_b                    10.943779
_cell_length_c                    18.708401
_cell_angle_alpha                 89.837472
_cell_angle_beta                  89.39959
_cell_angle_gamma                 60.022994
_cell_volume                      1948.95142463

loop_
_atom_site_label
_atom_site_type_symbol
_atom_type_description
_atom_site_fract_x
_atom_site_fract_y
_atom_site_fract_z
_atom_type_partial_charge
C1    C     C_R   0.239486 0.644237 0.609725 0.551270
C2    C     C_2   0.777030 0.160297 0.705909 -0.175365
C3    C     C_2   0.190545 0.658992 0.683671 -0.142921
C4    C     C_R   0.650036 0.617656 0.603395 0.577398
C5    C     C_2   0.202854 0.657109 0.841571 -0.110286
C6    C     C_2   0.201482 0.556057 0.801829 -0.183008
C7    C     C_2   0.232042 0.544129 0.724873 -0.185347
C8    C     C_2   0.682386 0.688813 0.335820 -0.108486
C9    C     C_2   0.712007 0.722002 0.180744 -0.095755
C10   C     C_2   0.819825 0.640450 0.223504 -0.146841
C11   C     C_2   0.800531 0.610012 0.297835 -0.140518
C12   C     C_3   0.694495 0.530315 0.801431 0.014925
C13   C     C_2   0.636176 0.192253 0.319798 -0.083981
C14   C     C_2   0.630400 0.209095 0.161349 -0.007047
C15   C     C_2   0.528966 0.215686 0.203841 -0.182456
C16   C     C_R   0.625430 0.231428 0.602619 0.542172
C17   C     C_2   0.520971 0.249263 0.278570 -0.159074
C18   C     C_2   0.256386 0.628060 0.318729 -0.056042
C19   C     C_2   0.193720 0.639699 0.168936 -0.128189
C20   C     C_2   0.258468 0.704204 0.196319 -0.134562
C21   C     C_2   0.299301 0.691011 0.271067 0.095575
C22   C     C_R   0.704353 0.101383 0.897487 0.537163
C23   C     C_3   0.697172 0.670633 0.814141 0.048298
C24   C     C_R   0.722229 0.686762 0.889324 0.556560
C25   C     C_R   0.120911 0.705089 0.908012 0.557601
C26   C     C_R   0.671826 0.115830 0.100384 0.535310
C27   C     C_R   0.735196 0.720833 0.104063 0.584949
C28   C     C_R   0.291353 0.619224 0.393060 0.603139
C29   C     C_R   0.100972 0.704414 0.109726 0.546209
C30   C     C_R   0.647265 0.628151 0.396913 0.571576
C31   C     C_R   0.615095 0.232518 0.393923 0.544785
C32   C     C_3   0.552726 0.793907 0.789018 -0.276120
C33   C     C_3   0.533774 0.776314 0.709227 -0.251637
C34   C     C_3   0.665362 0.641570 0.678601 0.057795
C35   C     C_3   0.810306 0.683177 0.768032 -0.198512
C36   C     C_1   0.946528 0.047755 0.802226 0.230111
C37   C     C_1   0.710418 0.277708 0.178921 0.206737
C38   C     C_3   0.288724 0.910789 0.300198 -0.273509
C39   C     C_3   0.736157 0.862116 0.620371 -0.281076
C40   C     C_3   0.955300 0.346686 0.810255 -0.271661
C41   C     C_3   0.805827 0.640794 0.690481 0.020265
C42   C     C_3   0.675136 0.514134 0.721217 -0.209033
C43   C     C_2   0.664335 0.171849 0.673385 -0.152059
C44   C     C_2   0.691650 0.167749 0.828197 -0.112851
C45   C     C_2   0.801091 0.125859 0.781866 -0.023380
Cr1   Cr    Cr6+3 0.393010 0.398050 0.501480 1.011435
Cr2   Cr    Cr6+3 0.398820 0.707980 0.501630 1.014666
Cr3   Cr    Cr6+3 0.708140 0.393940 0.496850 1.018019
Cr4   Cr    Cr6+3 0.937950 0.938450 0.008940 1.040898
Cr5   Cr    Cr6+3 0.626180 0.937030 0.994750 1.011133
Cr6   Cr    Cr6+3 0.937790 0.625760 0.001410 1.007265
H1    H     H_    0.546074 0.897897 0.797113 0.148057
H2    H     H_    0.245897 0.719531 0.819447 0.130846
H3    H     H_    0.465307 0.795783 0.820567 0.124591
H4    H     H_    0.134254 0.764195 0.706757 0.125929
H5    H     H_    0.924463 0.576915 0.200622 0.148290
H6    H     H_    0.881412 0.509046 0.318254 0.163378
H7    H     H_    0.606266 0.787905 0.201091 0.086073
H8    H     H_    0.605585 0.793951 0.318629 0.097213
H9    H     H_    0.461084 0.175613 0.186962 0.148645
H10   H     H_    0.415842 0.313220 0.300787 0.150269
H11   H     H_    0.741616 0.126970 0.298287 0.108740
H12   H     H_    0.762348 0.413680 0.700362 0.153828
H13   H     H_    0.264535 0.785893 0.165963 0.158582
H14   H     H_    0.438635 0.765822 0.703295 0.144021
H15   H     H_    0.197229 0.547874 0.193065 0.086359
H16   H     H_    0.195738 0.579103 0.303723 0.059082
H17   H     H_    0.510954 0.873167 0.679759 0.126669
H18   H     H_    0.790091 0.793344 0.770588 0.125714
H19   H     H_    0.597274 0.544508 0.828467 0.115615
H20   H     H_    0.577947 0.507820 0.713500 0.100005
H21   H     H_    0.459028 0.731513 0.259744 0.241717
H22   H     H_    0.351186 0.952781 0.325584 0.135972
H23   H     H_    0.917877 0.619151 0.788639 0.117897
H24   H     H_    0.194711 0.940051 0.334270 0.185074
H25   H     H_    0.254189 0.960978 0.246957 0.122335
H26   H     H_    0.938984 0.704322 0.643776 0.257285
H27   H     H_    0.787534 0.912443 0.590656 0.147523
H28   H     H_    0.687200 0.922779 0.669609 0.134017
H29   H     H_    0.655232 0.863499 0.585014 0.166627
H30   H     H_    0.797826 0.388830 0.886260 0.270855
H31   H     H_    0.020856 0.242138 0.834982 0.162976
H32   H     H_    0.998038 0.411843 0.830303 0.153712
H33   H     H_    0.968760 0.332710 0.751670 0.124408
H34   H     H_    0.892168 0.529739 0.684533 0.140473
H35   H     H_    0.854955 0.173525 0.675926 0.145400
H36   H     H_    0.584989 0.235584 0.809916 0.092154
H37   H     H_    0.590067 0.151059 0.701946 0.093843
H38   H     H_    0.167908 0.486316 0.824553 0.139165
H39   H     H_    0.285908 0.438944 0.701693 0.158737
N1    N     N_1   0.064292 0.987765 0.816571 -0.335957
N2    N     N_1   0.773962 0.332555 0.192878 -0.292034
N3    N     N_2   0.374108 0.758915 0.292955 -0.485544
N4    N     N_2   0.839460 0.719095 0.638209 -0.521734
N5    N     N_2   0.810152 0.402301 0.832593 -0.506800
O1    O     O_R   0.507110 0.256280 0.580300 -0.522757
O2    O     O_R   0.837080 0.593860 0.915300 -0.519140
O3    O     O_R   0.064770 0.636080 0.932550 -0.510270
O4    O     O_R   0.280830 0.527190 0.577940 -0.489602
O5    O     O_R   0.068250 0.829200 0.092940 -0.511782
O6    O     O_R   0.799650 0.057040 0.080330 -0.494438
O7    O     O_R   0.586130 0.079760 0.077080 -0.532669
O8    O     O_R   0.627700 0.809630 0.066580 -0.498929
O9    O     O_R   0.816140 0.597180 0.075920 -0.493684
O10   O     O_R   0.045360 0.639170 0.081440 -0.526669
O11   O     O_3   0.833980 0.833750 0.001700 -0.279470
O12   O     O_R   0.524640 0.695370 0.425100 -0.491769
O13   O     O_R   0.261360 0.738990 0.584270 -0.516911
O14   O     O_R   0.532590 0.694780 0.574370 -0.523034
O15   O     O_R   0.744470 0.503750 0.577000 -0.523970
O16   O     O_R   0.698520 0.277230 0.571620 -0.503269
O17   O     O_R   0.498530 0.256920 0.419280 -0.529047
O18   O     O_R   0.272880 0.527780 0.428680 -0.513997
O19   O     O_R   0.252780 0.739630 0.423250 -0.492413
O20   O     O_R   0.735890 0.504390 0.415980 -0.507383
O21   O     O_R   0.690560 0.277820 0.422350 -0.489861
O22   O     O_3   0.499990 0.499990 0.499980 -0.277674
O23   O     O_R   0.089190 0.825870 0.932320 -0.484618
O24   O     O_R   0.819070 0.053960 0.931440 -0.481379
O25   O     O_R   0.607070 0.076440 0.916460 -0.523311
O26   O     O_R   0.647110 0.806550 0.917690 -0.507497

loop_
_geom_bond_atom_site_label_1
_geom_bond_atom_site_label_2
_ccdc_geom_bond_type
Cr6   O2    S    
Cr2   O19   S    
Cr3   O15   S    
Cr1   O4    S    
C35   H23   S    
Cr1   O17   S    
C30   O12   A    
C18   C21   D    
C15   H9    S    
H26   N4    S    
C19   C20   D    
C34   C42   S    
C4    O14   A    
C24   O26   A    
C25   O23   A    
C1    O4    A    
C33   H14   S    
C38   H25   S    
C22   O25   A    
C34   C41   S    
C12   C23   S    
Cr5   O25   S    
C43   H37   S    
C5    H2    S    
C3    C7    D    
C8    C11   D    
C8    H8    S    
Cr4   O6    S    
C5    C6    D    
H30   N5    S    
C27   O9    A    
C19   H15   S    
C9    H7    S    
C40   H33   S    
C32   H1    S    
C12   C42   S    
C17   H10   S    
C3    H4    S    
C22   C44   S    
C13   H11   S    
C41   N4    S    
C23   C24   S    
C12   N5    S    
C44   H36   S    
C10   H5    S    
C9    C10   D    
Cr1   O18   S    
Cr3   O21   S    
Cr6   O3    S    
Cr5   O8    S    
C40   H32   S    
C29   O10   A    
Cr5   O26   S    
C32   H3    S    
C6    C7    S    
C38   H24   S    
C2    C45   S    
C22   O24   A    
C4    C34   S    
C16   O1    A    
C24   O2    A    
C29   O5    A    
C39   H27   S    
C40   H31   S    
C16   O16   A    
C18   C28   S    
C28   O18   A    
Cr6   O9    S    
Cr2   O14   S    
C7    H39   S    
Cr1   O22   S    
C1    C3    S    
C39   H28   S    
C20   H13   S    
C4    O15   A    
C39   N4    S    
Cr4   O23   S    
C2    C43   D    
Cr6   O10   S    
C33   C34   S    
C36   C45   S    
C14   C26   S    
C16   C43   S    
Cr3   O22   S    
C28   O19   A    
Cr3   O20   S    
C5    C25   S    
H21   N3    S    
C36   N1    T    
Cr5   O7    S    
Cr2   O12   S    
C40   N5    S    
C19   C29   S    
C31   O21   A    
C44   C45   D    
C9    C27   S    
C15   C17   S    
C12   H19   S    
C37   N2    T    
C13   C31   S    
C31   O17   A    
C30   O20   A    
Cr4   O11   S    
C6    H38   S    
C41   H34   S    
C23   C35   S    
C13   C17   D    
C8    C30   S    
C39   H29   S    
C18   H16   S    
C26   O6    A    
C23   C32   S    
C14   C37   S    
Cr4   O24   S    
C21   N3    S    
Cr6   O11   S    
C38   N3    S    
C27   O8    A    
C42   H20   S    
C2    H35   S    
C32   C33   S    
C35   C41   S    
C10   C11   S    
C1    O13   A    
C25   O3    A    
Cr2   O22   S    
Cr3   O16   S    
Cr1   O1    S    
C20   C21   S    
C35   H18   S    
Cr2   O13   S    
Cr5   O11   S    
C14   C15   D    
C11   H6    S    
C42   H12   S    
C26   O7    A    
C33   H17   S    
Cr4   O5    S    
C38   H22   S    
