data_mof_unit_55629.cif
_audit_creation_date              2012-10-26T20:33:16-0400
_audit_creation_method            fapswitch 2.2
_symmetry_space_group_name_H-M    P1
_symmetry_Int_Tables_number       1
_space_group_crystal_system       triclinic
_cell_length_a                    17.645819
_cell_length_b                    10.819674
_cell_length_c                    9.602077
_cell_angle_alpha                 90.988478
_cell_angle_beta                  88.357138
_cell_angle_gamma                 91.436548
_cell_volume                      1831.66758385

loop_
_atom_site_label
_atom_site_type_symbol
_atom_type_description
_atom_site_fract_x
_atom_site_fract_y
_atom_site_fract_z
_atom_type_partial_charge
C1    C     C_R   0.492198 0.262996 0.499120 0.538201
C2    C     C_R   0.115146 0.498636 0.499494 0.007806
C3    C     C_R   0.485245 0.067033 0.622722 -0.065049
C4    C     C_R   0.355968 0.501332 0.501459 0.556705
C5    C     C_R   0.476946 0.129843 0.499161 -0.005189
C6    C     C_R   0.453254 0.058474 0.381393 -0.021486
C7    C     C_R   0.464074 0.929623 0.381899 -0.161578
C8    C     C_R   0.487331 0.870736 0.502886 -0.035044
C9    C     C_R   0.487847 0.940742 0.626236 0.041261
C10   C     C_3   0.535141 0.947737 0.754736 0.290900
C11   C     C_3   0.533036 0.088948 0.746460 -0.181434
C12   C     C_R   0.885382 0.502098 0.495444 0.061520
C13   C     C_R   0.565563 0.523141 0.069636 0.155948
C14   C     C_R   0.439677 0.455806 0.079365 -0.001702
C15   C     C_R   0.438762 0.453926 0.931484 0.107632
C16   C     C_R   0.498496 0.737876 0.501124 0.554738
C17   C     C_R   0.565865 0.517150 0.923181 0.126163
C18   C     C_3   0.622944 0.617730 0.906685 -0.265715
C19   C     C_3   0.617294 0.636747 0.064711 -0.149992
C20   C     C_R   0.644210 0.500977 0.498207 0.543143
C21   C     C_R   0.845618 0.574950 0.594520 0.153841
C22   C     C_R   0.766450 0.576474 0.591683 -0.131645
C23   C     C_1   0.966415 0.499475 0.494486 -0.005637
C24   C     C_R   0.727059 0.503591 0.494475 -0.018651
C25   C     C_R   0.767167 0.432789 0.395115 -0.157215
C26   C     C_R   0.846116 0.432185 0.395589 -0.160404
C27   C     C_3   0.906012 0.579553 0.816370 -0.315219
C28   C     C_3   0.415125 0.912899 0.898069 -0.325008
C29   C     C_3   0.665508 0.930564 0.838116 -0.327019
C30   C     C_3   0.371149 0.384954 0.871931 -0.220349
C31   C     C_3   0.300862 0.466482 0.864908 -0.280909
C32   C     C_3   0.256625 0.479715 0.003286 -0.463568
C33   C     C_3   0.693743 0.623562 0.135795 -0.246364
C34   C     C_1   0.034303 0.498251 0.495976 -0.033387
C35   C     C_3   0.752877 0.721750 0.088688 -0.322201
C36   C     C_3   0.826528 0.709548 0.166419 -0.449050
C37   C     C_3   0.292712 0.798839 0.525733 -0.305520
C38   C     C_3   0.411391 0.110965 0.260644 -0.249321
C39   C     C_3   0.330357 0.055437 0.256109 -0.315292
C40   C     C_3   0.284097 0.115899 0.145438 -0.467302
C41   C     C_R   0.153665 0.596668 0.565442 -0.103974
C42   C     C_R   0.233035 0.600266 0.565987 0.117259
C43   C     C_R   0.273315 0.502116 0.503102 0.037426
C44   C     C_R   0.234140 0.404304 0.437232 -0.178671
C45   C     C_R   0.155242 0.402533 0.435337 -0.132954
Cu1   Cu    Cu3+1 0.500000 0.499980 0.640670 0.925561
Cu2   Cu    Cu3+1 0.500000 0.500020 0.359330 0.907109
H1    H     H_    0.452628 0.875511 0.288485 0.136960
H2    H     H_    0.876558 0.376604 0.318640 0.106508
H3    H     H_    0.122195 0.671771 0.613377 0.112884
H4    H     H_    0.264818 0.329031 0.388182 0.103203
H5    H     H_    0.125576 0.326516 0.383853 0.112677
H6    H     H_    0.857605 0.728194 0.723985 0.236484
H7    H     H_    0.854585 0.542618 0.872627 0.133158
H8    H     H_    0.937848 0.641910 0.888154 0.137120
H9    H     H_    0.943062 0.501842 0.784934 0.160865
H10   H     H_    0.510658 0.809090 0.902213 0.263390
H11   H     H_    0.397421 0.887017 0.005732 0.134173
H12   H     H_    0.502063 0.135474 0.834139 0.127704
H13   H     H_    0.384130 0.851342 0.824141 0.160482
H14   H     H_    0.399374 0.009986 0.882131 0.133176
H15   H     H_    0.633666 0.911985 0.632141 0.237119
H16   H     H_    0.716876 0.874799 0.819595 0.124032
H17   H     H_    0.641429 0.909316 0.943279 0.164105
H18   H     H_    0.682575 0.029901 0.834424 0.135251
H19   H     H_    0.241077 0.387714 0.045969 0.146249
H20   H     H_    0.289813 0.534664 0.079914 0.157225
H21   H     H_    0.203510 0.529449 0.985906 0.141495
H22   H     H_    0.317771 0.560608 0.829793 0.209971
H23   H     H_    0.588193 0.134508 0.716840 0.126968
H24   H     H_    0.261883 0.423990 0.787824 0.157462
H25   H     H_    0.385648 0.341023 0.770618 0.180564
H26   H     H_    0.356473 0.303232 0.936926 0.083304
H27   H     H_    0.816131 0.722502 0.280357 0.165319
H28   H     H_    0.850714 0.616958 0.146022 0.152919
H29   H     H_    0.868411 0.781116 0.130191 0.138883
H30   H     H_    0.765785 0.711873 0.975302 0.158423
H31   H     H_    0.730408 0.815494 0.109673 0.156006
H32   H     H_    0.684379 0.638230 0.248964 0.188061
H33   H     H_    0.716248 0.529555 0.115868 0.147918
H34   H     H_    0.392180 0.417715 0.139328 0.124059
H35   H     H_    0.244234 0.740717 0.712326 0.233333
H36   H     H_    0.324419 0.875130 0.578664 0.139351
H37   H     H_    0.241156 0.837252 0.480622 0.129200
H38   H     H_    0.329385 0.760260 0.440552 0.164899
H39   H     H_    0.280212 0.216419 0.167546 0.139397
H40   H     H_    0.310608 0.101441 0.040602 0.142540
H41   H     H_    0.225885 0.074484 0.146158 0.143082
H42   H     H_    0.331770 0.954512 0.233287 0.153236
H43   H     H_    0.301204 0.069380 0.359239 0.158761
H44   H     H_    0.405679 0.212135 0.269822 0.173700
H45   H     H_    0.677410 0.578883 0.868325 0.126212
H46   H     H_    0.442848 0.090233 0.161336 0.151244
H47   H     H_    0.602954 0.693079 0.843466 0.179360
H48   H     H_    0.735759 0.635137 0.664805 0.103462
H49   H     H_    0.587257 0.722307 0.096939 0.137819
H50   H     H_    0.737367 0.376634 0.318796 0.121247
N1    N     N_R   0.500470 0.500930 0.147930 -0.249582
N2    N     N_R   0.500480 0.500890 0.852020 -0.234509
N3    N     N_2   0.884710 0.647730 0.695845 -0.518613
N4    N     N_2   0.496282 0.897627 0.879357 -0.495575
N5    N     N_2   0.611201 0.900325 0.731632 -0.516797
N6    N     N_2   0.271830 0.704328 0.625342 -0.529146
O1    O     O_R   0.500000 0.319640 0.618810 -0.517489
O2    O     O_R   0.500010 0.319680 0.381230 -0.506780
O3    O     O_R   0.391250 0.499990 0.618840 -0.504512
O4    O     O_R   0.391260 0.500020 0.381250 -0.523052
O5    O     O_R   0.499990 0.680320 0.618770 -0.473403
O6    O     O_R   0.500000 0.680360 0.381190 -0.509066
O7    O     O_R   0.608740 0.499980 0.618750 -0.495003
O8    O     O_R   0.608750 0.500010 0.381160 -0.505795

loop_
_geom_bond_atom_site_label_1
_geom_bond_atom_site_label_2
_ccdc_geom_bond_type
Cu1   N2    S    
C29   H16   S    
C41   C42   A    
C35   C36   S    
C42   N6    S    
C27   H7    S    
C7    C8    A    
C12   C23   S    
Cu2   N1    S    
C1    C5    S    
C40   H40   S    
C37   H38   S    
C38   C39   S    
C27   H8    S    
C2    C41   A    
C18   C19   S    
C22   H48   S    
C40   H39   S    
C13   N1    A    
C36   H29   S    
C28   N4    S    
C20   C24   S    
C8    C9    A    
Cu2   O2    S    
Cu1   O5    S    
H35   N6    S    
C6    C38   S    
C37   H37   S    
C9    C10   S    
C39   H43   S    
C32   H21   S    
C28   H14   S    
C2    C34   S    
C31   H24   S    
C29   H17   S    
C8    C16   S    
C21   C22   A    
C11   H12   S    
C16   O6    A    
C14   N1    A    
C28   H13   S    
H6    N3    S    
C4    O4    A    
C27   N3    S    
C11   H23   S    
C13   C19   S    
C10   N5    S    
C24   C25   A    
C19   C33   S    
C26   H2    S    
C39   C40   S    
C37   N6    S    
C21   N3    S    
C27   H9    S    
C33   H32   S    
C45   H5    S    
C25   C26   A    
Cu2   O6    S    
C4    O3    A    
C38   H44   S    
C35   H30   S    
C12   C26   A    
C43   C44   A    
C3    C9    A    
C36   H28   S    
C20   O8    A    
C31   C32   S    
C30   C31   S    
C23   C34   T    
C17   C18   S    
C17   N2    A    
C1    O1    A    
C36   H27   S    
C32   H20   S    
C20   O7    A    
C44   H4    S    
C25   H50   S    
Cu2   O4    S    
C10   C11   S    
Cu1   O7    S    
C18   H47   S    
C29   H18   S    
C42   C43   A    
C41   H3    S    
C44   C45   A    
C15   C30   S    
C32   H19   S    
C30   H26   S    
Cu1   Cu2   S    
C10   N4    S    
C15   N2    A    
C3    C5    A    
C30   H25   S    
C33   H33   S    
C6    C7    A    
C4    C43   S    
C28   H11   S    
H10   N4    S    
C35   H31   S    
C13   C17   A    
C18   H45   S    
C7    H1    S    
C40   H41   S    
C5    C6    A    
Cu1   O1    S    
Cu2   O8    S    
Cu1   O3    S    
C38   H46   S    
C33   C35   S    
C29   N5    S    
C22   C24   A    
C3    C11   S    
C2    C45   A    
C16   O5    A    
C12   C21   A    
C31   H22   S    
C14   C15   A    
C37   H36   S    
C14   H34   S    
C39   H42   S    
C19   H49   S    
C1    O2    A    
H15   N5    S    
