data_mof_unit_14039.cif
_audit_creation_date              2012-12-10T16:50:14-0500
_audit_creation_method            fapswitch 2.2
_symmetry_space_group_name_H-M    P1
_symmetry_Int_Tables_number       1
_space_group_crystal_system       triclinic
_cell_length_a                    23.404064
_cell_length_b                    8.655506
_cell_length_c                    7.480376
_cell_angle_alpha                 103.895864
_cell_angle_beta                  94.537136
_cell_angle_gamma                 92.569621
_cell_volume                      1463.17866036

loop_
_atom_site_label
_atom_site_type_symbol
_atom_type_description
_atom_site_fract_x
_atom_site_fract_y
_atom_site_fract_z
_atom_type_partial_charge
C1    C     C_R   0.498196 0.199377 0.452467 0.842958
C2    C     C_R   0.501852 0.800629 0.547541 0.845888
C3    C     C_R   0.233864 0.576978 0.453196 0.182484
C4    C     C_R   0.760990 0.408144 0.392382 0.212584
C5    C     C_R   0.293377 0.583564 0.433170 0.100764
C6    C     C_R   0.700471 0.412195 0.369576 0.087261
C7    C     C_R   0.328715 0.482443 0.507915 -0.235158
C8    C     C_R   0.672084 0.518477 0.501391 -0.231885
C9    C     C_R   0.304802 0.374268 0.601183 0.281705
C10   C     C_R   0.704046 0.629798 0.648538 0.254300
C11   C     C_R   0.246922 0.379151 0.635894 0.215249
C12   C     C_R   0.763575 0.622612 0.676726 0.249155
C13   C     C_R   0.211088 0.477424 0.558696 0.177458
C14   C     C_R   0.792719 0.511240 0.550144 0.149508
C15   C     C_2   0.497302 0.030686 0.426417 -0.353334
C16   C     C_2   0.502652 0.969327 0.573645 -0.358219
C17   C     C_R   0.391157 0.496459 0.501599 0.833793
C18   C     C_R   0.609028 0.504286 0.498953 0.844697
C19   C     C_R   0.889605 0.642376 0.609667 0.584853
C20   C     C_R   0.116296 0.339698 0.509236 0.550330
C21   C     C_R   0.878261 0.361460 0.571805 0.592059
C22   C     C_R   0.128491 0.613430 0.676430 0.609066
C23   C     C_R   0.937393 0.350489 0.559760 -0.076255
C24   C     C_R   0.069079 0.622032 0.680512 -0.050927
C25   C     C_R   0.973250 0.491000 0.610277 -0.074947
C26   C     C_R   0.033073 0.483096 0.606581 -0.053067
C27   C     C_R   0.949028 0.639918 0.655305 -0.061543
C28   C     C_R   0.056268 0.338549 0.520460 -0.083835
C29   C     C_R   0.960345 0.205383 0.482631 -0.193067
C30   C     C_R   0.044928 0.767717 0.749881 -0.261706
C31   C     C_R   0.018212 0.200707 0.446475 0.243119
C32   C     C_R   0.985307 0.779609 0.731637 0.244064
Cu1   Cu    Cu3+1 0.506340 0.517380 0.684380 1.033007
Cu2   Cu    Cu3+1 0.493660 0.482620 0.315620 1.046625
H1    H     H_    0.931904 0.099162 0.428888 0.205224
H2    H     H_    0.072355 0.875030 0.808912 0.186419
H3    H     H_    0.492273 0.956894 0.285538 0.197524
H4    H     H_    0.507610 0.043100 0.714540 0.195315
N1    N     N_R   0.854537 0.505089 0.580398 -0.437913
N2    N     N_R   0.150741 0.475836 0.585560 -0.415148
N3    N     N_2   0.484110 0.456420 0.038520 0.143049
N4    N     N_2   0.515890 0.543580 0.961480 0.137996
O1    O     O_R   0.504120 0.286130 0.619770 -0.543852
O2    O     O_R   0.495880 0.713870 0.380230 -0.529866
O3    O     O_R   0.493410 0.256770 0.308360 -0.607388
O4    O     O_R   0.506590 0.743230 0.691640 -0.610972
O5    O     O_R   0.423230 0.514630 0.655730 -0.533156
O6    O     O_R   0.576770 0.485370 0.344270 -0.515176
O7    O     O_R   0.412530 0.485280 0.344320 -0.577407
O8    O     O_R   0.587470 0.514720 0.655680 -0.599300
O9    O     O_2   0.867602 0.778280 0.586238 -0.501715
O10   O     O_2   0.140494 0.206657 0.424181 -0.569659
O11   O     O_2   0.844811 0.229439 0.568065 -0.515215
O12   O     O_2   0.163880 0.742586 0.759209 -0.552170
N5    N     N_2   0.034036 0.066272 0.312764 -0.436372
H5    H     H_    0.061829 0.086453 0.219485 0.292330
C33   C     C_3   0.039320 0.919896 0.370772 -0.618314
H6    H     H_    0.075535 0.934101 0.479877 0.260537
H7    H     H_    0.047509 0.822781 0.250628 0.218233
H8    H     H_    0.998639 0.885505 0.421759 0.231387
N6    N     N_2   0.962832 0.932558 0.787741 -0.390541
H9    H     H_    0.990483 0.028031 0.784805 0.245868
C34   C     C_3   0.931182 0.959373 0.950291 -0.560650
H10   H     H_    0.886410 0.984503 0.912143 0.267089
H11   H     H_    0.950750 0.065178 0.055817 0.203200
H12   H     H_    0.930548 0.855034 0.012816 0.218133
N7    N     N_2   0.196936 0.678084 0.379844 -0.397561
H13   H     H_    0.214606 0.790317 0.384536 0.277724
C35   C     C_3   0.164418 0.604091 0.205378 -0.668118
H14   H     H_    0.192955 0.585960 0.091852 0.235500
H15   H     H_    0.131035 0.683642 0.175680 0.238365
H16   H     H_    0.142830 0.488313 0.209660 0.232307
N8    N     N_2   0.789247 0.293289 0.263784 -0.378860
H17   H     H_    0.766802 0.187968 0.195401 0.266670
C36   C     C_3   0.832030 0.349071 0.160432 -0.685188
H18   H     H_    0.814745 0.329937 0.013740 0.230148
H19   H     H_    0.870486 0.279174 0.164809 0.232353
H20   H     H_    0.845436 0.477005 0.218613 0.233059
N9    N     N_2   0.318042 0.691032 0.338378 -0.410960
H21   H     H_    0.293065 0.704449 0.223964 0.261129
C37   C     C_3   0.341658 0.841682 0.457099 -0.610286
H22   H     H_    0.307027 0.910696 0.524914 0.234444
H23   H     H_    0.363243 0.912714 0.373345 0.219987
H24   H     H_    0.373914 0.822129 0.565139 0.223096
N10   N     N_2   0.667242 0.306334 0.217714 -0.416497
H25   H     H_    0.673299 0.187033 0.204016 0.250190
C38   C     C_3   0.665869 0.354718 0.045277 -0.546793
H26   H     H_    0.708327 0.343092 0.988792 0.206037
H27   H     H_    0.654081 0.480293 0.066057 0.262275
H28   H     H_    0.633207 0.277476 0.942978 0.222276
O13   O     O_3   0.336517 0.261832 0.660249 -0.711992
H29   H     H_    0.369717 0.239352 0.586031 0.326564
O14   O     O_3   0.678164 0.745726 0.770986 -0.734790
H30   H     H_    0.643179 0.774699 0.706309 0.322098
N11   N     N_2   0.223598 0.279743 0.742594 -0.389785
H31   H     H_    0.219099 0.160569 0.674551 0.296314
C39   C     C_3   0.248531 0.306369 0.931998 -0.576881
H32   H     H_    0.214413 0.287461 0.020896 0.221553
H33   H     H_    0.268493 0.429558 0.984958 0.223152
H34   H     H_    0.281819 0.220479 0.941896 0.250017
N12   N     N_2   0.794409 0.732473 0.831137 -0.367873
H35   H     H_    0.777140 0.841644 0.871479 0.301973
C40   C     C_3   0.811579 0.666605 0.985200 -0.693545
H36   H     H_    0.833473 0.761895 0.100073 0.236895
H37   H     H_    0.842389 0.574039 0.943122 0.226411
H38   H     H_    0.773353 0.615468 0.035504 0.246329
O15   O     O_3   0.445231 0.353794 0.923962 -0.586885
H39   H     H_    0.425084 0.298625 0.004799 0.339289
O16   O     O_3   0.554619 0.646670 0.076202 -0.617075
H40   H     H_    0.574717 0.701963 0.995380 0.342461

loop_
_geom_bond_atom_site_label_1
_geom_bond_atom_site_label_2
_ccdc_geom_bond_type
C21   O11   S    
N5    H5    S    
C34   H11   S    
O14   H30   S    
N3    N4    D    
N11   H31   S    
C38   H26   S    
C9    O13   S    
C37   H22   S    
C22   O12   S    
N10   H25   S    
C2    O4    A    
N12   H35   S    
C6    N10   S    
Cu1   N4    S    
C23   C29   A    
N4    O16   S    
C24   C26   A    
C32   N6    S    
C20   N2    A    
C33   H7    S    
C15   C16   D    
N6    C34   S    
N8    H17   S    
C35   H15   S    
C15   H3    S    
C13   N2    S    
C39   H33   S    
C14   N1    S    
C1    O1    A    
C2    O2    A    
C7    C17   S    
O15   H39   S    
C1    C15   S    
C5    N9    S    
C2    C16   S    
C3    C13   A    
C34   H12   S    
N12   C40   S    
Cu1   O4    S    
N8    C36   S    
N6    H9    S    
Cu2   N3    S    
C37   H23   S    
C39   H32   S    
N10   C38   S    
N7    H13   S    
Cu1   O1    S    
Cu2   O2    S    
C4    C6    A    
C17   O7    A    
O13   H29   S    
N9    C37   S    
C33   H8    S    
C6    C8    A    
C20   C28   A    
C10   O14   S    
Cu1   O8    S    
C8    C18   S    
N9    H21   S    
N7    C35   S    
C35   H16   S    
C36   H18   S    
C36   H19   S    
C21   N1    A    
C29   C31   A    
C22   N2    A    
Cu1   Cu2   S    
C40   H37   S    
Cu2   O3    S    
C9    C11   A    
C4    N8    S    
C10   C12   A    
C8    C10   A    
C12   C14   A    
N5    C33   S    
Cu1   O5    S    
C22   C24   A    
Cu2   O6    S    
C37   H24   S    
C19   C27   A    
C18   O8    A    
C5    C7    A    
C11   N11   S    
C7    C9    A    
Cu2   O7    S    
C39   H34   S    
N3    O15   S    
C27   C32   A    
C28   C31   A    
C3    N7    S    
C17   O5    A    
C3    C5    A    
C18   O6    A    
N11   C39   S    
C25   C27   A    
C29   H1    S    
C26   C28   A    
C30   H2    S    
C21   C23   A    
C25   C26   A    
C12   N12   S    
C20   O10   S    
O16   H40   S    
C30   C32   A    
C11   C13   A    
C1    O3    A    
C33   H6    S    
C40   H38   S    
C23   C25   A    
C4    C14   A    
C35   H14   S    
C36   H20   S    
C24   C30   A    
C34   H10   S    
C19   O9    S    
C19   N1    A    
C38   H28   S    
C40   H36   S    
C38   H27   S    
C31   N5    S    
C16   H4    S    
