data_mof_unit_37121.cif
_audit_creation_date              2012-12-11T18:42:31-0500
_audit_creation_method            fapswitch 2.2
_symmetry_space_group_name_H-M    P1
_symmetry_Int_Tables_number       1
_space_group_crystal_system       triclinic
_cell_length_a                    8.244125
_cell_length_b                    14.331062
_cell_length_c                    18.7264
_cell_angle_alpha                 97.313468
_cell_angle_beta                  90.971893
_cell_angle_gamma                 91.871936
_cell_volume                      2192.80085864

loop_
_atom_site_label
_atom_site_type_symbol
_atom_type_description
_atom_site_fract_x
_atom_site_fract_y
_atom_site_fract_z
_atom_type_partial_charge
Ba1   Ba    Ba6+2 0.843240 0.541620 0.463500 1.632718
Ba2   Ba    Ba6+2 0.346570 0.458460 0.536510 1.631867
C1    C     C_3   0.645907 0.861486 0.305165 -0.251683
C2    C     C_R   0.923211 0.398570 0.099328 -0.089433
C3    C     C_R   0.784896 0.415722 0.955788 -0.100947
C4    C     C_3   0.070147 0.724553 0.257741 0.369756
C5    C     C_R   0.941543 0.452184 0.978084 0.018534
C6    C     C_R   0.726315 0.417492 0.885911 -0.096352
C7    C     C_R   0.820555 0.455833 0.834555 -0.039794
C8    C     C_R   0.974186 0.498262 0.855975 0.002849
C9    C     C_R   0.034757 0.496910 0.928075 0.023000
C10   C     C_R   0.765735 0.453029 0.762355 -0.019199
C11   C     C_R   0.865597 0.489507 0.712028 -0.258343
C12   C     C_3   0.556144 0.774330 0.266507 0.483556
C13   C     C_R   0.013768 0.536421 0.732152 0.080504
C14   C     C_R   0.066376 0.543190 0.805679 -0.029094
C15   C     C_R   0.158194 0.491856 0.070404 0.025282
C16   C     C_3   0.045476 0.745595 0.180723 -0.371196
C17   C     C_R   0.217412 0.493099 0.142909 0.006182
C18   C     C_R   0.123590 0.451101 0.194086 -0.040576
C19   C     C_R   0.982279 0.399349 0.169536 -0.023551
C20   C     C_R   0.206974 0.594591 0.830982 -0.022345
C21   C     C_R   0.267841 0.592625 0.900509 -0.088063
C22   C     C_R   0.187831 0.540617 0.949525 0.008773
C23   C     C_3   0.499300 0.302296 0.321951 0.300123
C24   C     C_R   0.252579 0.534828 0.019959 0.018221
C25   C     C_R   0.411345 0.568440 0.041289 -0.096938
C26   C     C_R   0.371293 0.535527 0.164007 -0.040011
C27   C     C_R   0.469219 0.568379 0.111464 -0.102227
C28   C     C_3   0.194564 0.747938 0.611548 0.290723
C29   C     C_R   0.422621 0.543574 0.237041 -0.016517
C30   C     C_R   0.321799 0.509619 0.287855 -0.295605
C31   C     C_R   0.175377 0.461298 0.267792 0.030087
C32   C     C_R   0.696333 0.937472 0.537371 -0.024541
C33   C     C_R   0.515198 0.798619 0.494051 0.075015
C34   C     C_3   0.443950 0.262585 0.245216 -0.121080
C35   C     C_R   0.373809 0.763675 0.456103 -0.276970
C36   C     C_R   0.269349 0.824363 0.426929 0.015271
C37   C     C_R   0.313020 0.919254 0.428621 -0.147253
C38   C     C_R   0.458284 0.955506 0.462967 -0.012462
C39   C     C_R   0.558270 0.896447 0.498395 -0.048032
C40   C     C_3   0.245894 0.850960 0.630520 -0.406883
C41   C     C_R   0.641666 0.091035 0.500829 -0.040937
C42   C     C_R   0.741326 0.033271 0.537684 0.021836
C43   C     C_R   0.685426 0.187476 0.502348 0.034800
C44   C     C_R   0.824408 0.225056 0.540706 -0.300159
C45   C     C_3   0.058781 0.240489 0.741661 0.311322
C46   C     C_R   0.929270 0.167669 0.572901 -0.025885
C47   C     C_R   0.886929 0.071617 0.572636 0.061990
C48   C     C_R   0.501201 0.050904 0.463740 -0.034545
C49   C     C_3   0.018317 0.251088 0.390884 0.338788
C50   C     C_3   0.022802 0.143742 0.379107 -0.127489
C51   C     C_3   0.640891 0.698005 0.686044 0.395270
C52   C     C_3   0.551594 0.727341 0.755501 -0.324581
C53   C     C_1   0.182669 0.172959 0.843749 0.319278
C54   C     C_3   0.123476 0.259235 0.819227 -0.223602
C55   C     C_3   0.593138 0.220289 0.701610 0.395053
C56   C     C_3   0.586099 0.124677 0.728724 -0.359023
C57   C     C_R   0.005076 0.447985 0.049117 0.010493
H1    H     H_    0.466574 0.750049 0.304664 -0.064637
H2    H     H_    0.701612 0.844454 0.355859 0.133672
H3    H     H_    0.603899 0.794785 0.783728 0.107160
H4    H     H_    0.560746 0.672087 0.791812 0.070582
H5    H     H_    0.422768 0.738382 0.742946 0.129126
H6    H     H_    0.560970 0.919359 0.318413 0.046261
H7    H     H_    0.391826 0.332681 0.350031 -0.008540
H8    H     H_    0.593196 0.359154 0.319763 0.049057
H9    H     H_    0.344080 0.209066 0.247483 0.117447
H10   H     H_    0.395722 0.320044 0.217407 0.053006
H11   H     H_    0.742087 0.886066 0.270437 0.136101
H12   H     H_    0.360897 0.858303 0.662509 0.141171
H13   H     H_    0.113152 0.811437 0.172534 0.113421
H14   H     H_    0.013479 0.308170 0.727311 -0.014189
H15   H     H_    0.956595 0.187610 0.738687 -0.029919
H16   H     H_    0.223859 0.313385 0.823447 0.125644
H17   H     H_    0.024747 0.286028 0.854985 0.027987
H18   H     H_    0.721810 0.239196 0.691953 -0.113914
H19   H     H_    0.523025 0.214584 0.650002 0.093418
H20   H     H_    0.640808 0.071416 0.688899 0.066506
H21   H     H_    0.458015 0.102522 0.736590 0.153665
H22   H     H_    0.996868 0.660030 0.264409 0.104413
H23   H     H_    0.263201 0.884158 0.580924 0.067560
H24   H     H_    0.654524 0.128359 0.780665 0.115061
H25   H     H_    0.824137 0.484911 0.656531 0.071890
H26   H     H_    0.605419 0.388189 0.873006 0.109656
H27   H     H_    0.914290 0.359092 0.204394 0.092778
H28   H     H_    0.272231 0.636958 0.797190 0.088037
H29   H     H_    0.591252 0.596128 0.124070 0.111995
H30   H     H_    0.361543 0.517107 0.343713 0.077321
H31   H     H_    0.702165 0.386374 0.991570 0.077320
H32   H     H_    0.813218 0.356984 0.085881 0.068123
H33   H     H_    0.376830 0.634903 0.914831 0.061392
H34   H     H_    0.151352 0.887868 0.663464 0.146084
H35   H     H_    0.200290 0.711155 0.266465 -0.087874
H36   H     H_    0.495745 0.594153 0.004397 0.075044
H37   H     H_    0.338172 0.690056 0.454283 0.067654
H38   H     H_    0.231677 0.965062 0.404697 0.067365
H39   H     H_    0.857204 0.298897 0.541250 0.064371
H40   H     H_    0.771020 0.895498 0.567535 0.140538
H41   H     H_    0.422621 0.093154 0.435223 0.092119
H42   H     H_    0.089860 0.686776 0.142527 0.071994
H43   H     H_    0.914922 0.754206 0.168964 0.161019
H44   H     H_    0.296998 0.708960 0.586738 0.019815
H45   H     H_    0.898314 0.273353 0.410196 0.007352
H46   H     H_    0.090221 0.742295 0.572881 0.068290
H47   H     H_    0.896056 0.116519 0.283534 0.201482
H48   H     H_    0.881943 0.030539 0.336216 0.184538
H49   H     H_    0.853446 0.763144 0.726181 0.190320
H50   H     H_    0.864864 0.686209 0.652355 0.183284
H51   H     H_    0.383620 0.849193 0.220981 0.144401
H52   H     H_    0.406275 0.740904 0.178333 0.158392
H53   H     H_    0.673110 0.269091 0.204565 0.174553
H54   H     H_    0.616605 0.162345 0.226935 0.219832
H55   H     H_    0.105355 0.014712 0.580746 0.191759
H56   H     H_    0.111969 0.277037 0.432369 0.052278
H57   H     H_    0.008547 0.038468 0.659976 0.174785
H58   H     H_    0.023447 0.116758 0.432077 0.056180
H59   H     H_    0.136432 0.121571 0.351510 0.084634
H60   H     H_    0.595168 0.626360 0.663409 0.082447
N1    N     N_3   0.881311 0.103554 0.336792 -0.486009
N2    N     N_3   0.812248 0.696220 0.702594 -0.531974
N3    N     N_3   0.470556 0.800338 0.203431 -0.486158
N4    N     N_3   0.576447 0.219905 0.203227 -0.485190
N5    N     N_1   0.229409 0.104936 0.863054 -0.296018
N6    N     N_3   0.993182 0.012022 0.605586 -0.516013
O1    O     O_2   0.887710 0.436190 0.327560 -0.459702
O2    O     O_2   0.267170 0.173223 0.562515 -0.499845
O3    O     O_3   0.182678 0.205568 0.695997 -0.579975
O4    O     O_3   0.135370 0.443490 0.416520 -0.495881
O5    O     O_3   0.551980 0.615210 0.532020 -0.490825
O6    O     O_2   0.394410 0.269100 0.474240 -0.471602
O7    O     O_3   0.562967 0.229882 0.356782 -0.634899
O8    O     O_2   0.424593 0.458711 0.758151 -0.483454
O9    O     O_3   0.525232 0.287186 0.752898 -0.592651
O10   O     O_3   0.634420 0.609440 0.364670 -0.467793
O11   O     O_2   0.758775 0.534296 0.242231 -0.494916
O12   O     O_3   0.617365 0.765373 0.639294 -0.657992
O13   O     O_3   0.048346 0.286058 0.325771 -0.656798
O14   O     O_3   0.671905 0.707046 0.243648 -0.592948
O15   O     O_2   0.795290 0.730930 0.525800 -0.475212
O16   O     O_3   0.044470 0.660110 0.398750 -0.485004
O17   O     O_2   0.936125 0.829821 0.440761 -0.486948
O18   O     O_3   0.020355 0.801253 0.305811 -0.603031
O19   O     O_2   0.301980 0.563840 0.672490 -0.471512
O20   O     O_3   0.054330 0.556590 0.583490 -0.497777
O21   O     O_3   0.555270 0.390630 0.635330 -0.476632
O22   O     O_3   0.149431 0.713414 0.674975 -0.647326
O23   O     O_3   0.637720 0.384870 0.467990 -0.472669
O24   O     O_3   0.145220 0.339960 0.601250 -0.461029
P1    P     P_3+3 0.061800 0.409390 0.339760 0.963193
P2    P     P_3+3 0.622760 0.718740 0.547830 0.957694
P3    P     P_3+3 0.067698 0.780071 0.393677 0.946353
P4    P     P_3+3 0.127890 0.590690 0.660240 0.969095
P5    P     P_3+3 0.128900 0.219620 0.607360 0.948267
P6    P     P_3+3 0.620249 0.597559 0.270934 0.943441
P7    P     P_3+3 0.574993 0.266177 0.449592 0.953786
P8    P     P_3+3 0.567343 0.399314 0.728595 0.958749

loop_
_geom_bond_atom_site_label_1
_geom_bond_atom_site_label_2
_ccdc_geom_bond_type
C42   C47   A    
C53   C54   S    
C54   H17   S    
C25   C27   A    
C40   H34   S    
Ba2   O19   S    
C25   H36   S    
C17   C18   A    
C23   H8    S    
H49   N2    S    
O24   P5    S    
C45   O3    S    
O21   P8    S    
C43   C44   A    
O13   P1    S    
Ba2   O20   S    
C5    C9    A    
C10   C11   A    
C11   H25   S    
C26   C27   A    
C24   C25   A    
C51   O12   S    
C15   C24   A    
O6    P7    D    
C33   C35   A    
C22   C24   A    
C6    H26   S    
Ba1   O4    S    
C31   P1    S    
C36   C37   A    
C37   H38   S    
C52   H4    S    
Ba2   O23   S    
C13   C14   A    
C9    C22   A    
Ba2   O4    S    
O10   P6    S    
Ba1   Ba2   S    
C16   H43   S    
O17   P3    D    
O19   P4    D    
C27   H29   S    
Ba2   O5    S    
C19   H27   S    
Ba1   O20   S    
C29   C30   A    
C6    C7    A    
C4    H35   S    
C40   H23   S    
C28   H44   S    
C21   C22   A    
C10   P8    S    
C7    C8    A    
C3    H31   S    
O3    P5    S    
C2    H32   S    
O20   P4    S    
C50   H58   S    
Ba2   O24   S    
C44   H39   S    
C54   H16   S    
H52   N3    S    
C1    H6    S    
C32   C39   A    
C33   P2    S    
O22   P4    S    
O2    P5    D    
C5    C57   A    
Ba2   O6    S    
C1    H2    S    
C16   H13   S    
C4    C16   S    
C44   C46   A    
C49   C50   S    
C55   H18   S    
C28   O22   S    
C34   N4    S    
C32   C42   A    
Ba1   O1    S    
C45   H14   S    
H53   N4    S    
Ba1   O5    S    
C37   C38   A    
C3    C5    A    
O11   P6    D    
C52   H3    S    
C49   H45   S    
C51   C52   S    
C49   H56   S    
C35   H37   S    
C16   H42   S    
C41   C42   A    
C35   C36   A    
C30   H30   S    
H54   N4    S    
O14   P6    S    
C1    H11   S    
C51   H60   S    
C32   H40   S    
Ba1   P1    S    
C43   P7    S    
C20   H28   S    
C12   O14   S    
C17   C26   A    
C41   C43   A    
O15   P2    D    
C1    C12   S    
C56   H20   S    
C15   C57   A    
C18   C31   A    
C50   N1    S    
C38   C39   A    
Ba2   P4    S    
H57   N6    S    
C11   C13   A    
C28   H46   S    
O7    P7    S    
C55   O9    S    
H48   N1    S    
C47   N6    S    
C34   H10   S    
H55   N6    S    
C46   P5    S    
C53   N5    T    
C46   C47   A    
C14   C20   A    
H47   N1    S    
C21   H33   S    
C55   H19   S    
C26   C29   A    
C28   C40   S    
C23   H7    S    
C45   H15   S    
C3    C6    A    
C29   P6    S    
C34   H9    S    
C41   C48   A    
C56   H21   S    
Ba2   O21   S    
C12   H1    S    
C48   H41   S    
C30   C31   A    
O4    P1    S    
C36   P3    S    
C8    C14   A    
C56   H24   S    
H51   N3    S    
C2    C19   A    
O1    P1    D    
H50   N2    S    
C55   C56   S    
C52   H5    S    
C38   C48   A    
C2    C57   A    
C40   H12   S    
C15   C17   A    
Ba1   P2    S    
O8    P8    D    
C33   C39   A    
C7    C10   A    
C13   P4    S    
Ba1   O16   S    
C8    C9    A    
C23   C34   S    
C51   N2    S    
C49   O13   S    
O9    P8    S    
C18   C19   A    
O5    P2    S    
C4    H22   S    
C12   N3    S    
C20   C21   A    
O12   P2    S    
Ba1   O23   S    
Ba1   O15   S    
O23   P7    S    
C4    O18   S    
Ba1   O10   S    
C23   O7    S    
O18   P3    S    
O16   P3    S    
C45   C54   S    
C50   H59   S    
