data_mof_unit_9590.cif
_audit_creation_date              2013-03-05T15:45:29-0500
_audit_creation_method            fapswitch 2.2
_symmetry_space_group_name_H-M    P1
_symmetry_Int_Tables_number       1
_space_group_crystal_system       triclinic
_cell_length_a                    27.671472
_cell_length_b                    10.731393
_cell_length_c                    10.003687
_cell_angle_alpha                 90.279165
_cell_angle_beta                  90.627668
_cell_angle_gamma                 89.935603
_cell_volume                      2970.41406552

loop_
_atom_site_label
_atom_site_type_symbol
_atom_site_description
_atom_site_fract_x
_atom_site_fract_y
_atom_site_fract_z
_atom_type_partial_charge
O1    O     O_R   0.499990 0.319060 0.613040 -0.614494
O2    O     O_R   0.500010 0.319100 0.386900 -0.617108
C1    C     C_R   0.501717 0.262755 0.499528 0.941781
O3    O     O_R   0.428750 0.500000 0.613050 -0.612500
O4    O     O_R   0.428760 0.500040 0.386920 -0.619276
C2    C     C_R   0.405943 0.499856 0.499034 0.878072
Zn1   Zn    Zn3+2 0.499990 0.499970 0.650990 0.970078
Zn2   Zn    Zn3+2 0.500010 0.500030 0.349010 0.953986
O5    O     O_R   0.499990 0.680900 0.613100 -0.614036
O6    O     O_R   0.500010 0.680940 0.386960 -0.617602
O7    O     O_R   0.571240 0.499960 0.613080 -0.603173
O8    O     O_R   0.571250 0.500000 0.386950 -0.612390
C3    C     C_R   0.497320 0.737290 0.500107 0.890171
C4    C     C_R   0.594094 0.500247 0.500739 0.870017
C5    C     C_R   0.178325 0.374987 0.498378 0.507898
O9    O     O_2   0.205121 0.275892 0.536176 -0.546049
N1    N     N_R   0.201030 0.484693 0.472834 -0.354252
C6    C     C_R   0.176738 0.587723 0.430048 0.532984
C7    C     C_R   0.275928 0.490474 0.606272 -0.081459
C8    C     C_R   0.326221 0.494668 0.612975 -0.202829
C9    C     C_R   0.329080 0.497419 0.370186 -0.199154
C10   C     C_R   0.279077 0.493272 0.363893 -0.097034
C11   C     C_R   0.252472 0.489663 0.481574 0.312708
C12   C     C_R   0.101742 0.471891 0.438840 -0.050382
C13   C     C_R   0.127707 0.365756 0.484604 -0.058503
C14   C     C_R   0.102118 0.255260 0.514880 -0.016197
C15   C     C_R   0.126604 0.582412 0.404586 -0.100663
C16   C     C_R   0.353101 0.497846 0.494705 -0.046977
H1    H     H_    0.348829 0.499724 0.277328 0.168928
H2    H     H_    0.260838 0.492346 0.267504 0.149013
C17   C     C_R   0.647100 0.495077 0.500717 -0.094531
C18   C     C_R   0.974481 0.354878 0.450419 0.054120
C19   C     C_R   0.974726 0.581713 0.420076 0.078020
C20   C     C_R   0.949369 0.469340 0.440714 0.082654
C21   C     C_R   0.947422 0.243378 0.456072 -0.203050
C22   C     C_R   0.897286 0.246061 0.462720 -0.127389
C23   C     C_R   0.872626 0.359838 0.465081 -0.022358
C24   C     C_R   0.898625 0.471900 0.454165 -0.055966
C25   C     C_R   0.873961 0.586685 0.458086 -0.022784
C26   C     C_R   0.823736 0.587149 0.471174 0.515099
N2    N     N_R   0.799155 0.477171 0.480161 -0.354895
C27   C     C_R   0.822350 0.364660 0.477633 0.512730
C28   C     C_R   0.719723 0.440726 0.380232 -0.097058
C29   C     C_R   0.669779 0.448079 0.385924 -0.218797
C30   C     C_R   0.675698 0.534906 0.611202 -0.038278
C31   C     C_R   0.725920 0.526757 0.604213 -0.132362
C32   C     C_R   0.747782 0.480180 0.489010 0.295301
O10   O     O_2   0.796798 0.258151 0.488136 -0.546439
C33   C     C_R   0.025611 0.356761 0.458894 0.043569
C34   C     C_R   0.050763 0.468408 0.429912 0.071129
C35   C     C_R   0.024931 0.577410 0.394348 -0.018527
C36   C     C_R   0.052105 0.251889 0.500950 -0.217141
H3    H     H_    0.648862 0.416260 0.300206 0.174772
H4    H     H_    0.736755 0.405392 0.290735 0.150035
H5    H     H_    0.877986 0.158449 0.467727 0.193650
H6    H     H_    0.964037 0.152448 0.452624 0.158819
H7    H     H_    0.034311 0.167103 0.530747 0.150400
O11   O     O_2   0.201368 0.695139 0.415096 -0.522169
C37   C     C_R   0.100938 0.682012 0.343116 -0.095919
H8    H     H_    0.343960 0.494921 0.710043 0.167495
H9    H     H_    0.255189 0.487852 0.697410 0.148808
C38   C     C_R   0.949672 0.695551 0.434205 -0.173827
C39   C     C_R   0.899972 0.698010 0.451184 -0.127698
O12   O     O_2   0.799488 0.696369 0.473323 -0.546931
C40   C     C_R   0.050023 0.677427 0.333837 -0.121192
H10   H     H_    0.968369 0.783898 0.436640 0.154693
H11   H     H_    0.882096 0.787543 0.459427 0.191478
H12   H     H_    0.748320 0.557883 0.687473 0.148580
C41   C     C_2   0.500064 0.933184 0.391438 -0.203866
C42   C     C_2   0.486970 0.867412 0.498879 -0.155783
H13   H     H_    0.516408 0.888802 0.305064 0.172475
C43   C     C_2   0.496447 0.066760 0.388153 -0.157036
C44   C     C_2   0.507561 0.131592 0.497960 -0.309773
H14   H     H_    0.486175 0.111072 0.294597 0.180874
H15   H     H_    0.521064 0.087640 0.588617 0.159959
C45   C     C_2   0.519181 0.588353 0.925974 -0.103203
N3    N     N_2   0.500520 0.501330 0.852150 -0.194125
H16   H     H_    0.534504 0.669009 0.877253 0.173450
H17   H     H_    0.488822 0.421308 0.897160 0.165857
C46   C     C_2   0.522242 0.583545 0.076109 -0.116070
N4    N     N_2   0.500540 0.501360 0.147810 -0.195466
H18   H     H_    0.543184 0.655302 0.126790 0.164321
H19   H     H_    0.478135 0.438314 0.101034 0.162517
C47   C     C_2   0.127000 0.784689 0.276271 1.065158
O13   O     O_2   0.149909 0.763339 0.174854 -0.600222
O14   O     O_R   0.125735 0.904860 0.330566 -0.748095
H20   H     H_    0.145007 0.966706 0.276526 0.354895
C48   C     C_1   0.655116 0.588323 0.730559 0.214276
N5    N     N_1   0.638789 0.631237 0.826358 -0.205314
C49   C     C_2   0.023808 0.763054 0.240697 0.892469
O15   O     O_2   0.031231 0.875326 0.244056 -0.608003
O16   O     O_R   0.989654 0.714081 0.150799 -0.776400
H21   H     H_    0.973729 0.780711 0.093847 0.352127
C50   C     C_1   0.457743 0.917225 0.606720 0.203637
N6    N     N_1   0.434430 0.956537 0.692570 -0.186117
C51   C     C_1   0.125145 0.143086 0.564185 0.333594
N7    N     N_1   0.143332 0.053163 0.603826 -0.101735

loop_
_geom_bond_atom_site_label_1
_geom_bond_atom_site_label_2
_geom_bond_distance
_ccdc_geom_bond_type
N2    C27   1.367010 A    
C21   C22   1.389936 A    
C12   C15   1.417175 A    
C4    C17   1.467751 S    
C30   C31   1.394855 A    
Zn1   O7    2.011810 S    
N1    C11   1.426241 S    
C22   C23   1.398280 A    
C42   C50   1.454709 S    
C23   C24   1.407346 A    
C45   H16   1.084421 S    
O4    C2    1.293079 A    
O7    C4    1.295586 A    
C5    C13   1.409493 A    
C3    C42   1.425234 S    
C5    O9    1.348943 S    
Zn1   O5    1.980094 S    
C35   C40   1.420480 A    
C23   C27   1.399121 A    
C41   H13   1.087224 S    
O5    C3    1.286104 A    
C47   O13   1.222768 D    
C6    O11   1.349572 S    
C2    C16   1.462568 S    
C7    C8    1.393318 A    
C19   C38   1.411239 A    
C8    H8    1.083241 S    
Zn1   N3    2.012216 S    
C20   C24   1.412284 A    
C9    C10   1.385168 A    
C14   C51   1.447614 S    
C44   H15   1.086694 S    
C50   N6    1.157463 T    
O3    Zn1   2.003433 S    
C29   H3    1.083328 S    
N4    H19   1.025961 S    
C34   C35   1.415072 A    
N3    H17   1.025945 S    
C12   C34   1.413044 A    
C40   C49   1.493583 S    
C39   H11   1.083376 S    
C17   C29   1.405820 A    
C38   H10   1.080623 S    
Zn2   N4    2.013077 S    
C18   C21   1.413913 A    
C30   C48   1.444340 S    
C12   C13   1.420946 A    
C46   H18   1.084716 S    
C25   C26   1.397371 A    
O14   H20   1.013781 S    
C46   N4    1.292201 D    
C8    C16   1.404973 A    
C13   C14   1.417487 A    
C9    H1    1.083292 S    
O1    C1    1.285016 A    
C18   C20   1.413814 A    
C41   C43   1.437343 S    
C7    C11   1.399881 A    
C28   C29   1.385991 A    
C31   H12   1.084420 S    
C38   C39   1.387756 A    
C14   C36   1.389908 A    
C28   H4    1.083049 S    
C49   O16   1.398591 S    
Zn2   O8    2.003435 S    
C33   C36   1.406086 A    
C51   N7    1.157583 T    
N1    C6    1.361679 A    
N2    C32   1.425608 S    
C27   O10   1.349823 S    
C45   N3    1.292351 D    
C43   H14   1.086756 S    
C26   N2    1.366685 A    
C9    C16   1.405449 A    
O8    C4    1.295973 A    
O3    C2    1.297473 A    
C5    N1    1.361674 A    
C31   C32   1.397480 A    
C10   H2    1.083445 S    
C21   H6    1.078781 S    
O1    Zn1   1.976372 S    
O2    Zn2   1.980095 S    
C6    C15   1.408867 A    
C45   C46   1.504495 S    
C47   O14   1.397424 S    
C43   C44   1.330742 D    
O6    C3    1.283536 A    
O4    Zn2   2.011807 S    
C19   C35   1.416327 A    
C25   C39   1.397821 A    
C37   C47   1.483535 S    
C26   O12   1.350090 S    
O2    C1    1.281679 A    
C22   H5    1.083448 S    
C15   C37   1.421306 A    
C37   C40   1.411833 A    
C49   O15   1.222686 D    
C24   C25   1.408155 A    
C7    H9    1.083102 S    
O16   H21   1.013807 S    
C19   C20   1.413049 A    
C41   C42   1.342078 D    
C1    C44   1.416674 S    
C18   C33   1.416611 A    
C36   H7    1.079820 S    
C48   N5    1.157301 T    
Zn2   O6    1.976371 S    
C33   C34   1.419039 A    
C17   C30   1.416860 A    
C10   C11   1.396027 A    
C28   C32   1.394266 A    
