data_mof_unit_5410.cif
_audit_creation_date              2012-12-10T17:14:07-0500
_audit_creation_method            fapswitch 2.2
_symmetry_space_group_name_H-M    P1
_symmetry_Int_Tables_number       1
_space_group_crystal_system       triclinic
_cell_length_a                    15.892544
_cell_length_b                    13.015478
_cell_length_c                    11.648759
_cell_angle_alpha                 100.444299
_cell_angle_beta                  93.353615
_cell_angle_gamma                 90.265592
_cell_volume                      2365.26972564

loop_
_atom_site_label
_atom_site_type_symbol
_atom_type_description
_atom_site_fract_x
_atom_site_fract_y
_atom_site_fract_z
_atom_type_partial_charge
C1    C     C_R   0.503414 0.298820 0.477362 0.817753
C2    C     C_3   0.954593 0.454258 0.611815 -0.123610
C3    C     C_3   0.916697 0.497825 0.503284 0.211314
C4    C     C_3   0.952236 0.609326 0.501264 -0.411357
C5    C     C_3   0.049566 0.610409 0.503435 -0.412732
C6    C     C_1   0.824468 0.498382 0.499406 -0.084744
C7    C     C_1   0.175334 0.499187 0.501014 -0.078652
C8    C     C_1   0.250804 0.499696 0.501865 -0.211695
C9    C     C_R   0.500724 0.814590 0.534701 -0.113940
C10   C     C_R   0.510760 0.184532 0.461619 -0.098345
C11   C     C_R   0.526279 0.011430 0.342585 0.129721
C12   C     C_R   0.340174 0.499948 0.500715 0.838284
C13   C     C_R   0.535069 0.121578 0.355694 0.112782
C14   C     C_R   0.492854 0.138748 0.556921 -0.328808
C15   C     C_R   0.497382 0.031287 0.552017 0.068725
C16   C     C_R   0.511860 0.966934 0.442947 0.083799
C17   C     C_R   0.513194 0.858947 0.437066 -0.258035
C18   C     C_R   0.488056 0.877727 0.642330 -0.192466
C19   C     C_R   0.486373 0.986853 0.653628 0.167491
C20   C     C_R   0.421615 0.400841 0.021265 -0.345399
C21   C     C_R   0.429098 0.410508 0.143666 0.076078
C22   C     C_R   0.534175 0.542690 0.157396 0.029193
C23   C     C_R   0.500818 0.701051 0.521922 0.813430
C24   C     C_R   0.528854 0.535663 0.034409 0.069885
C25   C     C_R   0.471613 0.463865 0.965574 0.068722
C26   C     C_R   0.466023 0.457121 0.842628 0.024317
C27   C     C_R   0.571384 0.588947 0.856282 0.096276
C28   C     C_R   0.579144 0.598321 0.978651 -0.345925
C29   C     C_R   0.659783 0.500177 0.499304 0.818415
C30   C     C_3   0.053742 0.460030 0.613360 -0.050305
C31   C     C_3   0.042620 0.427111 0.380807 0.312139
C32   C     C_3   0.944159 0.423129 0.391754 -0.468847
C33   C     C_1   0.749061 0.499121 0.498064 -0.185561
C34   C     C_3   0.083052 0.497962 0.499394 0.282293
Cu1   Cu    Cu3+1 0.506190 0.507730 0.615930 0.935286
Cu2   Cu    Cu3+1 0.493810 0.492270 0.384070 0.928240
H1    H     H_    0.937449 0.369563 0.590460 0.094770
H2    H     H_    0.926702 0.635816 0.420692 0.167378
H3    H     H_    0.526004 0.807192 0.357007 0.172675
H4    H     H_    0.478791 0.840462 0.716369 0.170593
H5    H     H_    0.475641 0.188852 0.636281 0.162344
H6    H     H_    0.422158 0.402187 0.788791 0.113813
H7    H     H_    0.074129 0.378841 0.606496 0.119854
H8    H     H_    0.610360 0.637581 0.814120 0.120693
H9    H     H_    0.377104 0.344566 0.970731 0.132803
H10   H     H_    0.624136 0.654001 0.029075 0.131055
H11   H     H_    0.390365 0.361596 0.185804 0.119147
H12   H     H_    0.577962 0.597719 0.211258 0.116501
H13   H     H_    0.920948 0.342514 0.391266 0.170653
H14   H     H_    0.909164 0.444401 0.313849 0.154029
H15   H     H_    0.076004 0.665255 0.580364 0.188530
H16   H     H_    0.071000 0.645968 0.430505 0.167123
H17   H     H_    0.932376 0.667944 0.575330 0.161519
N1    N     N_R   0.515490 0.519350 0.790130 -0.177680
N2    N     N_R   0.484510 0.480650 0.209890 -0.176434
O1    O     O_R   0.504390 0.354460 0.582000 -0.589167
O2    O     O_R   0.493940 0.341410 0.386200 -0.590858
O3    O     O_R   0.384660 0.506540 0.597940 -0.581646
O4    O     O_R   0.374210 0.493480 0.402140 -0.578563
O5    O     O_R   0.506060 0.658590 0.613800 -0.594153
O6    O     O_R   0.495610 0.645540 0.418000 -0.588796
O7    O     O_R   0.625790 0.506520 0.597860 -0.573575
O8    O     O_R   0.615340 0.493460 0.402060 -0.582776
C35   C     C_3   0.101651 0.508998 0.732696 -0.365693
C36   C     C_3   0.085767 0.623599 0.784622 -0.793013
H18   H     H_    0.135160 0.674647 0.759800 0.226767
H19   H     H_    0.022978 0.649720 0.756951 0.255429
H20   H     H_    0.090084 0.634424 0.881601 0.233719
H21   H     H_    0.086758 0.461364 0.799016 0.190157
H22   H     H_    0.170654 0.499415 0.725352 0.198230
C37   C     C_R   0.915401 0.486256 0.730802 0.168369
C38   C     C_R   0.926027 0.418916 0.812742 -0.167722
C39   C     C_R   0.890492 0.441438 0.921245 -0.132073
C40   C     C_R   0.842216 0.530606 0.949427 -0.106366
C41   C     C_R   0.829348 0.597229 0.869052 -0.141738
C42   C     C_R   0.865235 0.575471 0.760641 -0.130186
H23   H     H_    0.962265 0.348347 0.792339 0.104333
H24   H     H_    0.900034 0.389268 0.983258 0.116187
H25   H     H_    0.814297 0.547723 0.033214 0.116626
H26   H     H_    0.791050 0.665827 0.890540 0.115599
H27   H     H_    0.852173 0.628792 0.701704 0.114539
C43   C     C_3   0.526790 0.942674 0.221302 -0.412320
C44   C     C_3   0.614405 0.900041 0.193841 -0.853257
H28   H     H_    0.661528 0.964332 0.200926 0.255753
H29   H     H_    0.635903 0.847791 0.254652 0.243157
H30   H     H_    0.612135 0.854692 0.103263 0.235456
H31   H     H_    0.480472 0.877200 0.211962 0.196190
H32   H     H_    0.502573 0.985382 0.152352 0.189889
C45   C     C_3   0.473997 0.056469 0.772092 -0.404430
C46   C     C_3   0.470125 0.001426 0.877277 -0.878592
H33   H     H_    0.414345 0.948083 0.866661 0.251197
H34   H     H_    0.528819 0.957431 0.888841 0.254344
H35   H     H_    0.464004 0.060792 0.957747 0.237331
H36   H     H_    0.527226 0.113868 0.792190 0.208547
H37   H     H_    0.414489 0.100142 0.765624 0.194617
C47   C     C_3   0.575914 0.170289 0.261581 -0.386919
C48   C     C_3   0.660951 0.222232 0.306910 -0.789758
H38   H     H_    0.655040 0.283255 0.385452 0.247096
H39   H     H_    0.705668 0.162639 0.329619 0.235735
H40   H     H_    0.687576 0.259141 0.237928 0.233100
H41   H     H_    0.589885 0.113082 0.183282 0.203227
H42   H     H_    0.533139 0.225181 0.225953 0.217206
C49   C     C_3   0.055102 0.476901 0.267791 -0.419086
C50   C     C_3   0.145351 0.502168 0.240052 -0.838163
H43   H     H_    0.172248 0.570406 0.302493 0.255045
H44   H     H_    0.187520 0.434530 0.238284 0.246032
H45   H     H_    0.143818 0.523645 0.151926 0.236739
H46   H     H_    0.027192 0.422781 0.189627 0.186787
H47   H     H_    0.017744 0.548892 0.269113 0.198657
C51   C     C_3   0.079456 0.313182 0.350689 -0.365932
C52   C     C_3   0.067823 0.234441 0.432079 -0.924948
H48   H     H_    0.120643 0.241333 0.499821 0.243300
H49   H     H_    0.006563 0.240679 0.472724 0.245119
H50   H     H_    0.070969 0.153995 0.380643 0.247758
H51   H     H_    0.050750 0.275096 0.263888 0.195940
H52   H     H_    0.148124 0.317729 0.339895 0.208468

loop_
_geom_bond_atom_site_label_1
_geom_bond_atom_site_label_2
_ccdc_geom_bond_type
C22   H12   S    
C29   O8    A    
C30   C35   S    
C4    H17   S    
C39   C40   A    
C52   H48   S    
C3    C6    S    
C50   H44   S    
C48   H38   S    
C27   N1    A    
C7    C8    T    
C15   C19   A    
C28   H10   S    
Cu1   O3    S    
C1    O1    A    
C47   H42   S    
C37   C42   A    
C20   C25   A    
C43   H31   S    
C29   C33   S    
C18   C19   A    
C17   H3    S    
C45   H36   S    
C18   H4    S    
C51   C52   S    
C12   O4    A    
C27   H8    S    
C31   C32   S    
C16   C17   A    
C36   H19   S    
C39   H24   S    
C5    H16   S    
C49   H46   S    
C35   H22   S    
Cu1   O7    S    
Cu2   O8    S    
C41   H26   S    
C20   H9    S    
C38   C39   A    
C12   O3    A    
Cu2   O4    S    
C47   H41   S    
C5    C34   S    
Cu1   N1    S    
C26   N1    A    
C50   H43   S    
C48   H39   S    
C11   C43   S    
C23   O5    A    
C40   C41   A    
C30   C34   S    
C13   C47   S    
C24   C25   A    
Cu2   O2    S    
C10   C14   A    
C21   N2    A    
C9    C23   S    
C25   C26   A    
Cu1   O5    S    
Cu1   Cu2   S    
C31   C49   S    
C45   H37   S    
C41   C42   A    
C38   H23   S    
C19   C45   S    
C1    O2    A    
C11   C16   A    
C46   H34   S    
C44   H28   S    
C8    C12   S    
C36   H20   S    
C47   C48   S    
C31   C34   S    
C52   H49   S    
C35   H21   S    
C32   H14   S    
C2    C37   S    
C14   H5    S    
C9    C17   A    
C44   H29   S    
C4    H2    S    
C36   H18   S    
C40   H25   S    
C7    C34   S    
C22   C24   A    
C30   H7    S    
C3    C4    S    
C51   H52   S    
C49   C50   S    
C48   H40   S    
C26   H6    S    
C46   H35   S    
C29   O7    A    
Cu1   O1    S    
C1    C10   S    
C24   C28   A    
C4    C5    S    
C10   C13   A    
C42   H27   S    
C22   N2    A    
C6    C33   T    
C49   H47   S    
C2    C30   S    
C35   C36   S    
C2    C3    S    
C37   C38   A    
Cu2   N2    S    
C11   C13   A    
C2    H1    S    
C46   H33   S    
C43   H32   S    
C15   C16   A    
C31   C51   S    
C52   H50   S    
C3    C32   S    
C32   H13   S    
C9    C18   A    
C23   O6    A    
C44   H30   S    
C20   C21   A    
C43   C44   S    
C27   C28   A    
C14   C15   A    
C5    H15   S    
C45   C46   S    
C51   H51   S    
C50   H45   S    
Cu2   O6    S    
C21   H11   S    
