data_mof_unit_35559.cif
_audit_creation_date              2013-03-05T15:55:19-0500
_audit_creation_method            fapswitch 2.2
_symmetry_space_group_name_H-M    P1
_symmetry_Int_Tables_number       1
_space_group_crystal_system       triclinic
_cell_length_a                    27.253149
_cell_length_b                    10.620948
_cell_length_c                    10.057562
_cell_angle_alpha                 91.769966
_cell_angle_beta                  91.852465
_cell_angle_gamma                 93.954216
_cell_volume                      2901.15491309

loop_
_atom_site_label
_atom_site_type_symbol
_atom_site_description
_atom_site_fract_x
_atom_site_fract_y
_atom_site_fract_z
_atom_type_partial_charge
O1    O     O_R   0.500000 0.316780 0.614690 -0.578505
O2    O     O_R   0.500000 0.316750 0.385360 -0.648805
C1    C     C_R   0.503431 0.261229 0.497972 0.876083
O3    O     O_R   0.428760 0.500030 0.614650 -0.584277
O4    O     O_R   0.428750 0.500010 0.385320 -0.644105
C2    C     C_R   0.406125 0.499725 0.497705 0.885145
Zn1   Zn    Zn3+2 0.500000 0.500020 0.653130 1.105268
Zn2   Zn    Zn3+2 0.500000 0.499980 0.346870 1.049451
O5    O     O_R   0.500000 0.683250 0.614640 -0.552669
O6    O     O_R   0.500000 0.683220 0.385310 -0.572080
O7    O     O_R   0.571250 0.499990 0.614680 -0.560291
O8    O     O_R   0.571240 0.499970 0.385350 -0.561366
C3    C     C_R   0.495082 0.738541 0.502368 0.950916
C4    C     C_R   0.593987 0.504387 0.502049 0.944177
C5    C     C_R   0.181683 0.544267 0.635356 0.567940
O9    O     O_2   0.210404 0.508134 0.736703 -0.447672
N1    N     N_R   0.203032 0.576369 0.518644 -0.366838
C6    C     C_R   0.177050 0.627845 0.418230 0.551131
C7    C     C_R   0.287755 0.655082 0.474595 -0.059850
C8    C     C_R   0.337486 0.634864 0.467340 -0.186034
C9    C     C_R   0.319920 0.414132 0.514542 -0.141592
C10   C     C_R   0.270043 0.433296 0.517988 -0.037838
C11   C     C_R   0.253847 0.554620 0.501878 0.266149
C12   C     C_R   0.104606 0.617217 0.552324 -0.100681
C13   C     C_R   0.130719 0.553331 0.650766 -0.154768
C14   C     C_R   0.104358 0.498552 0.756756 0.436644
C15   C     C_R   0.128013 0.653390 0.434959 -0.002099
C16   C     C_R   0.353745 0.515552 0.492314 -0.006505
H1    H     H_    0.331761 0.320488 0.528402 0.201049
H2    H     H_    0.244014 0.354520 0.536215 0.172433
C17   C     C_R   0.647373 0.526989 0.507723 -0.147093
C18   C     C_R   0.979724 0.618695 0.697116 -0.040251
C19   C     C_R   0.978533 0.726137 0.484432 -0.045474
C20   C     C_R   0.953423 0.666883 0.588930 0.026401
C21   C     C_R   0.953762 0.591654 0.814613 0.295473
C22   C     C_R   0.902238 0.566432 0.804873 0.231890
C23   C     C_R   0.876402 0.588566 0.684234 -0.164834
C24   C     C_R   0.901682 0.652442 0.583091 -0.106625
C25   C     C_R   0.875488 0.697545 0.473316 -0.152105
C26   C     C_R   0.825269 0.659608 0.455971 0.645100
N2    N     N_R   0.802036 0.587731 0.548541 -0.342064
C27   C     C_R   0.825900 0.553463 0.661918 0.654478
C28   C     C_R   0.727879 0.440474 0.501080 0.390489
C29   C     C_R   0.676314 0.424133 0.490315 -0.291590
C30   C     C_R   0.669862 0.649314 0.536486 0.319242
C31   C     C_R   0.720803 0.664164 0.551955 -0.195055
C32   C     C_R   0.749855 0.562443 0.533783 0.097254
O10   O     O_2   0.800785 0.483837 0.750453 -0.451965
C33   C     C_R   0.030143 0.597931 0.682074 0.040186
C34   C     C_R   0.054689 0.642220 0.569089 0.093573
C35   C     C_R   0.028976 0.706085 0.469487 0.104073
C36   C     C_R   0.054537 0.518070 0.766619 -0.196943
H3    H     H_    0.658483 0.331265 0.467427 0.193039
H4    H     H_    0.034055 0.465070 0.838127 0.241722
O11   O     O_2   0.198657 0.653892 0.302358 -0.493988
C37   C     C_R   0.101584 0.709631 0.334301 -0.113016
H5    H     H_    0.363465 0.712897 0.446189 0.175143
H6    H     H_    0.275722 0.749124 0.461716 0.171803
H7    H     H_    0.118265 0.733488 0.241204 0.204582
C38   C     C_R   0.951666 0.801777 0.397985 0.186620
C39   C     C_R   0.900039 0.782089 0.387590 0.263915
O12   O     O_2   0.799763 0.691007 0.346076 -0.420914
C40   C     C_R   0.052784 0.733516 0.350269 -0.101946
H8    H     H_    0.738658 0.756879 0.575419 0.219436
H9    H     H_    0.033619 0.767825 0.264718 0.210830
H10   H     H_    0.464815 0.105970 0.305199 0.223214
C41   C     C_R   0.557556 0.126288 0.700390 -0.159881
H11   H     H_    0.578064 0.214629 0.681657 0.174886
C42   C     C_R   0.561640 0.075122 0.825577 -0.150639
H12   H     H_    0.585500 0.124844 0.900947 0.218125
C43   C     C_R   0.529103 0.974024 0.859258 0.431729
C44   C     C_R   0.497874 0.911284 0.758092 0.367940
C45   C     C_R   0.504893 0.945536 0.624292 -0.017825
C46   C     C_R   0.524891 0.066667 0.603375 0.064838
C47   C     C_R   0.506683 0.127641 0.492337 -0.080549
C48   C     C_R   0.480980 0.059251 0.388182 -0.104239
H13   H     H_    0.459646 0.875801 0.306463 0.216169
C49   C     C_R   0.475314 0.929954 0.392530 -0.123644
C50   C     C_R   0.488654 0.871869 0.509574 -0.051985
C51   C     C_R   0.422675 0.375274 0.130708 -0.169167
H14   H     H_    0.426920 0.346997 0.231214 0.230286
C52   C     C_R   0.378684 0.339128 0.061855 0.429727
C53   C     C_R   0.376793 0.344587 0.924053 -0.259120
H15   H     H_    0.344724 0.301045 0.869774 0.224701
C54   C     C_R   0.420512 0.368435 0.857009 0.321592
C55   C     C_R   0.461090 0.438026 0.924290 0.018290
C56   C     C_R   0.461376 0.440191 0.067586 -0.001496
N3    N     N_R   0.499540 0.498800 0.142780 -0.171633
C57   C     C_R   0.538338 0.552836 0.078217 0.282757
C58   C     C_R   0.538079 0.558195 0.936002 0.376576
N4    N     N_R   0.499520 0.498720 0.857170 -0.160051
N5    N     N_R   0.975574 0.910916 0.339433 0.210707
O13   O     O_R   0.008790 0.981411 0.408337 -0.325632
O14   O     O_R   0.964261 0.941410 0.218546 -0.242246
N6    N     N_R   0.642287 0.759580 0.549242 0.245517
O15   O     O_R   0.659817 0.856734 0.622287 -0.309226
O16   O     O_R   0.602677 0.770137 0.476501 -0.350382
N7    N     N_R   0.872585 0.858979 0.301963 0.275357
O17   O     O_R   0.847026 0.946347 0.352981 -0.254998
O18   O     O_R   0.869080 0.833482 0.174557 -0.190997
S1    S     S_3+6 0.522967 0.949510 0.030705 0.090599
O19   O     O_2   0.488365 0.042474 0.081250 -0.309056
O20   O     O_2   0.502723 0.817913 0.056476 -0.263846
O21   O     O_3   0.577918 0.977454 0.110999 -0.477876
H16   H     H_    0.570397 0.981262 0.206698 0.399181
S2    S     S_3+6 0.439367 0.839049 0.797839 0.106274
O22   O     O_2   0.444579 0.709220 0.848205 -0.287512
O23   O     O_2   0.416790 0.917542 0.903386 -0.179479
O24   O     O_3   0.401032 0.828874 0.663196 -0.595140
H17   H     H_    0.368380 0.802453 0.697514 0.389276
N8    N     N_R   0.580393 0.602421 0.155657 0.262448
O25   O     O_R   0.579582 0.711058 0.218199 -0.245770
O26   O     O_R   0.621248 0.545880 0.152275 -0.307404
S3    S     S_3+6 0.328198 0.272659 0.146882 0.070768
O27   O     O_2   0.297336 0.376862 0.191730 -0.248131
O28   O     O_2   0.297537 0.181005 0.056266 -0.222565
O29   O     O_3   0.348417 0.197306 0.280479 -0.576079
H18   H     H_    0.318230 0.161453 0.321570 0.389303
N9    N     N_R   0.429434 0.271082 0.762509 0.242538
O30   O     O_R   0.456714 0.183000 0.802392 -0.373166
O31   O     O_R   0.398067 0.243887 0.664043 -0.419106
S4    S     S_3+6 0.590281 0.642115 0.867924 0.111777
O32   O     O_2   0.576568 0.712531 0.748134 -0.280896
O33   O     O_2   0.614704 0.738742 0.965365 -0.180079
O34   O     O_3   0.631590 0.537348 0.829289 -0.534130
H19   H     H_    0.663111 0.588317 0.821070 0.396103
S5    S     S_3+6 0.129206 0.393594 0.871691 0.109941
O35   O     O_2   0.156132 0.295691 0.798029 -0.231352
O36   O     O_2   0.164161 0.467188 0.968692 -0.186946
O37   O     O_3   0.084301 0.319833 0.957414 -0.511139
H20   H     H_    0.101228 0.260093 0.013741 0.410264
N10   N     N_R   0.756913 0.334020 0.477889 0.248306
O38   O     O_R   0.737067 0.219431 0.484285 -0.285624
O39   O     O_R   0.802116 0.349996 0.440496 -0.298751
N11   N     N_R   0.876344 0.527483 0.920353 0.280778
O40   O     O_R   0.887004 0.425017 0.979255 -0.234753
O41   O     O_R   0.845012 0.599740 0.973072 -0.226570
S6    S     S_3+6 0.981890 0.624623 0.976165 0.076080
O42   O     O_2   0.948547 0.698839 0.059344 -0.189858
O43   O     O_2   0.989957 0.502950 0.043631 -0.250808
O44   O     O_3   0.035824 0.710616 0.965866 -0.531237
H21   H     H_    0.058491 0.675043 0.031454 0.373140

loop_
_geom_bond_atom_site_label_1
_geom_bond_atom_site_label_2
_geom_bond_distance
_ccdc_geom_bond_type
C56   N3    1.368210 A    
C3    C50   1.438717 S    
S1    O19   1.500338 D    
N6    O15   1.301996 A    
N2    C27   1.366028 A    
C7    C8    1.390660 A    
C12   C15   1.410940 A    
C4    C17   1.457178 S    
C28   C29   1.404315 A    
C40   H9    1.078186 S    
S3    O27   1.502605 D    
N11   O40   1.300778 A    
H13   C49   1.083476 S    
Zn1   O7    1.992162 S    
N1    C11   1.434050 S    
C28   N10   1.441487 S    
C48   C49   1.373496 A    
C51   C56   1.400322 A    
C55   N4    1.395590 A    
C21   S6    1.788182 S    
O4    C2    1.304933 A    
O7    C4    1.309212 A    
C5    C13   1.412043 A    
S2    O22   1.497891 D    
C5    O9    1.346453 S    
N7    O17   1.300929 A    
C26   O12   1.349493 S    
C54   N9    1.421446 S    
C45   C46   1.387036 A    
C23   C27   1.409903 A    
C42   C43   1.401635 A    
O5    C3    1.296109 A    
O44   H21   0.990328 S    
C29   H3    1.083816 S    
C2    C16   1.448322 S    
C21   C22   1.410930 A    
N10   O38   1.301605 A    
C1    C47   1.427180 S    
C38   N5    1.441455 S    
C43   S1    1.763373 S    
H10   C48   1.081114 S    
S1    O20   1.500118 D    
O1    Zn1   1.972465 S    
C9    C10   1.389632 A    
C58   S4    1.792494 S    
O3    Zn1   1.967415 S    
O21   H16   0.990728 S    
C36   H4    1.073938 S    
C34   C35   1.420139 A    
N9    O31   1.299423 A    
C7    H6    1.082749 S    
C12   C34   1.418296 A    
C25   C39   1.414079 A    
C17   C29   1.400741 A    
C41   H11   1.083337 S    
C18   C21   1.423592 A    
C35   C40   1.410454 A    
C12   C13   1.417631 A    
C52   S3    1.761319 S    
C51   C52   1.389486 A    
C46   C47   1.402135 A    
C57   C58   1.433031 A    
C25   C26   1.403576 A    
C15   C37   1.396438 A    
C51   H14   1.068349 S    
C8    C16   1.398275 A    
C13   C14   1.421673 A    
C54   C55   1.426588 A    
C9    H1    1.078286 S    
O6    C3    1.314383 A    
C31   H8    1.083645 S    
C38   C39   1.408141 A    
O1    C1    1.306451 A    
C18   C20   1.412160 A    
C7    C11   1.402226 A    
C47   C48   1.396797 A    
S5    O36   1.503446 D    
C23   C24   1.411793 A    
C14   C36   1.393788 A    
C53   H15   1.083297 S    
Zn2   O8    1.967412 S    
C33   C36   1.403648 A    
Zn1   N4    2.053075 S    
N5    O14   1.300789 A    
N1    C6    1.364368 A    
N2    C32   1.431008 S    
C37   C40   1.384478 A    
N8    O26   1.301858 A    
C41   C46   1.404794 A    
C27   O10   1.348521 S    
S6    O43   1.504151 D    
C6    O11   1.350269 S    
N10   O39   1.301139 A    
O3    C2    1.310166 A    
C26   N2    1.365971 A    
C53   C54   1.399747 A    
C9    C16   1.396903 A    
C44   S2    1.783906 S    
C33   C34   1.413805 A    
C19   C38   1.421479 A    
N7    O18   1.300576 A    
O34   H19   0.990499 S    
N11   O41   1.301436 A    
C19   C35   1.417603 A    
S4    O33   1.502713 D    
S5    O35   1.503778 D    
C30   N6    1.439123 S    
C22   N11   1.435445 S    
C55   C56   1.440435 A    
C41   C42   1.390869 A    
Zn1   O5    1.995899 S    
C31   C32   1.393767 A    
C22   C23   1.417180 A    
C10   H2    1.082981 S    
N8    O25   1.298872 A    
C20   C24   1.407012 A    
O2    Zn2   1.995897 S    
C6    C15   1.396295 A    
O8    C4    1.307531 A    
C44   C45   1.420253 A    
C45   C50   1.415176 A    
S6    O44   1.684023 S    
O4    Zn2   1.992164 S    
S3    O28   1.503396 D    
N9    O30   1.299482 A    
N6    O16   1.297633 A    
C5    N1    1.369001 A    
S1    O21   1.681876 S    
C57   N8    1.425248 S    
C37   H7    1.083462 S    
S4    O34   1.682524 S    
O37   H20   0.990973 S    
S4    O32   1.488507 D    
S5    O37   1.683001 S    
C43   C44   1.423934 A    
O29   H18   0.990506 S    
C49   C50   1.395218 A    
C39   N7    1.433326 S    
C58   N4    1.398423 A    
C24   C25   1.409592 A    
S2    O23   1.502914 D    
N5    O13   1.301627 A    
C19   C20   1.413126 A    
O2    C1    1.296636 A    
C14   S5    1.780631 S    
C42   H12   1.082758 S    
C18   C33   1.418719 A    
S3    O29   1.681943 S    
S6    O42   1.501364 D    
C30   C31   1.389540 A    
N3    C57   1.361157 A    
Zn2   O6    1.972464 S    
C52   C53   1.388400 A    
C17   C30   1.415190 A    
C10   C11   1.402933 A    
Zn2   N3    2.051927 S    
C8    H5    1.083096 S    
O24   H17   0.990516 S    
C28   C32   1.413841 A    
S2    O24   1.679564 S    
