data_mof_unit_39737.cif
_audit_creation_date              2012-12-11T15:09:46-0500
_audit_creation_method            fapswitch 2.2
_symmetry_space_group_name_H-M    P1
_symmetry_Int_Tables_number       1
_space_group_crystal_system       triclinic
_cell_length_a                    20.965461
_cell_length_b                    7.124071
_cell_length_c                    14.011435
_cell_angle_alpha                 89.99991
_cell_angle_beta                  98.364856
_cell_angle_gamma                 89.999922
_cell_volume                      2070.47689414

loop_
_atom_site_label
_atom_site_type_symbol
_atom_type_description
_atom_site_fract_x
_atom_site_fract_y
_atom_site_fract_z
_atom_type_partial_charge
O1    O     O_R   0.447130 0.507140 0.597350 -0.541338
O2    O     O_R   0.552870 0.007140 0.402650 -0.541336
O3    O     O_R   0.578910 0.181280 0.586990 -0.537597
O4    O     O_R   0.421090 0.681280 0.413010 -0.537597
C1    C     C_R   0.604435 0.344495 0.607532 0.726746
C2    C     C_R   0.395565 0.844495 0.392468 0.726747
O5    O     O_R   0.449230 0.177860 0.608640 -0.541522
O6    O     O_R   0.550770 0.677860 0.391360 -0.541524
O7    O     O_R   0.422260 0.000770 0.424450 -0.535589
O8    O     O_R   0.577740 0.500770 0.575550 -0.535589
C3    C     C_R   0.432739 0.346398 0.634516 0.745304
C4    C     C_R   0.567261 0.846398 0.365485 0.745310
O9    O     O_3   0.491310 0.336980 0.439550 -0.375924
O10   O     O_3   0.508690 0.836980 0.560450 -0.375926
V1    V     V_3+5 0.501610 0.064760 0.511210 1.414797
V2    V     V_3+5 0.498390 0.564760 0.488790 1.414793
C5    C     C_R   0.611801 0.930756 0.117872 0.360026
C6    C     C_R   0.388196 0.430818 0.882123 0.360025
C7    C     C_R   0.604934 0.858328 0.285159 -0.124929
C8    C     C_R   0.395067 0.358331 0.714844 -0.124932
C9    C     C_R   0.914596 0.863804 0.300312 0.330919
C10   C     C_R   0.085405 0.363771 0.699688 0.330912
C11   C     C_R   0.875607 0.888528 0.373456 0.116636
C12   C     C_R   0.124395 0.388448 0.626541 0.116634
C13   C     C_R   0.808789 0.897112 0.348172 -0.194766
C14   C     C_R   0.191213 0.397027 0.651826 -0.194766
C15   C     C_R   0.778571 0.871279 0.252428 0.041210
C16   C     C_R   0.221430 0.371240 0.747574 0.041208
C17   C     C_R   0.817030 0.868880 0.177032 -0.056412
C18   C     C_R   0.182970 0.368871 0.822968 -0.056409
C19   C     C_R   0.710108 0.861518 0.230245 0.012173
C20   C     C_R   0.289893 0.361500 0.769760 0.012172
C21   C     C_R   0.680269 0.913404 0.136316 -0.077068
C22   C     C_R   0.319730 0.413432 0.863683 -0.077064
C23   C     C_R   0.719802 0.944210 0.063846 0.150525
C24   C     C_R   0.280195 0.444249 0.936149 0.150523
C25   C     C_R   0.784748 0.885115 0.080059 0.113252
C26   C     C_R   0.215251 0.385135 0.919940 0.113257
C27   C     C_R   0.670295 0.805322 0.299202 0.057328
C28   C     C_R   0.329709 0.305289 0.700809 0.057319
C29   C     C_R   0.575573 0.923880 0.194565 0.083475
C30   C     C_R   0.424424 0.423933 0.805430 0.083482
C31   C     C_R   0.885744 0.860941 0.202930 -0.141203
C32   C     C_R   0.114256 0.360935 0.797070 -0.141204
H1    H     H_    0.780074 0.928239 0.404338 0.152843
H2    H     H_    0.219928 0.428123 0.595657 0.152844
C33   C     C_1   0.166667 0.857219 0.168077 -0.184651
C34   C     C_1   0.833333 0.357220 0.831923 -0.184647
C35   C     C_1   0.219123 0.854988 0.219081 0.001257
C36   C     C_1   0.780877 0.354989 0.780919 0.001252
C37   C     C_1   0.280886 0.853485 0.279043 0.006306
C38   C     C_1   0.719114 0.353485 0.720957 0.006305
C39   C     C_1   0.333234 0.851118 0.330344 -0.192887
C40   C     C_1   0.666766 0.351117 0.669656 -0.192885
O11   O     O_R   0.922300 0.202240 0.924350 -0.539234
O12   O     O_R   0.077700 0.702240 0.075650 -0.539236
O13   O     O_R   0.050780 0.535130 0.891350 -0.540794
O14   O     O_R   0.949220 0.035130 0.108650 -0.540794
C41   C     C_R   0.070130 0.368471 0.868965 0.799734
C42   C     C_R   0.929870 0.868471 0.131035 0.799735
O15   O     O_R   0.921100 0.531560 0.912990 -0.539297
O16   O     O_R   0.078900 0.031560 0.087010 -0.539297
O17   O     O_R   0.947120 0.708470 0.097370 -0.541071
O18   O     O_R   0.052880 0.208470 0.902630 -0.541070
C43   C     C_R   0.895856 0.363579 0.893507 0.735362
C44   C     C_R   0.104144 0.863579 0.106493 0.735361
O19   O     O_3   0.008710 0.375800 0.060400 -0.376633
O20   O     O_3   0.991290 0.875800 0.939600 -0.376633
V3    V     V_3+5 0.998380 0.648080 0.988790 1.446753
V4    V     V_3+5 0.001620 0.148080 0.011210 1.446754
C45   C     C_3   0.504144 0.968521 0.177704 -0.687675
H3    H     H_    0.486869 0.015795 0.102981 0.250082
H4    H     H_    0.476096 0.842016 0.192162 0.184263
H5    H     H_    0.493631 0.083380 0.226620 0.192869
C46   C     C_3   0.495849 0.468616 0.822283 -0.687680
H6    H     H_    0.513122 0.515919 0.897002 0.250080
H7    H     H_    0.523906 0.342125 0.807834 0.184248
H8    H     H_    0.506353 0.583470 0.773358 0.192890
C47   C     C_3   0.696900 0.058656 0.973918 -0.741060
H9    H     H_    0.737714 0.137498 0.950738 0.207287
H10   H     H_    0.675998 0.966529 0.913521 0.203532
H11   H     H_    0.661505 0.167115 0.988308 0.238950
C48   C     C_3   0.303091 0.558728 0.026067 -0.741065
H12   H     H_    0.262273 0.637561 0.049240 0.207286
H13   H     H_    0.323998 0.466625 0.086472 0.203530
H14   H     H_    0.338480 0.667196 0.011667 0.238953
O21   O     O_3   0.578666 0.942565 0.025678 -0.641555
H15   H     H_    0.596368 0.843636 0.987267 0.292607
O22   O     O_3   0.421331 0.442676 0.974314 -0.641554
H16   H     H_    0.403635 0.343755 0.012737 0.292608
C49   C     C_3   0.693808 0.670400 0.380808 -0.754503
H17   H     H_    0.660686 0.548449 0.378301 0.218301
H18   H     H_    0.741452 0.608325 0.374278 0.216598
H19   H     H_    0.695577 0.741448 0.451691 0.191566
C50   C     C_3   0.306204 0.170316 0.619224 -0.754490
H20   H     H_    0.339333 0.048375 0.621754 0.218308
H21   H     H_    0.258563 0.108235 0.625761 0.216593
H22   H     H_    0.304434 0.241321 0.548330 0.191566
O23   O     O_3   0.981249 0.851902 0.319715 -0.657580
H23   H     H_    0.995766 0.842915 0.389829 0.296543
O24   O     O_3   0.018752 0.351884 0.680283 -0.657580
H24   H     H_    0.004237 0.342849 0.610171 0.296545
C51   C     C_3   0.903927 0.910523 0.478233 -0.785275
H25   H     H_    0.930097 0.780659 0.504453 0.210814
H26   H     H_    0.937496 0.031970 0.486872 0.213072
H27   H     H_    0.866204 0.935833 0.524814 0.215978
C52   C     C_3   0.096076 0.410412 0.521760 -0.785269
H28   H     H_    0.062516 0.531879 0.513110 0.213090
H29   H     H_    0.133801 0.435677 0.475175 0.215975
H30   H     H_    0.069899 0.280553 0.495553 0.210801
C53   C     C_3   0.815351 0.830473 0.992720 -0.743549
H31   H     H_    0.779316 0.813841 0.926972 0.205582
H32   H     H_    0.850326 0.937760 0.976496 0.211795
H33   H     H_    0.837719 0.690257 0.004827 0.207623
C54   C     C_3   0.184650 0.330504 0.007283 -0.743560
H34   H     H_    0.220685 0.313886 0.073030 0.205584
H35   H     H_    0.149674 0.437792 0.023502 0.211801
H36   H     H_    0.162283 0.190286 0.995183 0.207622

loop_
_geom_bond_atom_site_label_1
_geom_bond_atom_site_label_2
_ccdc_geom_bond_type
C37   C39   T    
O21   H15   S    
O24   H24   S    
C15   C17   A    
C50   H20   S    
O1    C3    A    
O2    C4    A    
C2    O7    A    
C47   H11   S    
C50   H22   S    
C33   C35   T    
O5    C3    A    
C28   C50   S    
C18   C26   A    
C41   O18   A    
C10   O24   S    
C42   O17   A    
C23   C25   A    
C12   C14   A    
C6    C30   A    
C8    C28   A    
O12   C44   A    
O13   C41   A    
C32   C41   S    
O14   C42   A    
C54   H34   S    
O16   V4    S    
C9    C31   A    
C10   C32   A    
C53   H32   S    
O17   V3    S    
O20   V3    S    
C35   C37   S    
C36   C38   S    
C52   H28   S    
C19   C21   A    
O18   V4    S    
C34   C43   S    
C51   H27   S    
C33   C44   S    
C29   C45   S    
C34   C36   T    
O6    V2    S    
C17   C31   A    
C52   H29   S    
C18   C32   A    
C5    C21   A    
C27   C49   S    
O11   C43   A    
C38   C40   T    
C11   C51   S    
C3    C8    S    
O16   C44   A    
C15   C19   A    
C1    C40   S    
C16   C20   A    
O4    C2    A    
C49   H17   S    
O1    V2    S    
O14   V4    S    
O5    V1    S    
C54   H35   S    
O19   V3    S    
C20   C22   A    
O4    V2    S    
C46   H6    S    
C49   H18   S    
C46   H7    S    
O23   H23   S    
O6    C4    A    
C54   H36   S    
C48   H14   S    
C30   C46   S    
C51   H26   S    
C12   C52   S    
O2    V1    S    
C6    C22   A    
C7    C27   A    
C31   C42   S    
C48   H13   S    
C9    C11   A    
C52   H30   S    
C10   C12   A    
C48   H12   S    
C2    C39   S    
C24   C26   A    
C13   H1    S    
O3    V1    S    
C45   H4    S    
O15   V3    S    
C53   H31   S    
C5    O21   S    
C6    O22   S    
C14   C16   A    
O3    C1    A    
C45   H5    S    
C8    C30   A    
C50   H21   S    
C13   C15   A    
C47   H10   S    
O19   V4    S    
C16   C18   A    
O7    V1    S    
C45   H3    S    
O8    V2    S    
C49   H19   S    
C26   C54   S    
C9    O23   S    
C4    C7    S    
C23   C47   S    
C21   C23   A    
C19   C27   A    
C53   H33   S    
C22   C24   A    
C20   C28   A    
C46   H8    S    
C5    C29   A    
C25   C53   S    
O11   V4    S    
C14   H2    S    
C47   H9    S    
O15   C43   A    
C1    O8    A    
C11   C13   A    
O20   V4    S    
O12   V3    S    
O9    V2    S    
C17   C25   A    
C51   H25   S    
O10   V1    S    
C24   C48   S    
O13   V3    S    
O22   H16   S    
C7    C29   A    
