data_mof_unit_37823.cif
_audit_creation_date              2013-03-05T15:47:05-0500
_audit_creation_method            fapswitch 2.2
_symmetry_space_group_name_H-M    P1
_symmetry_Int_Tables_number       1
_space_group_crystal_system       triclinic
_cell_length_a                    23.368678
_cell_length_b                    11.001614
_cell_length_c                    9.910688
_cell_angle_alpha                 112.567229
_cell_angle_beta                  98.480939
_cell_angle_gamma                 90.022219
_cell_volume                      2322.60899844

loop_
_atom_site_label
_atom_site_type_symbol
_atom_site_description
_atom_site_fract_x
_atom_site_fract_y
_atom_site_fract_z
_atom_type_partial_charge
O1    O     O_R   0.505330 0.332340 0.577400 -0.598750
O2    O     O_R   0.494670 0.667660 0.422600 -0.596890
O3    O     O_R   0.488470 0.295500 0.332650 -0.520140
O4    O     O_R   0.511530 0.704500 0.667350 -0.527327
C1    C     C_R   0.498008 0.253229 0.438298 0.822372
C2    C     C_R   0.502978 0.747376 0.560997 0.812037
O5    O     O_R   0.426310 0.518390 0.622390 -0.582674
O6    O     O_R   0.573690 0.481610 0.377610 -0.573984
O7    O     O_R   0.409450 0.481550 0.377650 -0.521342
O8    O     O_R   0.590550 0.518450 0.622350 -0.527675
C3    C     C_R   0.390927 0.493584 0.499774 0.890129
C4    C     C_R   0.609020 0.499921 0.498675 0.881847
Cu1   Cu    Cu3+1 0.509980 0.521810 0.644910 1.108160
Cu2   Cu    Cu3+1 0.490020 0.478190 0.355090 1.126406
C5    C     C_R   0.889605 0.566718 0.657332 0.626714
C6    C     C_R   0.113751 0.337126 0.447116 0.662641
N1    N     N_R   0.853599 0.470637 0.545094 -0.437146
N2    N     N_R   0.149945 0.444640 0.535103 -0.448034
C7    C     C_R   0.875646 0.348734 0.489800 0.680558
C8    C     C_R   0.130465 0.551573 0.639359 0.662320
C9    C     C_R   0.935677 0.337975 0.485735 -0.139056
C10   C     C_R   0.070778 0.559293 0.649006 -0.133587
C11   C     C_R   0.972978 0.451894 0.566504 -0.065917
C12   C     C_R   0.033047 0.447476 0.560750 -0.060922
C13   C     C_R   0.950148 0.568000 0.658886 -0.114344
C14   C     C_R   0.055440 0.330835 0.467415 -0.121401
C15   C     C_R   0.959227 0.217826 0.405658 0.278288
C16   C     C_R   0.047885 0.674972 0.742808 0.278472
C17   C     C_R   0.018804 0.213642 0.397696 0.123018
C18   C     C_R   0.988042 0.680063 0.747083 0.128069
O9    O     O_2   0.867569 0.651425 0.773367 -0.452854
O10   O     O_2   0.134177 0.239647 0.337786 -0.445914
O11   O     O_2   0.840622 0.239305 0.449700 -0.415248
O12   O     O_2   0.169094 0.650073 0.731436 -0.415709
C19   C     C_R   0.229138 0.537861 0.458261 0.274792
C20   C     C_R   0.754792 0.394454 0.383804 0.252813
C21   C     C_R   0.288665 0.553856 0.455752 0.203357
C22   C     C_R   0.694374 0.395883 0.384077 0.197300
C23   C     C_R   0.328299 0.475039 0.500426 -0.264854
C24   C     C_R   0.671753 0.499840 0.494386 -0.273946
C25   C     C_R   0.308092 0.379898 0.548933 0.069177
C26   C     C_R   0.708118 0.612960 0.582969 0.064018
C27   C     C_R   0.249152 0.370250 0.561321 0.181725
C28   C     C_R   0.767496 0.612669 0.573357 0.191810
C29   C     C_R   0.209650 0.448218 0.514571 0.076308
C30   C     C_R   0.792243 0.491444 0.503080 0.051494
C31   C     C_2   0.497986 0.110932 0.397035 0.005060
C32   C     C_2   0.508762 0.889812 0.596689 -0.016918
C33   C     C_2   0.518557 0.063400 0.498505 0.066033
C34   C     C_2   0.492644 0.937169 0.490854 0.071339
H1    H     H_    0.461279 0.420075 0.844541 0.169513
H2    H     H_    0.539725 0.578019 0.155661 0.161471
N3    N     N_2   0.475010 0.445410 0.137370 -0.072148
N4    N     N_2   0.524990 0.554590 0.862630 -0.076762
C35   C     C_2   0.504908 0.509295 0.081069 0.073034
C36   C     C_2   0.495560 0.490011 0.919043 0.060911
N5    N     N_R   0.922612 0.099980 0.326002 0.172641
O13   O     O_R   0.894237 0.079185 0.195173 -0.222620
O14   O     O_R   0.916743 0.014709 0.385381 -0.255380
N6    N     N_R   0.084703 0.791171 0.829312 0.173302
O15   O     O_R   0.097883 0.872429 0.770169 -0.240166
O16   O     O_R   0.104263 0.816845 0.967871 -0.235306
N7    N     N_R   0.574809 0.629722 0.949419 0.232371
O17   O     O_R   0.585744 0.744367 0.946455 -0.254802
O18   O     O_R   0.616548 0.574291 0.002537 -0.306055
N8    N     N_R   0.424207 0.373559 0.052223 0.237307
O19   O     O_R   0.410682 0.262286 0.060470 -0.259774
O20   O     O_R   0.383803 0.431336 0.998099 -0.309346
I1    I     I_    0.050683 0.022009 0.294896 0.084710
I2    I     I_    0.958517 0.868475 0.874787 0.054944
N9    N     N_R   0.188574 0.617488 0.411086 0.174490
O21   O     O_R   0.140118 0.563811 0.324300 -0.296416
O22   O     O_R   0.198389 0.744784 0.460928 -0.201229
N10   N     N_R   0.776912 0.307363 0.254817 0.188499
O23   O     O_R   0.817101 0.351048 0.203847 -0.290496
O24   O     O_R   0.757096 0.184862 0.187313 -0.178067
N11   N     N_R   0.309358 0.656439 0.417249 0.162995
O25   O     O_R   0.337143 0.760521 0.521214 -0.302580
O26   O     O_R   0.291745 0.656973 0.286680 -0.222208
N12   N     N_R   0.656011 0.295538 0.268991 0.177538
O27   O     O_R   0.625064 0.214765 0.300516 -0.317013
O28   O     O_R   0.648932 0.290833 0.134337 -0.247948
I3    I     I_    0.365518 0.244506 0.595216 -0.150019
I4    I     I_    0.673125 0.789677 0.717243 -0.026417
I5    I     I_    0.219253 0.245846 0.661217 0.001554
I6    I     I_    0.808884 0.791602 0.585545 -0.012088
I7    I     I_    0.415025 0.848136 0.333916 -0.047107
I8    I     I_    0.607515 0.125989 0.593978 -0.080658
I9    I     I_    0.536532 0.016880 0.822103 -0.024538
I10   I     I_    0.502227 0.994867 0.170302 -0.027766

loop_
_geom_bond_atom_site_label_1
_geom_bond_atom_site_label_2
_geom_bond_distance
_ccdc_geom_bond_type
N8    O20   1.302314 A    
C35   C36   1.518651 S    
N7    O18   1.302234 A    
C15   C17   1.405806 A    
N3    C35   1.307320 D    
C31   C33   1.333062 D    
N11   O25   1.300363 A    
O5    C3    1.297613 A    
C1    C31   1.458277 S    
C2    C32   1.469436 S    
O1    C1    1.302570 A    
C19   C21   1.407116 A    
C12   C14   1.417178 A    
N5    O14   1.301006 A    
N4    N7    1.391635 S    
C25   I3    2.138778 S    
N6    O16   1.300571 A    
H1    C36   1.080732 S    
O4    Cu1   1.935173 S    
C16   C18   1.405803 A    
C11   C12   1.413363 A    
C20   C30   1.424048 A    
H2    C35   1.083167 S    
C8    O12   1.348776 S    
C32   C34   1.347808 D    
N8    O19   1.299726 A    
C9    C15   1.415691 A    
C19   N9    1.438353 S    
C10   C16   1.417485 A    
Cu1   Cu2   2.691606 S    
C25   C27   1.408267 A    
C33   I8    2.146992 S    
O2    C2    1.298533 A    
C26   C28   1.404730 A    
C28   I6    2.146344 S    
C18   I2    2.149327 S    
C28   C30   1.415854 A    
C17   I1    2.148085 S    
N11   O26   1.301040 A    
C6    C14   1.411951 A    
N4    C36   1.306996 D    
N10   O23   1.301564 A    
C27   I5    2.141219 S    
C26   I4    2.134441 S    
N1    C30   1.476097 S    
C23   C25   1.415082 A    
C15   N5    1.431984 S    
N9    O22   1.301260 A    
C21   N11   1.427476 S    
N6    O15   1.301087 A    
C4    C24   1.472845 S    
O7    Cu2   1.927231 S    
O7    C3    1.304372 A    
O6    C4    1.297689 A    
C3    C23   1.478904 S    
N3    N8    1.392192 S    
C27   C29   1.407859 A    
O3    Cu2   1.935173 S    
O8    C4    1.301740 A    
C34   I7    2.160045 S    
O4    C2    1.301147 A    
C8    C10   1.412438 A    
C32   I9    2.130926 S    
C9    C11   1.412322 A    
C7    O11   1.346581 S    
C31   I10   2.133818 S    
C10   C12   1.414794 A    
O1    Cu1   1.926767 S    
N10   O24   1.301712 A    
C19   C29   1.410149 A    
N2    C29   1.442032 S    
Cu1   N4    2.021977 S    
C13   C18   1.418415 A    
C5    N1    1.372381 A    
C20   N10   1.440356 S    
O6    Cu2   1.933659 S    
C7    C9    1.413057 A    
N12   O27   1.299818 A    
O3    C1    1.291213 A    
O8    Cu1   1.927235 S    
C5    O9    1.344840 S    
C6    O10   1.346494 S    
C20   C22   1.412365 A    
N9    O21   1.301191 A    
C21   C23   1.407170 A    
C22   C24   1.412060 A    
N5    O13   1.300706 A    
C22   N12   1.433363 S    
C24   C26   1.407921 A    
N1    C7    1.372638 A    
N12   O28   1.301083 A    
N2    C8    1.365654 A    
C11   C13   1.414746 A    
O2    Cu2   1.926767 S    
C5    C13   1.412625 A    
N7    O17   1.298997 A    
O5    Cu1   1.933660 S    
Cu2   N3    2.021977 S    
C16   N6    1.431754 S    
C14   C17   1.419014 A    
C6    N2    1.365603 A    
C33   C34   1.485277 S    
