data_mof_unit_23296.cif
_audit_creation_date              2012-12-11T14:21:12-0500
_audit_creation_method            fapswitch 2.2
_symmetry_space_group_name_H-M    P1
_symmetry_Int_Tables_number       1
_space_group_crystal_system       triclinic
_cell_length_a                    11.451331
_cell_length_b                    11.663477
_cell_length_c                    19.484738
_cell_angle_alpha                 90.797029
_cell_angle_beta                  90.011519
_cell_angle_gamma                 59.267881
_cell_volume                      2236.66903006

loop_
_atom_site_label
_atom_site_type_symbol
_atom_type_description
_atom_site_fract_x
_atom_site_fract_y
_atom_site_fract_z
_atom_type_partial_charge
C1    C     C_R   0.613856 0.085621 0.606274 0.560767
C2    C     C_1   0.653367 0.683176 0.663955 0.010840
C3    C     C_1   0.127426 0.198209 0.859432 0.007052
C4    C     C_1   0.170815 0.171299 0.727595 -0.028321
C5    C     C_1   0.150433 0.182226 0.798910 -0.029263
C6    C     C_1   0.194279 0.162353 0.667142 0.010826
C7    C     C_1   0.666708 0.182181 0.864820 0.002856
C8    C     C_1   0.631061 0.137137 0.736977 -0.025870
C9    C     C_1   0.645679 0.161892 0.806603 -0.025438
C10   C     C_1   0.622915 0.114657 0.677164 0.004472
C11   C     C_R   0.695035 0.574593 0.207296 0.004966
C12   C     C_R   0.614695 0.743138 0.597896 0.560751
C13   C     C_R   0.608627 0.552106 0.252687 -0.015336
C14   C     C_R   0.621251 0.566613 0.324241 -0.000282
C15   C     C_R   0.759813 0.663093 0.301916 -0.159369
C16   C     C_R   0.773886 0.623929 0.234446 -0.141646
C17   C     C_R   0.505435 0.523596 0.233017 0.377213
C18   C     C_R   0.435138 0.496054 0.282385 -0.147960
C19   C     C_R   0.469869 0.485220 0.350863 -0.113242
C20   C     C_R   0.563552 0.519233 0.372114 0.395057
C21   C     C_R   0.679178 0.641161 0.346318 0.038289
C22   C     C_R   0.158620 0.202143 0.190138 -0.063896
C23   C     C_R   0.240671 0.145840 0.597946 0.533427
C24   C     C_R   0.142252 0.306704 0.234735 0.009713
C25   C     C_R   0.129454 0.294119 0.305352 -0.031587
C26   C     C_R   0.231468 0.054457 0.286510 0.333514
C27   C     C_R   0.212350 0.074731 0.216075 -0.143404
C28   C     C_R   0.140774 0.422087 0.211842 -0.080562
C29   C     C_R   0.104730 0.529663 0.256101 -0.156645
C30   C     C_R   0.070402 0.524436 0.323905 -0.129009
C31   C     C_R   0.076893 0.409595 0.347799 -0.064022
C32   C     C_R   0.185635 0.164372 0.332233 0.006318
C33   C     C_R   0.683317 0.181105 0.197692 0.004503
C34   C     C_R   0.618417 0.075369 0.394680 0.563122
C35   C     C_R   0.795113 0.087639 0.238154 0.025462
C36   C     C_R   0.771327 0.025121 0.292416 0.045407
C37   C     C_R   0.528362 0.183078 0.282334 -0.167053
C38   C     C_R   0.550910 0.220775 0.218246 -0.147889
C39   C     C_R   0.931641 0.050317 0.224683 -0.092078
C40   C     C_R   0.039195 0.931895 0.249246 -0.086615
C41   C     C_R   0.015042 0.859351 0.295929 -0.116139
C42   C     C_R   0.883369 0.904702 0.317550 -0.090793
C43   C     C_R   0.638516 0.090670 0.321596 -0.000034
C44   C     C_R   0.082071 0.230925 0.928802 0.539684
C45   C     C_R   0.623118 0.729755 0.405907 0.617900
C46   C     C_R   0.710127 0.545162 0.922349 0.553655
C47   C     C_R   0.706061 0.205661 0.930928 0.542559
C48   C     C_R   0.088447 0.235273 0.123751 0.527575
C49   C     C_R   0.709722 0.546510 0.133139 0.574187
C50   C     C_R   0.711759 0.213564 0.129436 0.535270
C51   C     C_R   0.242684 0.140894 0.401510 0.548984
C52   C     C_1   0.699871 0.579967 0.851463 0.002575
C53   C     C_1   0.674810 0.644316 0.722101 -0.024585
C54   C     C_1   0.690576 0.607937 0.791662 -0.027274
Cr1   Cr    Cr6+3 0.404720 0.198220 0.499960 1.039449
Cr2   Cr    Cr6+3 0.698290 0.897110 0.500380 1.019185
Cr3   Cr    Cr6+3 0.396970 0.904720 0.499610 1.105940
Cr4   Cr    Cr6+3 0.926180 0.151990 0.028120 1.025335
Cr5   Cr    Cr6+3 0.921330 0.451820 0.027470 1.027925
Cr6   Cr    Cr6+3 0.626260 0.446870 0.028710 1.095376
H1    H     H_    0.804881 0.719223 0.318003 0.118662
H2    H     H_    0.103241 0.616801 0.237029 0.127484
H3    H     H_    0.040314 0.608312 0.358480 0.099458
H4    H     H_    0.048686 0.408842 0.400766 0.142722
H5    H     H_    0.425368 0.227247 0.301696 0.138565
H6    H     H_    0.955706 0.111213 0.194368 0.155109
H7    H     H_    0.465347 0.285869 0.186450 0.154497
H8    H     H_    0.141686 0.893894 0.231852 0.176638
H9    H     H_    0.099174 0.769704 0.316902 0.128029
H10   H     H_    0.873993 0.842331 0.354216 0.135159
H11   H     H_    0.837955 0.644593 0.202373 0.160315
H12   H     H_    0.356015 0.477491 0.266739 0.140557
H13   H     H_    0.420301 0.455232 0.387776 0.160867
H14   H     H_    0.173768 0.428373 0.160796 0.158552
H15   H     H_    0.239637 0.991545 0.181268 0.147880
O1    O     O_R   0.267740 0.231960 0.575440 -0.513768
O2    O     O_R   0.685970 0.784660 0.430010 -0.553956
O3    O     O_R   0.502530 0.767000 0.423990 -0.413730
O4    O     O_R   0.288330 0.026350 0.429250 -0.427143
O5    O     O_3   0.499990 0.000020 0.499980 -0.314267
O6    O     O_R   0.821500 0.119340 0.952830 -0.494982
O7    O     O_R   0.037130 0.162530 0.957360 -0.488683
O8    O     O_R   0.056440 0.344740 0.951340 -0.509105
O9    O     O_R   0.797900 0.560360 0.957470 -0.478793
O10   O     O_R   0.596130 0.579390 0.952730 -0.489825
O11   O     O_R   0.639060 0.321160 0.958670 -0.509376
O12   O     O_R   0.527280 0.186640 0.570530 -0.463533
O13   O     O_R   0.821240 0.124200 0.104370 -0.525512
O14   O     O_R   0.036890 0.167040 0.097840 -0.517425
O15   O     O_R   0.056180 0.349610 0.102880 -0.526630
O16   O     O_R   0.797660 0.564870 0.097950 -0.505397
O17   O     O_R   0.595880 0.584250 0.104270 -0.404838
O18   O     O_R   0.638830 0.325670 0.099150 -0.452360
O19   O     O_3   0.824590 0.350230 0.028100 -0.310943
O20   O     O_R   0.728090 0.003450 0.576380 -0.485286
O21   O     O_R   0.682970 0.789190 0.570490 -0.518412
O22   O     O_R   0.499290 0.771880 0.575530 -0.478805
O23   O     O_R   0.285330 0.030870 0.569730 -0.499648
O24   O     O_R   0.270980 0.227080 0.423890 -0.552846
O25   O     O_R   0.530280 0.182120 0.430050 -0.473345
O26   O     O_R   0.731330 0.998570 0.424830 -0.511863
F1    F     F_    0.458369 0.532929 0.168713 -0.617470
F2    F     F_    0.595609 0.509170 0.439773 -0.617467
F3    F     F_    0.298068 0.927224 0.309410 -0.630929

loop_
_geom_bond_atom_site_label_1
_geom_bond_atom_site_label_2
_ccdc_geom_bond_type
C25   C31   A    
Cr2   O20   S    
C22   C48   S    
C26   C32   A    
C41   C42   A    
Cr3   O4    S    
C36   C42   A    
C35   C36   A    
C23   O1    A    
C44   O8    A    
C2    C12   S    
C20   F2    S    
C53   C54   S    
C26   C27   A    
C29   C30   A    
C14   C21   A    
C28   C29   A    
Cr5   O8    S    
Cr2   O26   S    
C44   O7    A    
Cr4   O7    S    
C30   C31   A    
Cr3   O23   S    
C15   C16   A    
C46   C52   S    
C42   H10   S    
Cr2   O21   S    
C18   C19   A    
C1    O12   A    
C26   F3    S    
C19   C20   A    
C8    C9    S    
C37   H5    S    
Cr1   O25   S    
C34   O25   A    
C45   O3    A    
Cr5   O19   S    
C50   O13   A    
C46   O10   A    
Cr6   O18   S    
C25   C32   A    
C28   H14   S    
C48   O15   A    
C30   H3    S    
C18   H12   S    
Cr3   O5    S    
C16   H11   S    
C49   O16   A    
C27   H15   S    
Cr3   O3    S    
C52   C54   T    
C21   C45   S    
Cr6   O17   S    
C51   O24   A    
C3    C44   S    
C34   O26   A    
C34   C43   S    
C47   O11   A    
C14   C20   A    
C19   H13   S    
C24   C25   A    
C4    C6    T    
Cr4   O6    S    
C39   C40   A    
Cr6   O11   S    
C33   C50   S    
Cr2   O2    S    
Cr5   O15   S    
C7    C47   S    
C37   C43   A    
C35   C39   A    
C17   F1    S    
C32   C51   S    
C37   C38   A    
C11   C49   S    
C11   C16   A    
C1    O20   A    
Cr3   O22   S    
C17   C18   A    
C15   H1    S    
Cr5   O16   S    
Cr5   O9    S    
C12   O22   A    
C46   O9    A    
Cr1   O1    S    
C40   C41   A    
C22   C27   A    
C39   H6    S    
C22   C24   A    
C49   O17   A    
C41   H9    S    
C7    C9    T    
C29   H2    S    
C31   H4    S    
C1    C10   S    
C24   C28   A    
C4    C5    S    
C3    C5    T    
C2    C53   T    
Cr4   O13   S    
Cr6   O10   S    
C50   O18   A    
C33   C38   A    
Cr2   O5    S    
C13   C17   A    
C48   O14   A    
Cr4   O19   S    
Cr1   O5    S    
C11   C13   A    
C6    C23   S    
C33   C35   A    
C47   O6    A    
Cr1   O12   S    
Cr4   O14   S    
C51   O4    A    
C15   C21   A    
C23   O23   A    
C38   H7    S    
C8    C10   T    
C40   H8    S    
Cr1   O24   S    
C12   O21   A    
C36   C43   A    
C45   O2    A    
C13   C14   A    
Cr6   O19   S    
