data_mof_unit_28416.cif
_audit_creation_date              2012-12-10T17:31:05-0500
_audit_creation_method            fapswitch 2.2
_symmetry_space_group_name_H-M    P1
_symmetry_Int_Tables_number       1
_space_group_crystal_system       triclinic
_cell_length_a                    12.203415
_cell_length_b                    12.879443
_cell_length_c                    15.574327
_cell_angle_alpha                 83.598671
_cell_angle_beta                  116.109993
_cell_angle_gamma                 93.946178
_cell_volume                      2183.82448861

loop_
_atom_site_label
_atom_site_type_symbol
_atom_type_description
_atom_site_fract_x
_atom_site_fract_y
_atom_site_fract_z
_atom_type_partial_charge
C1    C     C_R   0.475862 0.300232 0.496106 0.959092
C2    C     C_R   0.616249 0.972156 0.457108 -0.029727
C3    C     C_R   0.382590 0.135500 0.528270 -0.302283
C4    C     C_R   0.618583 0.864506 0.473380 -0.300123
C5    C     C_R   0.529356 0.135829 0.462363 0.606407
C6    C     C_R   0.470439 0.864071 0.537864 0.607287
C7    C     C_R   0.536119 0.027397 0.478714 -0.113059
C8    C     C_R   0.463752 0.972516 0.521515 -0.111760
C9    C     C_R   0.014038 0.618051 0.425001 -0.159366
C10   C     C_R   0.986035 0.381903 0.575814 -0.161607
C11   C     C_R   0.129987 0.602764 0.427788 0.026403
C12   C     C_R   0.524279 0.699736 0.504189 0.958894
C13   C     C_R   0.870425 0.398092 0.573454 -0.005669
C14   C     C_R   0.161073 0.455477 0.541296 0.081581
C15   C     C_R   0.838783 0.543528 0.458201 0.076121
C16   C     C_R   0.577955 0.499497 0.680124 0.946407
C17   C     C_R   0.422228 0.501437 0.319662 0.928644
C18   C     C_R   0.037489 0.458652 0.529905 -0.032790
C19   C     C_R   0.962829 0.540988 0.470706 -0.028939
C20   C     C_R   0.629898 0.504164 0.784951 -0.205123
C21   C     C_R   0.372252 0.501261 0.214324 -0.231319
C22   C     C_R   0.785797 0.465311 0.947500 0.647309
C23   C     C_R   0.628566 0.436524 0.107567 -0.188774
C24   C     C_R   0.225428 0.555197 0.052013 0.646044
C25   C     C_R   0.754303 0.488865 0.849271 -0.179439
C26   C     C_R   0.250917 0.525968 0.148432 -0.193431
C27   C     C_R   0.548104 0.520511 0.821672 -0.218500
C28   C     C_R   0.455254 0.482868 0.179211 -0.197756
C29   C     C_R   0.580586 0.507179 0.919778 0.022091
C30   C     C_R   0.430611 0.506863 0.083017 0.037883
C31   C     C_R   0.696580 0.465882 0.982301 -0.074875
C32   C     C_R   0.317734 0.554308 0.020377 -0.046925
C33   C     C_R   0.495915 0.527318 0.954998 0.120082
C34   C     C_R   0.390870 0.586672 0.898404 -0.254468
C35   C     C_R   0.518868 0.490293 0.049704 0.108935
C36   C     C_2   0.828958 0.368198 0.143296 1.033226
C37   C     C_2   0.198817 0.669021 0.865441 1.084594
C38   C     C_2   0.820475 0.316468 0.621919 1.037018
C39   C     C_2   0.180433 0.686052 0.381059 1.022584
C40   C     C_2   0.952987 0.719539 0.381271 0.966907
C41   C     C_2   0.045264 0.279322 0.617575 0.982658
C42   C     C_2   0.148293 0.517419 0.175647 1.157980
C43   C     C_2   0.853247 0.502797 0.817841 1.136236
C44   C     C_2   0.302130 0.978100 0.584045 1.070661
C45   C     C_R   0.718878 0.427714 0.076885 -0.062826
C46   C     C_2   0.697949 0.021446 0.416164 1.088474
C47   C     C_2   0.747191 0.594909 0.367502 0.952578
C48   C     C_2   0.252172 0.399906 0.629624 0.926401
C49   C     C_R   0.301041 0.598803 0.928502 -0.138725
C50   C     C_R   0.540753 0.811080 0.507554 -0.180069
C51   C     C_R   0.459601 0.188854 0.493200 -0.183432
C52   C     C_R   0.384123 0.027766 0.543615 -0.024506
F1    F     F_    0.904645 0.448525 0.008891 -0.607107
F2    F     F_    0.108891 0.578466 0.988581 -0.590442
F3    F     F_    0.408397 0.808201 0.582399 -0.628013
F4    F     F_    0.591312 0.191738 0.417802 -0.626349
H1    H     H_    0.542866 0.455316 0.230553 0.211862
H2    H     H_    0.226660 0.838697 0.369387 0.348623
H3    H     H_    0.884757 0.823253 0.264441 0.368611
H4    H     H_    0.113493 0.151110 0.596966 0.367154
H5    H     H_    0.992380 0.578268 0.161270 0.365642
H6    H     H_    0.920657 0.585851 0.733504 0.368529
H7    H     H_    0.129220 0.940474 0.562065 0.380365
H8    H     H_    0.871008 0.054265 0.435979 0.376453
H9    H     H_    0.618914 0.704040 0.300654 0.339568
H10   H     H_    0.322949 0.375970 0.774077 0.362203
H11   H     H_    0.455451 0.537725 0.771654 0.207305
H12   H     H_    0.646046 0.396663 0.176709 0.183902
H13   H     H_    0.379875 0.629764 0.831612 0.178064
H14   H     H_    0.677525 0.822298 0.454866 0.249870
H15   H     H_    0.324858 0.177805 0.548022 0.241255
H16   H     H_    0.943690 0.252772 0.163147 0.376581
H17   H     H_    0.162288 0.598680 0.745432 0.329158
H18   H     H_    0.770003 0.165030 0.633901 0.350593
N1    N     N_R   0.799120 0.480200 0.517090 -0.173872
N2    N     N_R   0.200880 0.519800 0.482910 -0.164330
O1    O     O_R   0.580150 0.341050 0.504560 -0.583794
O2    O     O_R   0.868619 0.288085 0.110809 -0.715679
O3    O     O_2   0.171222 0.738237 0.899397 -0.479843
O4    O     O_R   0.137569 0.661247 0.766415 -0.759300
O5    O     O_2   0.799956 0.336361 0.688025 -0.609278
O6    O     O_R   0.801891 0.214624 0.594342 -0.740247
O7    O     O_2   0.207322 0.667094 0.317956 -0.615462
O8    O     O_R   0.193596 0.788090 0.407488 -0.742381
O9    O     O_2   0.927238 0.773572 0.429322 -0.570665
O10   O     O_R   0.926030 0.753149 0.285718 -0.755035
O11   O     O_2   0.069042 0.247908 0.700812 -0.555330
O12   O     O_R   0.419850 0.658950 0.495440 -0.586513
O13   O     O_R   0.073225 0.218964 0.560886 -0.757323
O14   O     O_2   0.139904 0.442284 0.227994 -0.587237
O15   O     O_R   0.057976 0.592987 0.137944 -0.668082
O16   O     O_2   0.939036 0.443254 0.851929 -0.495928
O17   O     O_R   0.850882 0.586793 0.751958 -0.755851
O18   O     O_2   0.344199 0.942760 0.668193 -0.542444
O19   O     O_R   0.176230 0.975557 0.526515 -0.750550
O20   O     O_2   0.655210 0.059554 0.332812 -0.553914
O21   O     O_R   0.824271 0.019464 0.471860 -0.732006
O22   O     O_2   0.738382 0.569973 0.291198 -0.635842
O23   O     O_R   0.388090 0.353760 0.493600 -0.576174
O24   O     O_R   0.676355 0.674929 0.367764 -0.779004
O25   O     O_2   0.314210 0.332262 0.625488 -0.602636
O26   O     O_R   0.261337 0.421299 0.718650 -0.841313
O27   O     O_R   0.611910 0.646240 0.506400 -0.571464
O28   O     O_R   0.650890 0.490020 0.640860 -0.584567
O29   O     O_R   0.349110 0.509980 0.359140 -0.573984
O30   O     O_R   0.458830 0.502730 0.629890 -0.617163
O31   O     O_R   0.541170 0.497270 0.370110 -0.617525
O32   O     O_2   0.881747 0.386288 0.227614 -0.578572
Zn1   Zn    Zn3+2 0.628240 0.491510 0.507320 1.048752
Zn2   Zn    Zn3+2 0.371760 0.508490 0.492680 1.063724

loop_
_geom_bond_atom_site_label_1
_geom_bond_atom_site_label_2
_ccdc_geom_bond_type
C40   O9    D    
C41   O13   S    
O29   Zn2   S    
C23   C45   A    
C29   C33   A    
C27   C29   A    
C1    O1    A    
C14   C18   A    
C5    F4    S    
C2    C4    A    
C2    C7    A    
C15   C47   S    
C6    F3    S    
C21   C26   A    
C1    O23   A    
C4    H14   S    
C7    C8    A    
C28   H1    S    
C2    C46   S    
C15   C19   A    
C37   O3    D    
C47   O22   D    
C30   C35   A    
C24   C26   A    
C39   O8    S    
C18   C19   A    
C17   O29   A    
C11   N2    A    
C17   O31   A    
O28   Zn1   S    
C36   O32   D    
C20   C25   A    
C24   F2    S    
H7    O19   S    
C37   C49   S    
C42   O15   S    
C40   O10   S    
H10   O26   S    
H16   O2    S    
C43   O17   S    
C9    C19   A    
C13   N1    A    
C22   C25   A    
C8    C52   A    
C16   O30   A    
O12   Zn2   S    
C44   C52   S    
C38   O6    S    
C10   C41   S    
O31   Zn1   S    
C25   C43   S    
H18   O6    S    
C16   O28   A    
C22   F1    S    
C41   O11   D    
C37   O4    S    
N1    Zn1   S    
C22   C31   A    
C12   O12   A    
C27   H11   S    
C12   O27   A    
C5    C7    A    
C3    C51   A    
C6    C8    A    
H4    O13   S    
O23   Zn2   S    
C9    C40   S    
C17   C21   S    
C47   O24   S    
C4    C50   A    
C42   O14   D    
C14   N2    A    
C23   H12   S    
C3    H15   S    
C24   C32   A    
H2    O8    S    
C1    C51   S    
C16   C20   S    
C48   O26   S    
C33   C34   A    
C36   C45   S    
C6    C50   A    
C11   C39   S    
C9    C11   A    
C34   H13   S    
C13   C38   S    
H8    O21   S    
C21   C28   A    
C23   C35   A    
C38   O5    D    
C26   C42   S    
C15   N1    A    
O30   Zn2   S    
O1    Zn1   S    
C34   C49   A    
C46   O21   S    
H9    O24   S    
C10   C13   A    
C12   C50   S    
C3    C52   A    
C20   C27   A    
C43   O16   D    
O27   Zn1   S    
C28   C30   A    
H3    O10   S    
C39   O7    D    
C29   C31   A    
C44   O19   S    
C36   O2    S    
C30   C32   A    
C10   C18   A    
C48   O25   D    
C33   C35   A    
H17   O4    S    
C32   C49   A    
C44   O18   D    
C46   O20   D    
N2    Zn2   S    
C31   C45   A    
H6    O17   S    
C14   C48   S    
C5    C51   A    
H5    O15   S    
