data_mof_unit_37943.cif
_audit_creation_date              2012-12-11T14:45:24-0500
_audit_creation_method            fapswitch 2.2
_symmetry_space_group_name_H-M    P1
_symmetry_Int_Tables_number       1
_space_group_crystal_system       triclinic
_cell_length_a                    24.824993
_cell_length_b                    7.185833
_cell_length_c                    14.435402
_cell_angle_alpha                 89.998582
_cell_angle_beta                  102.577296
_cell_angle_gamma                 90.000608
_cell_volume                      2513.31166037

loop_
_atom_site_label
_atom_site_type_symbol
_atom_type_description
_atom_site_fract_x
_atom_site_fract_y
_atom_site_fract_z
_atom_type_partial_charge
O1    O     O_R   0.319150 0.364170 0.330530 -0.535404
O2    O     O_R   0.680850 0.635830 0.669470 -0.535404
O3    O     O_R   0.180850 0.864170 0.169470 -0.535402
O4    O     O_R   0.819150 0.135830 0.830530 -0.535402
O5    O     O_R   0.210330 0.696850 0.354180 -0.536025
O6    O     O_R   0.789670 0.303150 0.645820 -0.536025
O7    O     O_R   0.289670 0.196850 0.145820 -0.536021
O8    O     O_R   0.710330 0.803150 0.854180 -0.536021
C1    C     C_R   0.197628 0.524587 0.378812 0.688442
C2    C     C_R   0.802372 0.475413 0.621188 0.688441
C3    C     C_R   0.302371 0.024590 0.121186 0.688434
C4    C     C_R   0.697629 0.975411 0.878814 0.688434
O9    O     O_R   0.320550 0.694110 0.341970 -0.538657
O10   O     O_R   0.679450 0.305890 0.658030 -0.538657
O11   O     O_R   0.179450 0.194110 0.158030 -0.538653
O12   O     O_R   0.820550 0.805890 0.841970 -0.538652
O13   O     O_R   0.291860 0.861000 0.157170 -0.533204
O14   O     O_R   0.708140 0.139000 0.842830 -0.533204
O15   O     O_R   0.208140 0.361000 0.342830 -0.533202
O16   O     O_R   0.791860 0.639000 0.657170 -0.533203
C5    C     C_R   0.341758 0.525968 0.361545 0.698931
C6    C     C_R   0.658241 0.474031 0.638455 0.698931
C7    C     C_R   0.158242 0.025969 0.138453 0.698924
C8    C     C_R   0.841758 0.974031 0.861547 0.698924
O17   O     O_3   0.240460 0.529330 0.189380 -0.375399
O18   O     O_3   0.759540 0.470670 0.810620 -0.375399
O19   O     O_3   0.259540 0.029330 0.310620 -0.375402
O20   O     O_3   0.740460 0.970670 0.689380 -0.375401
V1    V     V_3+5 0.251770 0.805510 0.261240 1.509671
V2    V     V_3+5 0.748230 0.194490 0.738760 1.509673
V3    V     V_3+5 0.248230 0.305510 0.238760 1.509688
V4    V     V_3+5 0.751770 0.694490 0.761240 1.509689
C9    C     C_R   0.102790 0.019946 0.075614 -0.081938
C10   C     C_R   0.897210 0.980054 0.924386 -0.081938
C11   C     C_R   0.397210 0.519949 0.424386 -0.081938
C12   C     C_R   0.602790 0.480051 0.575614 -0.081937
C13   C     C_R   0.954590 0.933827 0.081637 -0.131200
C14   C     C_R   0.045410 0.066174 0.918363 -0.131200
C15   C     C_R   0.545406 0.433695 0.418378 -0.131202
C16   C     C_R   0.454594 0.566305 0.581622 -0.131202
C17   C     C_R   0.902901 0.933921 0.020041 -0.137749
C18   C     C_R   0.097099 0.066080 0.979959 -0.137748
C19   C     C_R   0.597096 0.433819 0.479972 -0.137723
C20   C     C_R   0.402904 0.566182 0.520028 -0.137723
C21   C     C_R   0.944549 0.021280 0.888883 -0.077610
C22   C     C_R   0.055451 0.978719 0.111117 -0.077610
C23   C     C_R   0.555453 0.521342 0.611110 -0.077619
C24   C     C_R   0.444547 0.478657 0.388890 -0.077619
C25   C     C_R   0.997452 0.021990 0.951176 0.098419
C26   C     C_R   0.002548 0.978010 0.048824 0.098419
C27   C     C_R   0.502549 0.522039 0.548818 0.098421
C28   C     C_R   0.497451 0.477960 0.451182 0.098421
H1    H     H_    0.133017 0.103232 0.952821 0.135959
H2    H     H_    0.866983 0.896770 0.047179 0.135958
H3    H     H_    0.366988 0.603395 0.547157 0.135940
H4    H     H_    0.633012 0.396606 0.452843 0.135939
H5    H     H_    0.956618 0.897309 0.155082 0.148799
H6    H     H_    0.043382 0.102692 0.844918 0.148799
H7    H     H_    0.543376 0.397083 0.344944 0.148787
H8    H     H_    0.456624 0.602917 0.655055 0.148787
C29   C     C_R   0.666451 0.990324 0.954136 -0.093050
C30   C     C_R   0.333549 0.009676 0.045864 -0.093050
C31   C     C_R   0.833550 0.490330 0.545866 -0.093049
C32   C     C_R   0.166450 0.509670 0.454134 -0.093050
C33   C     C_R   0.658843 0.079034 0.113666 -0.034472
C34   C     C_R   0.341157 0.920970 0.886333 -0.034471
C35   C     C_R   0.841157 0.579053 0.386336 -0.034464
C36   C     C_R   0.158843 0.420950 0.613664 -0.034464
C37   C     C_R   0.690913 0.059756 0.044480 -0.111127
C38   C     C_R   0.309087 0.940246 0.955520 -0.111128
C39   C     C_R   0.809087 0.559768 0.455523 -0.111125
C40   C     C_R   0.190913 0.440235 0.544478 -0.111126
C41   C     C_R   0.609722 0.959542 0.929926 -0.167848
C42   C     C_R   0.390277 0.040457 0.070074 -0.167848
C43   C     C_R   0.890277 0.459523 0.570072 -0.167857
C44   C     C_R   0.109723 0.540476 0.429928 -0.167856
C45   C     C_R   0.575158 0.004562 0.992297 0.073868
C46   C     C_R   0.424842 0.995438 0.007703 0.073869
C47   C     C_R   0.924842 0.504557 0.507702 0.073875
C48   C     C_R   0.075158 0.495443 0.492297 0.073876
C49   C     C_R   0.601031 0.044111 0.087885 0.053811
C50   C     C_R   0.398969 0.955890 0.912114 0.053810
C51   C     C_R   0.898969 0.544132 0.412116 0.053809
C52   C     C_R   0.101031 0.455869 0.587884 0.053808
C53   C     C_R   0.515927 0.000737 0.964044 0.025188
C54   C     C_R   0.484073 0.999262 0.035956 0.025188
C55   C     C_R   0.984073 0.500724 0.535956 0.025188
C56   C     C_R   0.015927 0.499275 0.464044 0.025188
C57   C     C_R   0.513099 0.996360 0.132925 -0.048342
C58   C     C_R   0.486901 0.003639 0.867075 -0.048341
C59   C     C_R   0.986901 0.496404 0.367075 -0.048342
C60   C     C_R   0.013098 0.503596 0.632925 -0.048342
C61   C     C_R   0.569478 0.032496 0.156948 -0.166613
C62   C     C_R   0.430522 0.967504 0.843052 -0.166615
C63   C     C_R   0.930522 0.532542 0.343053 -0.166626
C64   C     C_R   0.069478 0.467458 0.656947 -0.166627
H9    H     H_    0.589435 0.036195 0.231585 0.148945
H10   H     H_    0.410565 0.963806 0.768415 0.148946
H11   H     H_    0.910565 0.536266 0.268416 0.148951
H12   H     H_    0.089434 0.463736 0.731584 0.148950
H13   H     H_    0.406336 0.101649 0.138422 0.147000
H14   H     H_    0.593665 0.898348 0.861579 0.147000
H15   H     H_    0.093666 0.601701 0.361586 0.146991
H16   H     H_    0.906333 0.398296 0.638414 0.146991
C65   C     C_1   0.061191 0.950100 0.212199 0.305406
N1    N     N_1   0.065633 0.929763 0.293007 -0.356713
C66   C     C_1   0.938809 0.049898 0.787801 0.305406
N2    N     N_1   0.934367 0.070235 0.706993 -0.356713
C67   C     C_1   0.438807 0.450000 0.287812 0.305424
N3    N     N_1   0.434366 0.429640 0.207006 -0.356727
C68   C     C_1   0.561192 0.549999 0.712188 0.305424
N4    N     N_1   0.565634 0.570358 0.792994 -0.356727
C69   C     C_1   0.251680 0.883181 0.935186 0.344695
N5    N     N_1   0.206011 0.836099 0.918998 -0.340642
C70   C     C_1   0.748319 0.116824 0.064813 0.344696
N6    N     N_1   0.793989 0.163907 0.081001 -0.340643
C71   C     C_1   0.248321 0.383189 0.564813 0.344700
N7    N     N_1   0.293992 0.336129 0.581001 -0.340640
C72   C     C_1   0.751679 0.616815 0.435188 0.344699
N8    N     N_1   0.706008 0.663877 0.419000 -0.340642
C73   C     C_2   0.685505 0.142359 0.211171 0.806513
O21   O     O_2   0.728564 0.070575 0.253378 -0.531480
O22   O     O_R   0.661495 0.285253 0.254108 -0.652669
H17   H     H_    0.683265 0.314609 0.320380 0.306584
C74   C     C_2   0.314494 0.857651 0.788828 0.806515
O23   O     O_2   0.271437 0.929442 0.746622 -0.531480
O24   O     O_R   0.338503 0.714757 0.745889 -0.652668
H18   H     H_    0.316732 0.685405 0.679616 0.306582
C75   C     C_2   0.814493 0.642376 0.288830 0.806510
O25   O     O_2   0.771438 0.570572 0.246623 -0.531481
O26   O     O_R   0.838498 0.785288 0.245893 -0.652666
H19   H     H_    0.816727 0.814640 0.179620 0.306581
C76   C     C_2   0.185507 0.357632 0.711170 0.806512
O27   O     O_2   0.228561 0.429442 0.753378 -0.531480
O28   O     O_R   0.161503 0.214719 0.754109 -0.652665
H20   H     H_    0.183274 0.185373 0.820383 0.306580
C77   C     C_1   0.489055 0.935983 0.210623 0.312418
N9    N     N_1   0.470249 0.888074 0.273333 -0.354505
C78   C     C_1   0.510945 0.064015 0.789377 0.312417
N10   N     N_1   0.529751 0.111923 0.726667 -0.354505
C79   C     C_1   0.010944 0.436063 0.289371 0.312416
N11   N     N_1   0.029750 0.388184 0.226657 -0.354501
C80   C     C_1   0.989055 0.563936 0.710628 0.312416
N12   N     N_1   0.970250 0.611814 0.773343 -0.354501

loop_
_geom_bond_atom_site_label_1
_geom_bond_atom_site_label_2
_ccdc_geom_bond_type
O17   V3    S    
C55   C56   A    
O1    C5    A    
C16   H8    S    
O19   V1    S    
C1    C32   S    
O13   V1    S    
O3    C7    A    
C68   N4    T    
C60   C64   A    
C48   C52   A    
C3    C30   S    
O15   V3    S    
C47   C55   A    
C58   C78   S    
O22   H17   S    
C14   C25   A    
C34   C38   A    
C53   C54   A    
O7    C3    A    
C50   C62   A    
C9    C18   A    
O9    V1    S    
C36   C76   S    
C14   C18   A    
C18   H1    S    
O4    C8    A    
C63   H11   S    
C62   H10   S    
C80   N12   T    
C22   C65   S    
O1    V3    S    
C30   C38   A    
C12   C23   A    
O2    V4    S    
C52   C64   A    
O3    V1    S    
C60   C80   S    
C14   H6    S    
C1    O15   A    
C3    O13   A    
C2    C31   S    
C2    O16   A    
C7    C9    S    
C40   C71   S    
O2    C6    A    
C66   N2    T    
O14   V2    S    
C45   C49   A    
C16   C20   A    
C36   C40   A    
C46   C54   A    
C44   H15   S    
O11   C7    A    
C15   C28   A    
C77   N9    T    
C45   C53   A    
O12   C8    A    
C55   C60   A    
C13   C17   A    
C9    C22   A    
C35   C75   S    
C10   C17   A    
O10   V2    S    
C11   C24   A    
C58   C62   A    
O5    V1    S    
C38   C69   S    
C78   N10   T    
O7    V3    S    
C27   C28   A    
C36   C52   A    
O28   H20   S    
C67   N3    T    
O18   V4    S    
C15   C19   A    
C29   C41   A    
C8    C10   S    
O8    V4    S    
C23   C68   S    
O5    C1    A    
C34   C50   A    
C76   O27   D    
C49   C61   A    
C46   C50   A    
C33   C49   A    
C56   C59   A    
C21   C25   A    
O8    C4    A    
C15   H7    S    
C32   C44   A    
O9    C5    A    
C10   C21   A    
C51   C63   A    
C72   N8    T    
C11   C20   A    
C73   O21   D    
C42   H13   S    
C41   H14   S    
O6    V2    S    
C31   C39   A    
C33   C73   S    
C74   O23   D    
O26   H19   S    
C61   H9    S    
C35   C51   A    
C74   O24   S    
C69   N5    T    
O16   V4    S    
C29   C37   A    
C37   C70   S    
C44   C48   A    
C54   C57   A    
O6    C2    A    
C23   C27   A    
C53   C58   A    
O11   V3    S    
O24   H18   S    
C5    C11   S    
O12   V4    S    
C16   C27   A    
C6    C12   S    
C65   N1    T    
C22   C26   A    
C57   C77   S    
C34   C74   S    
C39   C72   S    
O10   C6    A    
O20   V2    S    
C75   O25   D    
C48   C56   A    
C71   N7    T    
C47   C51   A    
C4    C29   S    
C20   H3    S    
C43   H16   S    
C31   C43   A    
C33   C37   A    
C64   H12   S    
C13   C26   A    
C24   C67   S    
C35   C39   A    
C32   C40   A    
C57   C61   A    
O4    V2    S    
C17   H2    S    
C73   O22   S    
C59   C63   A    
C21   C66   S    
C19   H4    S    
C24   C28   A    
C25   C26   A    
C42   C46   A    
C4    O14   A    
C76   O28   S    
C41   C45   A    
C30   C42   A    
C12   C19   A    
C59   C79   S    
C79   N11   T    
C43   C47   A    
C13   H5    S    
C70   N6    T    
C75   O26   S    
