data_mof_unit_15470.cif
_audit_creation_date              2012-12-11T15:55:35-0500
_audit_creation_method            fapswitch 2.2
_symmetry_space_group_name_H-M    P1
_symmetry_Int_Tables_number       1
_space_group_crystal_system       triclinic
_cell_length_a                    8.478591
_cell_length_b                    18.940748
_cell_length_c                    18.980836
_cell_angle_alpha                 100.038827
_cell_angle_beta                  94.086295
_cell_angle_gamma                 92.181342
_cell_volume                      2989.89353063

loop_
_atom_site_label
_atom_site_type_symbol
_atom_type_description
_atom_site_fract_x
_atom_site_fract_y
_atom_site_fract_z
_atom_type_partial_charge
Ba1   Ba    Ba6+2 0.152460 0.535140 0.468980 1.813038
Ba2   Ba    Ba6+2 0.657710 0.464850 0.530960 1.793690
C1    C     C_3   0.279922 0.732514 0.221853 0.307571
C2    C     C_R   0.102521 0.901494 0.552414 -0.083880
C3    C     C_R   0.227085 0.045659 0.541404 -0.069394
C4    C     C_3   0.855194 0.718989 0.278358 0.229735
C5    C     C_R   0.068771 0.021710 0.519101 0.017514
C6    C     C_R   0.279081 0.116606 0.544440 -0.080162
C7    C     C_R   0.176297 0.167686 0.525612 -0.047834
C8    C     C_R   0.021910 0.144233 0.495362 0.010228
C9    C     C_R   0.967347 0.070833 0.492462 0.024685
C10   C     C_R   0.224500 0.241279 0.535427 -0.033273
C11   C     C_R   0.120504 0.290583 0.513429 -0.289032
C12   C     C_3   0.337555 0.701748 0.287843 0.302009
C13   C     C_R   0.974358 0.268122 0.475284 0.018211
C14   C     C_R   0.923528 0.193621 0.466964 -0.052890
C15   C     C_R   0.853900 0.926986 0.493882 0.026388
C16   C     C_3   0.805151 0.753084 0.212648 0.153459
C17   C     C_R   0.797100 0.854373 0.494520 0.008830
C18   C     C_R   0.895167 0.805334 0.523923 0.000545
C19   C     C_R   0.045585 0.831967 0.553896 -0.005798
C20   C     C_R   0.778472 0.166228 0.430763 -0.032356
C21   C     C_R   0.722419 0.095717 0.430062 -0.064498
C22   C     C_R   0.811882 0.047300 0.463342 0.017724
C23   C     C_3   0.548405 0.686181 0.692402 0.276336
C24   C     C_R   0.753079 0.975920 0.466357 0.034166
C25   C     C_R   0.594088 0.952431 0.445416 -0.034097
C26   C     C_R   0.641174 0.831341 0.466844 -0.040718
C27   C     C_R   0.539739 0.882254 0.445976 -0.015026
C28   C     C_3   0.726050 0.337355 0.302226 0.330459
C29   C     C_R   0.590971 0.758208 0.461002 0.002402
C30   C     C_R   0.692416 0.709481 0.485579 -0.230294
C31   C     C_R   0.839794 0.731710 0.521605 0.008063
C32   C     C_R   0.603418 0.526601 0.299365 -0.299020
C33   C     C_R   0.462372 0.487672 0.273968 0.022058
C34   C     C_3   0.591092 0.751624 0.751171 -0.400947
C35   C     C_R   0.418501 0.471728 0.199854 -0.074583
C36   C     C_R   0.519430 0.492746 0.150150 0.042024
C37   C     C_R   0.665295 0.529532 0.177421 -0.080272
C38   C     C_R   0.706275 0.545933 0.251471 -0.007923
C39   C     C_R   0.529809 0.521900 0.025891 0.012388
C40   C     C_3   0.622854 0.268952 0.274566 -0.400366
C41   C     C_R   0.480738 0.510782 0.953008 -0.049238
C42   C     C_R   0.379518 0.451514 0.920598 0.060617
C43   C     C_R   0.329167 0.403555 0.964458 -0.064684
C44   C     C_R   0.375775 0.415795 0.038464 -0.064923
C45   C     C_3   0.897672 0.258790 0.661714 0.357770
C46   C     C_R   0.475034 0.476057 0.070644 0.083863
C47   C     C_R   0.165971 0.415069 0.816883 -0.167578
C48   C     C_R   0.097719 0.429007 0.751228 -0.024705
C49   C     C_R   0.344940 0.490310 0.731109 -0.012377
C50   C     C_R   0.413265 0.475543 0.795727 -0.172600
C51   C     C_R   0.320536 0.444514 0.842981 0.007355
C52   C     C_3   0.026424 0.745847 0.697747 0.255802
C53   C     C_R   0.181267 0.476122 0.716719 0.166627
C54   C     C_3   0.930298 0.813245 0.699622 -0.528559
C55   C     C_3   0.281909 0.320619 0.368638 0.308426
C56   C     C_3   0.865542 0.182028 0.672981 -0.332219
C57   C     C_3   0.222358 0.243360 0.338937 -0.382892
C58   C     C_2   0.066401 0.737842 0.774519 0.662413
C59   C     C_2   0.457880 0.709273 0.630405 0.389355
C60   C     C_2   0.315779 0.192053 0.710848 0.474395
C61   C     C_2   0.948490 0.771333 0.336060 0.519791
C62   C     C_2   0.771779 0.368686 0.238571 0.516684
C63   C     C_3   0.399037 0.261638 0.703993 0.405048
C64   C     C_3   0.493660 0.291571 0.775028 -0.270085
C65   C     C_R   0.010713 0.950180 0.521167 0.013830
H1    H     H_    0.265389 0.652035 0.289867 0.092622
H2    H     H_    0.382579 0.320485 0.409347 0.047127
H3    H     H_    0.161048 0.753033 0.228782 0.021334
H4    H     H_    0.109444 0.242729 0.305441 0.159484
H5    H     H_    0.203284 0.213558 0.383050 0.059132
H6    H     H_    0.309299 0.214665 0.305119 0.124067
H7    H     H_    0.464098 0.689237 0.284412 -0.035517
H8    H     H_    0.659213 0.662552 0.674510 0.077519
H9    H     H_    0.691485 0.740135 0.787521 0.116847
H10   H     H_    0.621066 0.799820 0.728193 0.054248
H11   H     H_    0.489612 0.765045 0.783830 0.208927
H12   H     H_    0.572950 0.249322 0.320174 0.105782
H13   H     H_    0.358210 0.778883 0.216306 0.136110
H14   H     H_    0.834949 0.265117 0.609931 0.073368
H15   H     H_    0.027226 0.268360 0.659645 -0.103882
H16   H     H_    0.736709 0.167606 0.665689 0.169073
H17   H     H_    0.926167 0.144161 0.633872 0.063114
H18   H     H_    0.909897 0.176235 0.728038 0.123684
H19   H     H_    0.309687 0.301323 0.694520 -0.194260
H20   H     H_    0.585919 0.254356 0.787212 0.146878
H21   H     H_    0.414317 0.299484 0.819547 0.029160
H22   H     H_    0.552834 0.343880 0.771800 0.140240
H23   H     H_    0.523824 0.278902 0.236592 0.100725
H24   H     H_    0.159456 0.346663 0.521195 0.069511
H25   H     H_    0.401569 0.130668 0.562790 0.120500
H26   H     H_    0.123700 0.799892 0.579687 0.089761
H27   H     H_    0.704223 0.199108 0.403363 0.096436
H28   H     H_    0.416468 0.868761 0.429040 0.116831
H29   H     H_    0.651732 0.653843 0.480363 0.082245
H30   H     H_    0.315632 0.010672 0.556580 0.076083
H31   H     H_    0.219393 0.915747 0.578224 0.062882
H32   H     H_    0.608649 0.080193 0.401353 0.080702
H33   H     H_    0.746037 0.700606 0.300669 -0.059235
H34   H     H_    0.694259 0.226431 0.246320 0.124679
H35   H     H_    0.506921 0.987649 0.429271 0.065393
H36   H     H_    0.534730 0.494006 0.811660 0.110334
H37   H     H_    0.518959 0.550944 0.922912 0.083793
H38   H     H_    0.607142 0.568504 0.047144 0.114142
H39   H     H_    0.307490 0.441923 0.181557 0.106480
H40   H     H_    0.253451 0.356623 0.941916 0.068113
H41   H     H_    0.334637 0.377546 0.070120 0.067520
H42   H     H_    0.094740 0.386687 0.849048 0.082249
H43   H     H_    0.750763 0.543103 0.141628 0.084963
H44   H     H_    0.909707 0.764910 0.183921 0.079443
H45   H     H_    0.139720 0.752810 0.673707 0.021864
H46   H     H_    0.638942 0.537254 0.356295 0.054878
H47   H     H_    0.726951 0.713324 0.174787 0.086214
H48   H     H_    0.659483 0.377740 0.336151 -0.046610
H49   H     H_    0.974606 0.720764 0.805827 -0.003191
H50   H     H_    0.464238 0.708233 0.087003 0.360356
H51   H     H_    0.402107 0.760394 0.636484 -0.027562
H52   H     H_    0.653176 0.841537 0.121264 0.339646
H53   H     H_    0.190270 0.189984 0.717454 -0.052468
H54   H     H_    0.970119 0.827044 0.331677 0.051316
H55   H     H_    0.200907 0.624437 0.647357 0.349400
H56   H     H_    0.831605 0.804969 0.657283 0.098553
H57   H     H_    0.680402 0.381035 0.200432 -0.120193
H58   H     H_    0.008828 0.859542 0.693287 0.118822
H59   H     H_    0.879373 0.829746 0.751905 0.114232
H60   H     H_    0.184320 0.350079 0.393969 0.033317
O1    O     O_2   0.118870 0.674530 0.547560 -0.447361
O2    O     O_2   0.767099 0.439124 0.748414 -0.461458
O3    O     O_3   0.841249 0.306052 0.718628 -0.608189
O4    O     O_3   0.870460 0.585330 0.542110 -0.396303
O5    O     O_3   0.436130 0.464210 0.414140 -0.500468
O6    O     O_2   0.629420 0.533310 0.672080 -0.411935
O7    O     O_3   0.454542 0.638459 0.722536 -0.586447
O8    O     O_2   0.542915 0.243775 0.515457 -0.498005
O9    O     O_3   0.505220 0.249094 0.649770 -0.585162
O10   O     O_3   0.354280 0.631750 0.418430 -0.451068
O11   O     O_2   0.277623 0.757439 0.481921 -0.431472
O12   O     O_3   0.332305 0.351629 0.311853 -0.635712
O13   O     O_3   0.939996 0.682295 0.662249 -0.597787
O14   O     O_3   0.317810 0.753869 0.348369 -0.606862
O15   O     O_2   0.180880 0.466650 0.327890 -0.405716
O16   O     O_3   0.939000 0.596010 0.380670 -0.462776
O17   O     O_2   0.024398 0.532746 0.252839 -0.399394
O18   O     O_2   0.201050 0.750412 0.802247 -0.586621
O19   O     O_2   0.219981 0.595346 0.153097 -0.273579
O20   O     O_2   0.157817 0.691026 0.085830 -0.271110
O21   O     O_3   0.453660 0.665758 0.110545 -0.555231
O22   O     O_2   0.443571 0.669596 0.572422 -0.572447
O23   O     O_3   0.954665 0.663028 0.255089 -0.607598
O24   O     O_2   0.604654 0.831251 0.295287 -0.330428
O25   O     O_2   0.818281 0.897896 0.251212 -0.285635
O26   O     O_3   0.582823 0.843823 0.160995 -0.485962
O27   O     O_2   0.389736 0.138148 0.712228 -0.579170
O28   O     O_2   0.005093 0.750417 0.388912 -0.556594
O29   O     O_2   0.054724 0.506900 0.598010 -0.289491
O30   O     O_2   0.917037 0.547942 0.706624 -0.259103
O31   O     O_3   0.169611 0.615662 0.694008 -0.546264
O32   O     O_2   0.910517 0.379212 0.228162 -0.532995
O33   O     O_2   0.691430 0.325420 0.452420 -0.485937
O34   O     O_3   0.939830 0.414660 0.457830 -0.446480
O35   O     O_3   0.456020 0.368240 0.581510 -0.477885
O36   O     O_3   0.864099 0.318914 0.338509 -0.626928
O37   O     O_3   0.374170 0.535780 0.585810 -0.412834
O38   O     O_3   0.871300 0.403980 0.619270 -0.420409
P1    P     P_3+3 0.947550 0.663200 0.567530 1.093249
P2    P     P_3+3 0.354660 0.445020 0.336980 1.008355
P3    P     P_3+3 0.903226 0.584458 0.286554 1.040666
P4    P     P_3+3 0.862750 0.336790 0.432410 0.994400
P5    P     P_3+3 0.895287 0.394091 0.710471 1.045108
P6    P     P_3+3 0.388599 0.724062 0.426249 1.043113
P7    P     P_3+3 0.451637 0.548677 0.677680 1.094843
P8    P     P_3+3 0.428109 0.275308 0.570670 0.941669
S1    S     S_3+6 0.272602 0.668515 0.140797 -0.076418
S2    S     S_3+6 0.702208 0.834208 0.232914 -0.112015
S3    S     S_3+6 0.073587 0.536300 0.676542 -0.062613

loop_
_geom_bond_atom_site_label_1
_geom_bond_atom_site_label_2
_ccdc_geom_bond_type
C21   H32   S    
C40   H34   S    
C50   H36   S    
C2    H31   S    
C25   C27   A    
C20   H27   S    
C19   H26   S    
C17   C18   A    
O5    P2    S    
Ba1   O5    S    
Ba2   O35   S    
O20   S1    D    
C63   H19   S    
O35   P8    S    
C52   C58   S    
C43   C44   A    
C42   C43   A    
C32   H46   S    
C5    C9    A    
C13   P4    S    
C24   C25   A    
C39   H38   S    
O17   P3    D    
H50   O21   S    
C32   C38   A    
C15   C24   A    
C12   H7    S    
C49   P7    S    
C33   C35   A    
O6    P7    D    
C22   C24   A    
C32   C33   A    
C28   C62   S    
C34   H10   S    
C64   H21   S    
C36   C37   A    
C55   C57   S    
Ba1   P2    S    
C13   C14   A    
C9    C22   A    
O14   P6    S    
C55   O12   S    
Ba1   Ba2   S    
C45   H15   S    
C41   H37   S    
Ba1   O15   S    
C34   H9    S    
O15   P2    D    
O25   S2    D    
C42   C51   S    
C37   H43   S    
C52   O13   S    
C31   P1    S    
O4    P1    S    
C6    C7    A    
C44   H41   S    
Ba2   O5    S    
O33   P4    D    
Ba1   O1    S    
C6    H25   S    
C54   H59   S    
C7    C8    A    
C57   H6    S    
C36   C46   S    
C57   H5    S    
O34   P4    S    
C16   S2    S    
O11   P6    D    
C12   O14   S    
Ba1   O34   S    
C40   H12   S    
H52   O26   S    
O7    P7    S    
C11   H24   S    
O1    P1    D    
C39   C41   A    
C16   H47   S    
C28   O36   S    
C1    H13   S    
Ba2   O34   S    
C61   H54   S    
C64   H22   S    
C52   C54   S    
C28   H48   S    
O13   P1    S    
C4    C16   S    
C44   C46   A    
C15   C65   A    
Ba2   O6    S    
O24   S2    D    
C45   O3    S    
C49   C50   A    
C54   H56   S    
O2    P5    D    
C1    H3    S    
C16   H44   S    
Ba1   O37   S    
Ba2   O37   S    
C64   H20   S    
C3    C5    A    
C23   C34   S    
C62   H57   S    
C5    C65   A    
O21   S1    S    
C60   O27   D    
C40   H23   S    
C4    H33   S    
C4    C61   S    
C41   C42   A    
C35   C36   A    
C23   O7    S    
C56   H17   S    
C3    C6    A    
C1    S1    S    
C33   P2    S    
C29   C30   A    
C21   C22   A    
O23   P3    S    
Ba2   P4    S    
Ba2   O4    S    
H55   O31   S    
C52   H45   S    
C48   P5    S    
C23   C59   S    
C54   H58   S    
C18   C19   A    
O12   P2    S    
C17   C26   A    
Ba2   O38   S    
C1    C12   S    
C18   C31   A    
O31   S3    S    
C30   H29   S    
C3    H30   S    
C63   C64   S    
C11   C13   A    
C38   P3    S    
C58   H49   S    
C58   O18   D    
C23   H8    S    
C56   H18   S    
O8    P8    D    
C37   C38   A    
Ba1   O10   S    
C50   C51   A    
C47   H42   S    
O38   P5    S    
O9    P8    S    
C26   C27   A    
C14   C20   A    
C60   C63   S    
C59   H51   S    
C60   H53   S    
C26   C29   A    
Ba1   O4    S    
O29   S3    D    
C55   H60   S    
C2    C65   A    
Ba1   O16   S    
O26   S2    S    
C25   H35   S    
C48   C53   A    
C30   C31   A    
C61   O28   D    
C35   H39   S    
C8    C14   A    
C56   H16   S    
C45   C56   S    
C2    C19   A    
C29   P6    S    
Ba1   P1    S    
O3    P5    S    
C47   C51   A    
O19   S1    D    
C62   O32   D    
C15   C17   A    
C39   C46   A    
C49   C53   A    
C45   H14   S    
O36   P4    S    
C7    C10   A    
C53   S3    S    
O10   P6    S    
C63   O9    S    
O37   P7    S    
C8    C9    A    
O30   S3    D    
C27   H28   S    
C4    O23   S    
C10   C11   A    
Ba2   O33   S    
C47   C48   A    
C12   H1    S    
C20   C21   A    
C28   C40   S    
C34   H11   S    
O16   P3    S    
C55   H2    S    
C59   O22   D    
C43   H40   S    
C57   H4    S    
C10   P8    S    
