data_mof_unit_38239.cif
_audit_creation_date              2012-12-10T22:11:12-0500
_audit_creation_method            fapswitch 2.2
_symmetry_space_group_name_H-M    P1
_symmetry_Int_Tables_number       1
_space_group_crystal_system       triclinic
_cell_length_a                    12.111658
_cell_length_b                    12.283738
_cell_length_c                    23.018461
_cell_angle_alpha                 90.828373
_cell_angle_beta                  90.395078
_cell_angle_gamma                 91.563155
_cell_volume                      3422.88129748

loop_
_atom_site_label
_atom_site_type_symbol
_atom_type_description
_atom_site_fract_x
_atom_site_fract_y
_atom_site_fract_z
_atom_type_partial_charge
C1    C     C_R   0.657783 0.998899 0.579131 0.879490
C2    C     C_R   0.101857 0.844025 0.806595 -0.277120
C3    C     C_R   0.898178 0.207633 0.136174 0.464553
C4    C     C_R   0.101652 0.758375 0.845108 0.470224
C5    C     C_R   0.151620 0.908441 0.299562 -0.300833
C6    C     C_R   0.881452 0.092615 0.683415 -0.268292
C7    C     C_R   0.232374 0.905113 0.342609 0.471818
C8    C     C_R   0.802605 0.095648 0.639558 0.467711
C9    C     C_R   0.844409 0.101236 0.303195 -0.304377
C10   C     C_R   0.121902 0.898807 0.679132 -0.271020
C11   C     C_R   0.764331 0.102162 0.346004 0.468480
C12   C     C_R   0.343514 0.001049 0.420233 0.893183
C13   C     C_R   0.199503 0.898340 0.635284 0.464947
C14   C     C_3   0.996906 0.006276 0.247450 -0.030619
C15   C     C_3   0.003725 0.993136 0.752479 -0.028728
C16   C     C_R   0.654390 0.002427 0.420284 0.892809
C17   C     C_R   0.344177 0.997650 0.578933 0.879506
C18   C     C_R   0.095970 0.005099 0.288466 0.073440
C19   C     C_R   0.905105 0.994637 0.711176 0.063595
C20   C     C_R   0.258637 0.000381 0.375242 -0.132047
C21   C     C_R   0.744166 0.999063 0.623417 -0.143339
C22   C     C_R   0.899519 0.005190 0.288965 0.079406
C23   C     C_R   0.894724 0.771277 0.148146 -0.196621
C24   C     C_R   0.100252 0.994663 0.710653 0.069985
C25   C     C_R   0.738378 0.005109 0.375475 -0.130049
C26   C     C_R   0.258390 0.995524 0.622744 -0.140384
C27   C     C_R   0.997780 0.104177 0.207769 0.063846
C28   C     C_R   0.003042 0.894845 0.791796 0.059817
C29   C     C_R   0.995997 0.268108 0.124858 -0.137898
C30   C     C_R   0.003197 0.729527 0.873962 -0.146567
C31   C     C_R   0.993851 0.910986 0.204450 0.121862
C32   C     C_R   0.005851 0.088228 0.795471 0.126740
C33   C     C_R   0.991396 0.750261 0.117613 -0.022003
C34   C     C_R   0.106109 0.200710 0.866646 -0.201527
C35   C     C_R   0.007504 0.249991 0.881886 -0.026396
C36   C     C_R   0.993019 0.662628 0.075038 0.860720
C37   C     C_R   0.006862 0.337406 0.924824 0.865722
C38   C     C_R   0.998215 0.351812 0.080880 0.900400
C39   C     C_R   0.001675 0.647063 0.918565 0.891614
C40   C     C_R   0.120082 0.097807 0.323299 -0.174654
C41   C     C_R   0.850780 0.897881 0.692095 -0.196511
C42   C     C_R   0.201543 0.095968 0.365490 -0.279465
C43   C     C_R   0.769943 0.900510 0.649505 -0.269993
C44   C     C_R   0.876038 0.910582 0.320779 -0.180545
C45   C     C_R   0.088536 0.892945 0.170865 -0.152762
C46   C     C_R   0.154050 0.092528 0.694787 -0.203272
C47   C     C_R   0.795250 0.910091 0.362861 -0.277168
C48   C     C_R   0.233696 0.092449 0.652076 -0.268915
C49   C     C_R   0.094863 0.164807 0.195736 -0.191149
C50   C     C_R   0.905529 0.864978 0.820977 -0.163753
C51   C     C_R   0.093552 0.246444 0.155050 -0.269431
C52   C     C_R   0.905434 0.782740 0.861219 -0.260828
C53   C     C_R   0.895458 0.851826 0.190847 -0.186245
C54   C     C_R   0.104888 0.118730 0.824617 -0.161818
C55   C     C_3   0.724198 0.272498 0.141195 0.116904
C56   C     C_R   0.906634 0.134322 0.813774 -0.177685
C57   C     C_3   0.624843 0.303648 0.104915 -0.789786
C58   C     C_3   0.214272 0.625723 0.813896 0.103397
C59   C     C_3   0.314938 0.560592 0.829554 -0.784421
C60   C     C_3   0.223721 0.731860 0.376849 0.116062
C61   C     C_3   0.293062 0.634578 0.391695 -0.806696
C62   C     C_3   0.859707 0.216441 0.571531 0.112751
C63   C     C_3   0.840507 0.328719 0.547103 -0.828374
C64   C     C_3   0.773376 0.273526 0.385540 0.114048
C65   C     C_3   0.704258 0.370124 0.402848 -0.812470
C66   C     C_3   0.140101 0.782390 0.563169 0.110941
C67   C     C_R   0.087875 0.812241 0.128619 -0.190694
C68   C     C_3   0.156341 0.670503 0.535994 -0.833300
C69   C     C_R   0.907740 0.215287 0.855813 -0.183337
C70   C     C_R   0.901475 0.123655 0.175590 -0.259567
H1    H     H_    0.218407 0.169201 0.391179 0.177857
H2    H     H_    0.827291 0.107152 0.796300 0.144899
H3    H     H_    0.827917 0.072889 0.181238 0.155805
H4    H     H_    0.180402 0.870594 0.788876 0.164389
H5    H     H_    0.131407 0.833659 0.276144 0.151859
H6    H     H_    0.926144 0.167408 0.695066 0.152959
H7    H     H_    0.864255 0.177392 0.282332 0.141610
H8    H     H_    0.077027 0.823502 0.688048 0.147330
H9    H     H_    0.778633 0.835503 0.386169 0.177456
H10   H     H_    0.275476 0.168808 0.641857 0.183753
H11   H     H_    0.169751 0.291506 0.146621 0.181959
H12   H     H_    0.728321 0.824680 0.636684 0.184930
H13   H     H_    0.829022 0.762685 0.883306 0.185017
H14   H     H_    0.818753 0.725285 0.139250 0.158304
H15   H     H_    0.183662 0.224634 0.887470 0.160242
H16   H     H_    0.162773 0.798939 0.104368 0.163919
H17   H     H_    0.829928 0.250374 0.867875 0.165140
H18   H     H_    0.074628 0.171783 0.318059 0.144527
H19   H     H_    0.872101 0.819346 0.708857 0.153430
H20   H     H_    0.759573 0.348091 0.162324 0.129002
H21   H     H_    0.695180 0.215285 0.175283 0.139182
H22   H     H_    0.586495 0.229887 0.083821 0.253494
H23   H     H_    0.921193 0.836905 0.313128 0.142281
H24   H     H_    0.562762 0.342544 0.133145 0.197296
H25   H     H_    0.650907 0.361974 0.070880 0.252705
H26   H     H_    0.228089 0.662645 0.770534 0.144900
H27   H     H_    0.141422 0.568229 0.811400 0.120935
H28   H     H_    0.302676 0.521571 0.872348 0.257144
H29   H     H_    0.327477 0.496190 0.796084 0.198767
H30   H     H_    0.389627 0.615019 0.831740 0.252439
H31   H     H_    0.155364 0.702882 0.347498 0.121020
H32   H     H_    0.188326 0.764665 0.417885 0.133065
H33   H     H_    0.361198 0.660263 0.421847 0.255086
H34   H     H_    0.133436 0.169896 0.714283 0.151205
H35   H     H_    0.240731 0.571224 0.412867 0.193783
H36   H     H_    0.328710 0.599367 0.351502 0.255024
H37   H     H_    0.851896 0.155343 0.535374 0.123715
H38   H     H_    0.945321 0.216239 0.589629 0.127494
H39   H     H_    0.850958 0.391608 0.582003 0.253729
H40   H     H_    0.900889 0.346338 0.512160 0.190595
H41   H     H_    0.755518 0.332051 0.528962 0.263087
H42   H     H_    0.841613 0.303840 0.357433 0.118019
H43   H     H_    0.808943 0.238686 0.425776 0.135595
H44   H     H_    0.636216 0.343089 0.431840 0.256289
H45   H     H_    0.173139 0.147289 0.215887 0.161348
H46   H     H_    0.756777 0.432314 0.426162 0.194981
H47   H     H_    0.668489 0.407330 0.363515 0.252439
H48   H     H_    0.148938 0.844601 0.528638 0.125762
H49   H     H_    0.054740 0.783875 0.580944 0.127479
H50   H     H_    0.144724 0.606685 0.569262 0.252102
H51   H     H_    0.095245 0.655470 0.500389 0.191531
H52   H     H_    0.241001 0.665790 0.518121 0.263665
H53   H     H_    0.829364 0.906675 0.813198 0.153532
H54   H     H_    0.818193 0.868737 0.211919 0.150944
H55   H     H_    0.181411 0.079186 0.814641 0.146320
H56   H     H_    0.163628 0.941415 0.177820 0.146198
O1    O     O_R   0.621380 0.090460 0.561410 -0.573860
O2    O     O_R   0.912410 0.372520 0.941210 -0.623973
O3    O     O_R   0.905660 0.383870 0.059980 -0.575553
O4    O     O_R   0.094340 0.616130 0.940020 -0.565865
O5    O     O_R   0.092570 0.390420 0.063230 -0.635981
O6    O     O_R   0.907430 0.609580 0.936770 -0.637592
O7    O     O_R   0.900680 0.620930 0.055550 -0.632723
O8    O     O_R   0.099320 0.379070 0.944450 -0.634375
O9    O     O_3   0.802228 0.222972 0.104693 -0.589024
O10   O     O_3   0.199634 0.707519 0.856666 -0.590880
O11   O     O_3   0.291364 0.811146 0.349550 -0.590357
O12   O     O_R   0.378620 0.909540 0.438590 -0.583748
O13   O     O_3   0.780163 0.194445 0.614672 -0.589772
O14   O     O_3   0.705450 0.195722 0.355580 -0.594822
O15   O     O_3   0.220705 0.801114 0.607057 -0.593082
O16   O     O_R   0.617150 0.909540 0.438590 -0.632957
O17   O     O_R   0.382850 0.090460 0.561410 -0.640257
O18   O     O_R   0.619720 0.093230 0.440890 -0.582963
O19   O     O_R   0.380280 0.906770 0.559110 -0.573056
O20   O     O_R   0.618800 0.906770 0.559110 -0.640041
O21   O     O_R   0.381200 0.093230 0.440890 -0.633066
O22   O     O_R   0.087590 0.627480 0.058790 -0.628518
Zn1   Zn    Zn3+2 0.501730 0.123520 0.501540 0.973828
Zn2   Zn    Zn3+2 0.498270 0.876480 0.498460 0.974452
Zn3   Zn    Zn3+2 0.125690 0.504390 0.002180 0.965110
Zn4   Zn    Zn3+2 0.874310 0.495610 0.997820 0.958225

loop_
_geom_bond_atom_site_label_1
_geom_bond_atom_site_label_2
_ccdc_geom_bond_type
C66   C68   S    
C1    C21   S    
C57   H22   S    
C52   H13   S    
C59   H29   S    
C65   H44   S    
C14   C18   S    
O5    Zn3   S    
O22   Zn3   S    
C47   H9    S    
C14   C31   S    
C36   O7    A    
C49   C51   A    
C10   H8    S    
C15   C32   S    
C66   O15   S    
O12   Zn2   S    
C15   C19   S    
C6    C19   A    
C58   H27   S    
C62   C63   S    
C8    O13   S    
C17   C26   S    
C12   O21   A    
C61   H33   S    
C55   H20   S    
C64   O14   S    
C58   H26   S    
C9    C22   A    
C64   H42   S    
C62   H38   S    
C39   O6    A    
C11   C25   A    
C33   C36   S    
C34   C35   A    
C3    C29   A    
C18   C40   A    
C55   H21   S    
C44   H23   S    
C21   C43   A    
C28   C50   A    
C36   O22   A    
C22   C44   A    
C23   C33   A    
C29   C38   S    
C45   C67   A    
C50   C52   A    
C13   O15   S    
C14   C27   S    
C61   H35   S    
C51   H11   S    
O19   Zn2   S    
C2    H4    S    
C44   C47   A    
C26   C48   A    
C60   O11   S    
C4    O10   S    
C37   O2    A    
C40   C42   A    
O20   Zn2   S    
C59   H30   S    
C41   C43   A    
C1    O20   A    
O7    Zn4   S    
C55   O9    S    
C60   H32   S    
C32   C54   A    
O2    Zn4   S    
C23   C53   A    
C54   H55   S    
C46   C48   A    
C23   H14   S    
C38   O3    A    
C3    C70   A    
O3    Zn4   S    
C68   H52   S    
C5    C7    A    
O16   Zn2   S    
C6    C8    A    
C62   H37   S    
C10   C24   A    
C58   C59   S    
C46   H34   S    
C10   C13   A    
C60   C61   S    
C34   H15   S    
O1    Zn1   S    
C5    H5    S    
C56   H2    S    
C16   O16   A    
C11   O14   S    
O18   Zn1   S    
C9    C11   A    
C2    C4    A    
C45   H56   S    
C12   C20   S    
C70   H3    S    
C8    C21   A    
C9    H7    S    
C31   C53   A    
C61   H36   S    
C16   O18   A    
C7    C20   A    
C27   C70   A    
C15   C24   S    
C49   H45   S    
C34   C54   A    
C66   H49   S    
C55   C57   S    
C57   H25   S    
C17   O19   A    
C62   O13   S    
C65   H46   S    
C12   O12   A    
C13   C26   A    
C31   C45   A    
C60   H31   S    
C33   C67   A    
C7    O11   S    
C29   C51   A    
C35   C37   S    
C16   C25   S    
C43   H12   S    
C25   C47   A    
C67   H16   S    
C64   H43   S    
O21   Zn1   S    
C41   H19   S    
C50   H53   S    
C1    O1    A    
C53   H54   S    
C69   H17   S    
C68   H51   S    
C20   C42   A    
C6    H6    S    
C5    C18   A    
C39   O4    A    
C17   O17   A    
C57   H24   S    
C58   O10   S    
C38   O5    A    
C14   C22   S    
C63   H40   S    
C24   C46   A    
C48   H10   S    
C68   H50   S    
C40   H18   S    
C15   C28   S    
C30   C52   A    
O6    Zn4   S    
O8    Zn3   S    
C64   C65   S    
C42   H1    S    
C30   C39   S    
C3    O9    S    
C63   H41   S    
C27   C49   A    
O17   Zn1   S    
C35   C69   A    
C56   C69   A    
C66   H48   S    
O4    Zn3   S    
C59   H28   S    
C65   H47   S    
C37   O8    A    
C2    C28   A    
C32   C56   A    
C4    C30   A    
C19   C41   A    
C63   H39   S    
