data_mof_unit_37897.cif
_audit_creation_date              2012-12-10T18:42:32-0500
_audit_creation_method            fapswitch 2.2
_symmetry_space_group_name_H-M    P1
_symmetry_Int_Tables_number       1
_space_group_crystal_system       triclinic
_cell_length_a                    8.600071
_cell_length_b                    10.63614
_cell_length_c                    9.907385
_cell_angle_alpha                 88.838278
_cell_angle_beta                  98.080421
_cell_angle_gamma                 90.459212
_cell_volume                      897.049896495

loop_
_atom_site_label
_atom_site_type_symbol
_atom_type_description
_atom_site_fract_x
_atom_site_fract_y
_atom_site_fract_z
_atom_type_partial_charge
C1    C     C_R   0.499049 0.260403 0.500982 0.953296
C2    C     C_R   0.500954 0.739600 0.499020 0.953285
C3    C     C_R   0.201506 0.499778 0.464570 0.988865
C4    C     C_R   0.798494 0.500219 0.535429 0.988860
C5    C     C_2   0.036643 0.498593 0.445444 -0.304203
C6    C     C_2   0.963357 0.501402 0.554556 -0.304204
C7    C     C_R   0.365480 0.065350 0.437474 0.120468
C8    C     C_R   0.634510 0.934655 0.562525 0.120462
C9    C     C_R   0.367523 0.935215 0.434128 0.124991
C10   C     C_R   0.632466 0.064789 0.565871 0.124994
C11   C     C_R   0.501728 0.872120 0.496991 -0.200742
C12   C     C_R   0.498261 0.127884 0.503010 -0.200736
C13   C     C_R   0.592233 0.582766 0.079256 0.227228
C14   C     C_R   0.407768 0.417234 0.920744 0.227226
C15   C     C_R   0.591763 0.582181 0.936340 -0.113624
C16   C     C_R   0.408241 0.417818 0.063660 -0.113637
H1    H     H_    0.975992 0.494938 0.341572 0.200689
H2    H     H_    0.024008 0.505056 0.658428 0.200687
H3    H     H_    0.665092 0.647796 0.888704 0.182705
H4    H     H_    0.334915 0.352208 0.111295 0.182702
N1    N     N_R   0.499960 0.499970 0.857200 -0.120437
N2    N     N_R   0.500040 0.500030 0.142800 -0.120438
O1    O     O_R   0.499990 0.316750 0.614620 -0.584968
O2    O     O_R   0.500010 0.683250 0.385380 -0.584960
O3    O     O_R   0.499990 0.316780 0.385290 -0.611930
O4    O     O_R   0.500010 0.683220 0.614710 -0.611923
O5    O     O_R   0.271750 0.499990 0.587840 -0.605003
O6    O     O_R   0.728250 0.500010 0.412160 -0.605003
O7    O     O_R   0.271750 0.500010 0.358510 -0.610357
O8    O     O_R   0.728250 0.499990 0.641490 -0.610358
Zn1   Zn    Zn3+2 0.500000 0.499980 0.653120 1.019079
Zn2   Zn    Zn3+2 0.500000 0.500020 0.346880 1.019078
I1    I     I_    0.160923 0.167881 0.349193 -0.239632
I2    I     I_    0.839001 0.832151 0.650879 -0.239637
I3    I     I_    0.167422 0.833131 0.339152 -0.200896
I4    I     I_    0.832566 0.166884 0.660837 -0.200888
I5    I     I_    0.741111 0.717423 0.185499 -0.225523
I6    I     I_    0.258892 0.282571 0.814501 -0.225517

loop_
_geom_bond_atom_site_label_1
_geom_bond_atom_site_label_2
_ccdc_geom_bond_type
C1    O3    A    
O2    Zn2   S    
C14   I6    S    
N1    Zn1   S    
N2    Zn2   S    
C13   I5    S    
C15   N1    A    
C16   H4    S    
O3    Zn2   S    
C3    O5    A    
O4    Zn1   S    
C2    O4    A    
C8    I2    S    
C15   H3    S    
C9    C11   A    
C7    C12   A    
C1    C12   S    
C10   C12   A    
C8    C11   A    
C5    C6    D    
C2    C11   S    
C14   N1    A    
C8    C10   A    
C4    O6    A    
C13   N2    A    
C1    O1    A    
O7    Zn2   S    
C13   C15   A    
C2    O2    A    
O8    Zn1   S    
C6    H2    S    
C14   C16   A    
C5    H1    S    
C7    I1    S    
O5    Zn1   S    
C7    C9    A    
O6    Zn2   S    
C4    C6    S    
C3    O7    A    
C9    I3    S    
C10   I4    S    
C4    O8    A    
C16   N2    A    
C3    C5    S    
O1    Zn1   S    
