data_mof_unit_66459.cif
_audit_creation_date              2013-03-05T16:27:53-0500
_audit_creation_method            fapswitch 2.2
_symmetry_space_group_name_H-M    P1
_symmetry_Int_Tables_number       1
_space_group_crystal_system       triclinic
_cell_length_a                    39.008547
_cell_length_b                    32.235168
_cell_length_c                    21.648935
_cell_angle_alpha                 89.992753
_cell_angle_beta                  55.707095
_cell_angle_gamma                 90.016005
_cell_volume                      22490.2670405

loop_
_atom_site_label
_atom_site_type_symbol
_atom_site_description
_atom_site_fract_x
_atom_site_fract_y
_atom_site_fract_z
_atom_type_partial_charge
O1    O     O_R   0.940150 0.534620 0.559830 -0.545668
O2    O     O_R   0.059850 0.534620 0.440170 -0.545455
O3    O     O_R   0.440150 0.034620 0.559830 -0.545583
O4    O     O_R   0.559850 0.034620 0.440170 -0.545792
O5    O     O_R   0.940110 0.465340 0.559870 -0.584568
O6    O     O_R   0.059890 0.465340 0.440130 -0.584591
O7    O     O_R   0.440110 0.965340 0.559870 -0.584633
O8    O     O_R   0.559890 0.965340 0.440130 -0.584544
C1    C     C_R   0.920413 0.499979 0.579885 0.833275
C2    C     C_R   0.079596 0.499991 0.420060 0.833439
C3    C     C_R   0.420413 0.999979 0.579887 0.833286
C4    C     C_R   0.579587 0.999994 0.420103 0.833573
O9    O     O_R   0.999990 0.534620 0.408860 -0.541175
O10   O     O_R   0.000010 0.534620 0.591140 -0.541647
O11   O     O_R   0.499990 0.034620 0.408860 -0.541212
O12   O     O_R   0.500010 0.034620 0.591140 -0.541589
O13   O     O_R   0.999950 0.465340 0.408890 -0.568877
O14   O     O_R   0.000050 0.465340 0.591110 -0.568972
O15   O     O_R   0.499950 0.965340 0.408890 -0.568867
O16   O     O_R   0.500050 0.965340 0.591110 -0.568937
C5    C     C_R   0.998603 0.500214 0.381213 0.881888
C6    C     C_R   0.001404 0.500209 0.618778 0.883036
C7    C     C_R   0.498602 0.000213 0.381213 0.882015
C8    C     C_R   0.501402 0.000210 0.618781 0.882794
Cu1   Cu    Cu3+1 0.000000 0.540990 0.500000 1.178253
Cu2   Cu    Cu3+1 0.500000 0.040990 0.500000 1.178198
Cu3   Cu    Cu3+1 1.000000 0.458960 0.500000 1.067669
Cu4   Cu    Cu3+1 0.500000 0.958960 0.500000 1.067720
C9    C     C_1   0.999848 0.375887 0.000174 -0.019507
C10   C     C_1   0.499848 0.875889 0.000259 -0.018327
C11   C     C_1   0.500705 0.623869 0.999256 -0.054867
C12   C     C_1   0.000710 0.123868 0.999273 -0.052772
C13   C     C_R   0.998659 0.293548 0.001185 -0.195047
C14   C     C_R   0.498645 0.793550 0.001556 -0.194821
C15   C     C_R   0.002397 0.271823 0.941062 0.225001
C16   C     C_R   0.996949 0.271762 0.059417 0.221394
C17   C     C_R   0.497971 0.771813 0.945660 0.226347
C18   C     C_R   0.501342 0.771775 0.055234 0.223142
C19   C     C_3   0.977042 0.544025 0.308797 0.337883
C20   C     C_3   0.023398 0.543836 0.690705 0.337890
C21   C     C_3   0.476999 0.044004 0.308843 0.337895
C22   C     C_3   0.523313 0.043876 0.690798 0.338011
C23   C     C_3   0.974167 0.540862 0.237327 0.525382
C24   C     C_3   0.026247 0.540663 0.762204 0.525235
C25   C     C_3   0.474127 0.040840 0.237370 0.525295
C26   C     C_3   0.526166 0.040706 0.762293 0.524971
H1    H     H_    0.062320 0.520409 0.245437 0.146614
H2    H     H_    0.937892 0.521005 0.754322 0.147084
H3    H     H_    0.562301 0.020472 0.245460 0.146599
H4    H     H_    0.437849 0.020882 0.754366 0.146940
H5    H     H_    0.058738 0.530685 0.143637 0.243300
H6    H     H_    0.941576 0.531266 0.856021 0.243055
H7    H     H_    0.558708 0.030749 0.143669 0.243246
H8    H     H_    0.441514 0.031151 0.856085 0.243037
C27   C     C_3   0.042571 0.496044 0.243892 0.274933
C28   C     C_3   0.957394 0.496462 0.756137 0.273704
C29   C     C_3   0.542576 0.996088 0.243888 0.274507
C30   C     C_3   0.457398 0.996377 0.756134 0.273457
C31   C     C_3   0.971040 0.463931 0.315358 -0.390024
C32   C     C_3   0.028603 0.463688 0.685050 -0.391026
C33   C     C_3   0.471075 0.963904 0.315317 -0.390540
C34   C     C_3   0.528669 0.963739 0.684978 -0.391333
C35   C     C_3   0.997089 0.501418 0.313858 -0.206604
C36   C     C_3   0.002930 0.501408 0.686119 -0.206718
C37   C     C_3   0.497088 0.001417 0.313859 -0.206542
C38   C     C_3   0.502924 0.001410 0.686125 -0.206580
H9    H     H_    0.979850 0.434445 0.329690 0.235844
H10   H     H_    0.019504 0.434276 0.671040 0.236161
H11   H     H_    0.479912 0.934426 0.329623 0.235945
H12   H     H_    0.519627 0.934311 0.670905 0.235981
H13   H     H_    0.937835 0.468299 0.359555 0.260110
H14   H     H_    0.061854 0.467754 0.640824 0.260399
H15   H     H_    0.437864 0.968241 0.359513 0.260159
H16   H     H_    0.561912 0.967869 0.640762 0.260562
C39   C     C_3   0.997731 0.499814 0.191641 -0.202163
C40   C     C_3   0.002268 0.499836 0.808357 -0.203560
C41   C     C_3   0.497733 0.999816 0.191639 -0.202588
C42   C     C_3   0.502265 0.999834 0.808361 -0.203239
C43   C     C_3   0.042944 0.501274 0.172424 -0.468941
C44   C     C_3   0.957070 0.501708 0.827554 -0.468768
C45   C     C_3   0.542945 0.001321 0.172424 -0.468917
C46   C     C_3   0.457064 0.001622 0.827562 -0.468673
C47   C     C_3   0.978508 0.458438 0.237744 0.089941
C48   C     C_3   0.021060 0.458279 0.762735 0.093227
C49   C     C_3   0.478555 0.958419 0.237694 0.091124
C50   C     C_3   0.521135 0.958313 0.762654 0.093492
H17   H     H_    0.002794 0.433950 0.208696 0.180023
H18   H     H_    0.996517 0.434026 0.792042 0.183992
H19   H     H_    0.502870 0.933958 0.208624 0.181461
H20   H     H_    0.496636 0.934014 0.791910 0.183924
H21   H     H_    0.062100 0.476145 0.132180 0.211448
H22   H     H_    0.937656 0.476761 0.868065 0.213779
H23   H     H_    0.562127 0.976213 0.132153 0.212009
H24   H     H_    0.437697 0.976639 0.868027 0.214240
H25   H     H_    0.788317 0.474573 0.802795 0.183873
H26   H     H_    0.211604 0.472843 0.198167 0.184272
H27   H     H_    0.288316 0.974648 0.802842 0.183952
H28   H     H_    0.711637 0.971600 0.199250 0.184245
C51   C     C_R   0.727908 0.485041 0.823754 0.312128
C52   C     C_R   0.272038 0.482084 0.177824 0.310976
C53   C     C_R   0.227908 0.985086 0.823781 0.312047
C54   C     C_R   0.772064 0.983344 0.177452 0.311847
C55   C     C_R   0.706285 0.499849 0.792978 -0.117341
C56   C     C_R   0.293708 0.496406 0.208790 -0.114367
C57   C     C_R   0.206285 0.999851 0.792978 -0.117457
C58   C     C_R   0.793715 0.999876 0.207028 -0.117541
C59   C     C_R   0.728877 0.514680 0.718231 0.290184
C60   C     C_R   0.271192 0.511478 0.283339 0.289479
C61   C     C_R   0.228877 0.014639 0.718205 0.289947
C62   C     C_R   0.771150 0.016449 0.280567 0.290365
C63   C     C_R   0.772470 0.514027 0.675482 -0.166456
C64   C     C_R   0.227629 0.512759 0.324972 -0.166975
C65   C     C_R   0.272471 0.013986 0.675457 -0.166442
C66   C     C_R   0.727556 0.015791 0.323361 -0.166988
H29   H     H_    0.790018 0.525245 0.618349 0.215525
H30   H     H_    0.210132 0.524043 0.382048 0.215913
H31   H     H_    0.290019 0.025172 0.618304 0.215581
H32   H     H_    0.710028 0.028328 0.379582 0.215406
C67   C     C_R   0.793671 0.499922 0.706101 0.012857
C68   C     C_R   0.206369 0.499004 0.294244 0.012654
C69   C     C_R   0.293671 0.999923 0.706102 0.012771
C70   C     C_R   0.706329 0.999980 0.293884 0.012646
C71   C     C_R   0.771509 0.485766 0.779821 -0.216025
C72   C     C_R   0.228462 0.483852 0.221164 -0.216602
C73   C     C_R   0.271509 0.985810 0.779847 -0.216028
C74   C     C_R   0.728465 0.984104 0.221319 -0.216334
C75   C     C_1   0.661337 0.499889 0.837769 0.146895
C76   C     C_1   0.338649 0.498030 0.162960 0.143699
C77   C     C_1   0.161337 0.999891 0.837769 0.146544
C78   C     C_1   0.838663 0.999903 0.162235 0.145993
C79   C     C_1   0.838410 0.499956 0.661620 0.037258
C80   C     C_1   0.161622 0.499672 0.338442 0.037491
C81   C     C_1   0.338410 0.999956 0.661621 0.037248
C82   C     C_1   0.661590 0.000015 0.338363 0.037237
C83   C     C_1   0.875850 0.499975 0.624346 -0.098525
C84   C     C_1   0.124175 0.499957 0.375614 -0.098055
C85   C     C_1   0.375850 0.999975 0.624347 -0.098454
C86   C     C_1   0.624150 0.000022 0.375638 -0.098191
C87   C     C_1   0.623863 0.499926 0.875350 -0.042893
C88   C     C_1   0.376117 0.499108 0.124827 -0.047287
C89   C     C_1   0.123863 0.999927 0.875349 -0.043122
C90   C     C_1   0.876137 0.999931 0.124652 -0.045456
C91   C     C_1   0.501469 0.661306 0.998436 0.183966
C92   C     C_1   0.001479 0.161305 0.998537 0.184786
O17   O     O_R   0.965330 0.559800 0.034660 -0.559913
O18   O     O_R   0.034670 0.559800 0.965340 -0.560233
O19   O     O_R   0.465330 0.059800 0.034660 -0.559988
O20   O     O_R   0.534670 0.059800 0.965340 -0.560242
C93   C     C_R   0.000008 0.579540 0.999985 0.847663
C94   C     C_R   0.500008 0.079540 0.999987 0.847481
O21   O     O_R   0.965350 0.499950 0.125800 -0.501186
O22   O     O_R   0.034650 0.499950 0.874200 -0.501028
O23   O     O_R   0.465350 0.999950 0.125800 -0.501353
O24   O     O_R   0.534650 0.999950 0.874200 -0.500944
O25   O     O_R   0.034620 0.500000 0.056540 -0.607810
O26   O     O_R   0.965380 0.500000 0.943460 -0.607087
O27   O     O_R   0.534620 1.000000 0.056540 -0.607641
O28   O     O_R   0.465380 0.000000 0.943460 -0.606837
C95   C     C_R   0.999611 0.498864 0.120716 0.897617
C96   C     C_R   0.000387 0.498899 0.879285 0.901360
C97   C     C_R   0.499611 0.998866 0.120715 0.898257
C98   C     C_R   0.500386 0.998893 0.879286 0.901537
Cu5   Cu    Cu3+1 0.958960 0.499950 0.041020 1.140736
Cu6   Cu    Cu3+1 0.041040 0.499950 0.958980 1.134903
Cu7   Cu    Cu3+1 0.458960 0.999950 0.041020 1.141208
Cu8   Cu    Cu3+1 0.541040 0.999950 0.958980 1.135454
O29   O     O_R   0.965350 0.440100 0.034640 -0.553597
O30   O     O_R   0.034650 0.440100 0.965360 -0.561970
O31   O     O_R   0.465350 0.940100 0.034640 -0.553373
O32   O     O_R   0.534650 0.940100 0.965360 -0.561775
C99   C     C_1   0.999414 0.338464 0.000553 0.186724
C100  C     C_1   0.499410 0.838466 0.000755 0.188851
C101  C     C_R   0.999981 0.420405 0.000054 0.840407
C102  C     C_R   0.499982 0.920406 0.000054 0.840920
O33   O     O_R   0.499940 0.440170 0.947210 -0.568692
O34   O     O_R   0.500060 0.440170 0.052790 -0.567208
O35   O     O_R   0.999940 0.940170 0.947210 -0.568527
O36   O     O_R   0.000060 0.940170 0.052790 -0.568803
C103  C     C_R   0.499999 0.420712 0.000004 0.796395
C104  C     C_R   0.999999 0.920712 0.000004 0.795496
O37   O     O_R   0.559820 0.500010 0.887440 -0.559594
O38   O     O_R   0.440180 0.500010 0.112560 -0.556489
O39   O     O_R   0.059820 0.000010 0.887440 -0.559219
O40   O     O_R   0.940180 0.000010 0.112560 -0.560774
O41   O     O_R   0.559830 0.499950 0.992950 -0.556323
O42   O     O_R   0.440170 0.499950 0.007050 -0.559588
O43   O     O_R   0.059830 0.999950 0.992950 -0.556889
O44   O     O_R   0.940170 0.999950 0.007050 -0.558969
C105  C     C_R   0.579281 0.499963 0.920469 0.791162
C106  C     C_R   0.420710 0.499908 0.079552 0.785827
C107  C     C_R   0.079281 0.999963 0.920469 0.791217
C108  C     C_R   0.920719 0.999961 0.079531 0.788511
Cu9   Cu    Cu3+1 0.499970 0.500020 0.937550 1.093918
Cu10  Cu    Cu3+1 0.500030 0.500020 0.062450 1.098182
Cu11  Cu    Cu3+1 0.999970 0.000020 0.937550 1.093947
Cu12  Cu    Cu3+1 0.000030 0.000020 0.062450 1.095122
O45   O     O_R   0.500010 0.559860 0.947320 -0.553465
O46   O     O_R   0.499990 0.559860 0.052680 -0.554839
O47   O     O_R   0.000010 0.059860 0.947320 -0.554403
O48   O     O_R   0.999990 0.059860 0.052680 -0.552749
C109  C     C_R   0.500082 0.579320 0.999911 0.790911
C110  C     C_R   0.000083 0.079320 0.999912 0.794246
C111  C     C_R   0.513991 0.272055 0.933913 -0.231364
C112  C     C_R   0.486052 0.272025 0.066047 -0.230169
C113  C     C_R   0.014038 0.772055 0.933889 -0.231267
C114  C     C_R   0.986013 0.772023 0.066058 -0.230902
H33   H     H_    0.524389 0.288825 0.882819 0.180573
H34   H     H_    0.475645 0.288770 0.117154 0.181177
H35   H     H_    0.024472 0.788825 0.882779 0.180567
H36   H     H_    0.975568 0.788766 0.117184 0.180597
C115  C     C_R   0.500016 0.293837 0.999987 0.000208
C116  C     C_R   0.000019 0.793837 0.999982 0.000336
C117  C     C_R   0.985165 0.728420 0.066812 0.444082
C118  C     C_R   0.014912 0.728451 0.933100 0.444842
C119  C     C_R   0.485199 0.228421 0.066807 0.443732
C120  C     C_R   0.514866 0.228451 0.933125 0.444820
C121  C     C_R   0.000040 0.706525 0.999950 -0.063537
C122  C     C_R   0.500035 0.206525 0.999961 -0.063410
C123  C     C_1   0.500008 0.338613 0.000000 0.035597
C124  C     C_1   0.000009 0.838613 0.999997 0.034876
C125  C     C_1   0.000038 0.661629 0.999944 0.070287
C126  C     C_1   0.500034 0.161629 0.999955 0.070483
C127  C     C_1   0.000027 0.624157 0.999956 -0.135170
C128  C     C_1   0.500026 0.124158 0.999963 -0.135070
C129  C     C_1   0.500002 0.376087 0.000006 -0.121902
C130  C     C_1   0.000004 0.876086 0.000005 -0.123022
C131  C     C_R   0.503278 0.728000 0.053119 0.222939
C132  C     C_R   0.499869 0.728035 0.943589 0.219767
C133  C     C_R   0.998880 0.227989 0.057630 0.223081
C134  C     C_R   0.004294 0.228042 0.939306 0.219314
C135  C     C_R   0.502507 0.706242 0.997333 -0.194502
C136  C     C_R   0.002518 0.206240 0.997606 -0.194126
N1    N     N_R   0.003334 0.580020 0.300885 0.112647
O49   O     O_R   0.040160 0.586168 0.240572 -0.376844
O50   O     O_R   0.989198 0.607590 0.353879 -0.266754
N2    N     N_R   0.997469 0.580067 0.698224 0.112763
O51   O     O_R   0.960709 0.586561 0.758472 -0.376316
O52   O     O_R   0.011875 0.607490 0.644915 -0.266680
N3    N     N_R   0.503255 0.080024 0.300969 0.112663
O53   O     O_R   0.540076 0.086209 0.240663 -0.376809
O54   O     O_R   0.489092 0.107579 0.353993 -0.266601
N4    N     N_R   0.497315 0.080058 0.698387 0.112768
O55   O     O_R   0.460542 0.086481 0.758646 -0.376320
O56   O     O_R   0.511672 0.107512 0.645136 -0.266711
O57   O     O_3   0.057304 0.455805 0.244885 -0.560485
C137  C     C_3   0.100327 0.456543 0.213410 -0.235170
H37   H     H_    0.106840 0.473867 0.250157 0.137419
H38   H     H_    0.118030 0.470182 0.156252 0.167309
H39   H     H_    0.111236 0.424212 0.208864 0.214580
O58   O     O_3   0.942258 0.456359 0.755574 -0.560043
C138  C     C_3   0.899242 0.457488 0.787063 -0.231873
H40   H     H_    0.892891 0.474874 0.750153 0.136273
H41   H     H_    0.881683 0.471283 0.844081 0.167896
H42   H     H_    0.888011 0.425258 0.791946 0.214794
O59   O     O_3   0.557347 0.955863 0.244840 -0.560202
C139  C     C_3   0.600370 0.956642 0.213361 -0.233117
H43   H     H_    0.606868 0.973971 0.250123 0.136922
H44   H     H_    0.618059 0.970297 0.156216 0.167229
H45   H     H_    0.611310 0.924321 0.208783 0.215066
O60   O     O_3   0.442339 0.956245 0.755494 -0.559781
C140  C     C_3   0.399320 0.957292 0.786989 -0.230024
H46   H     H_    0.392934 0.974664 0.750112 0.135790
H47   H     H_    0.381736 0.971054 0.844032 0.167806
H48   H     H_    0.388150 0.925040 0.791814 0.215256
N5    N     N_R   0.706397 0.469276 0.899071 0.145607
O61   O     O_R   0.723493 0.471735 0.936064 -0.311161
O62   O     O_R   0.672082 0.448357 0.928062 -0.329973
N6    N     N_R   0.293523 0.465859 0.102837 0.144590
O63   O     O_R   0.276588 0.468126 0.065551 -0.313588
O64   O     O_R   0.327710 0.444817 0.074436 -0.327145
N7    N     N_R   0.206396 0.969365 0.899126 0.145456
O65   O     O_R   0.223491 0.971869 0.936116 -0.311336
O66   O     O_R   0.172081 0.948442 0.928155 -0.330090
N8    N     N_R   0.793547 0.965781 0.103419 0.145057
O67   O     O_R   0.776457 0.966430 0.066303 -0.312888
O68   O     O_R   0.827821 0.945048 0.076036 -0.330727
N9    N     N_R   0.708372 0.530408 0.684686 0.147855
O69   O     O_R   0.673873 0.551158 0.724084 -0.311681
O70   O     O_R   0.726524 0.528050 0.612665 -0.279855
N10   N     N_R   0.291799 0.525704 0.317605 0.147335
O71   O     O_R   0.325910 0.508246 0.301887 -0.312786
O72   O     O_R   0.274132 0.553188 0.370856 -0.283183
N11   N     N_R   0.208373 0.030324 0.684632 0.147969
O73   O     O_R   0.173875 0.051079 0.723992 -0.310503
O74   O     O_R   0.226524 0.027922 0.612616 -0.279629
N12   N     N_R   0.791685 0.033958 0.312839 0.147920
O75   O     O_R   0.826225 0.054494 0.271861 -0.316303
O76   O     O_R   0.773523 0.033424 0.384971 -0.280221
O77   O     O_3   0.027839 0.707226 0.867951 -0.585434
C141  C     C_3   0.071573 0.707359 0.822134 -0.268381
H49   H     H_    0.084753 0.692199 0.850611 0.174458
H50   H     H_    0.084058 0.739368 0.804402 0.178541
H51   H     H_    0.081988 0.689288 0.770814 0.204133
O78   O     O_3   0.972261 0.707173 0.131945 -0.586231
C142  C     C_3   0.928526 0.707105 0.177649 -0.267058
H52   H     H_    0.915449 0.691859 0.149061 0.174786
H53   H     H_    0.915920 0.739062 0.195415 0.178562
H54   H     H_    0.918133 0.689008 0.228951 0.204689
O79   O     O_3   0.527747 0.207222 0.868000 -0.585557
C143  C     C_3   0.571479 0.207400 0.822051 -0.268053
H55   H     H_    0.584735 0.192298 0.850444 0.174457
H56   H     H_    0.583922 0.239417 0.804247 0.178598
H57   H     H_    0.581857 0.189298 0.770777 0.204190
O80   O     O_3   0.472335 0.207169 0.131919 -0.586296
C144  C     C_3   0.428601 0.207201 0.177796 -0.265949
H58   H     H_    0.415412 0.192047 0.149326 0.174652
H59   H     H_    0.416079 0.239180 0.195632 0.179203
H60   H     H_    0.418239 0.189070 0.229049 0.204596
N13   N     N_R   0.994885 0.294066 0.118984 0.167201
O81   O     O_R   0.967328 0.323052 0.155061 -0.276162
O82   O     O_R   0.020707 0.285539 0.137205 -0.258879
N14   N     N_R   0.005921 0.294191 0.880198 0.177447
O83   O     O_R   0.979651 0.323440 0.893221 -0.312791
O84   O     O_R   0.035618 0.285527 0.811418 -0.235443
N15   N     N_R   0.503773 0.794093 0.110194 0.167118
O85   O     O_R   0.477091 0.823146 0.150025 -0.282492
O86   O     O_R   0.532862 0.785546 0.120360 -0.258681
N16   N     N_R   0.497007 0.794168 0.889127 0.176220
O87   O     O_R   0.469838 0.823401 0.907672 -0.314482
O88   O     O_R   0.523496 0.785499 0.818747 -0.238248
N17   N     N_R   0.934902 0.550946 0.378575 0.156019
O89   O     O_R   0.913997 0.584139 0.385568 -0.276372
O90   O     O_R   0.919299 0.526901 0.436773 -0.375069
N18   N     N_R   0.065601 0.550362 0.620846 0.155740
O91   O     O_R   0.086846 0.583359 0.613483 -0.275898
O92   O     O_R   0.080943 0.526175 0.562907 -0.375866
N19   N     N_R   0.434852 0.050883 0.378629 0.155992
O93   O     O_R   0.413914 0.084055 0.385657 -0.276125
O94   O     O_R   0.419275 0.026822 0.436802 -0.375160
N20   N     N_R   0.565505 0.050484 0.620954 0.155768
O95   O     O_R   0.586686 0.083522 0.613658 -0.276417
O96   O     O_R   0.580897 0.026325 0.562968 -0.375558
N21   N     N_R   0.504410 0.705663 0.109476 0.172982
O97   O     O_R   0.531685 0.676514 0.090696 -0.299560
O98   O     O_R   0.478074 0.714359 0.179896 -0.243097
N22   N     N_R   0.497464 0.705733 0.888593 0.171724
O99   O     O_R   0.524071 0.676591 0.848953 -0.290760
O100  O     O_R   0.468515 0.714422 0.878126 -0.252113
N23   N     N_R   0.995522 0.205645 0.118352 0.173400
O101  O     O_R   0.021928 0.176502 0.105107 -0.298900
O102  O     O_R   0.965957 0.214331 0.187211 -0.240203
N24   N     N_R   0.006387 0.205749 0.879707 0.172130
O103  O     O_R   0.033785 0.176593 0.843950 -0.290587
O104  O     O_R   0.980755 0.214457 0.861127 -0.250911
N25   N     N_R   0.930355 0.539625 0.259359 0.134411
O105  O     O_R   0.919046 0.560178 0.221851 -0.322873
O106  O     O_R   0.902847 0.515748 0.313073 -0.257246
N26   N     N_R   0.070053 0.539032 0.740147 0.134818
O107  O     O_R   0.081617 0.559574 0.777274 -0.322691
O108  O     O_R   0.097298 0.514860 0.686747 -0.258089
N27   N     N_R   0.430316 0.039561 0.259404 0.134473
O109  O     O_R   0.418982 0.060114 0.221936 -0.322760
O110  O     O_R   0.402834 0.015651 0.313087 -0.257212
N28   N     N_R   0.569973 0.039157 0.740243 0.134829
O111  O     O_R   0.581488 0.059703 0.777443 -0.322773
O112  O     O_R   0.597270 0.015046 0.686784 -0.257229
O113  O     O_3   0.996271 0.574174 0.185384 -0.616295
C145  C     C_3   0.977468 0.613841 0.207577 -0.034552
H61   H     H_    0.000988 0.636810 0.198848 0.215124
H62   H     H_    0.950755 0.615966 0.266402 0.192081
H63   H     H_    0.967307 0.623062 0.170916 0.179909
O114  O     O_3   0.004482 0.574180 0.813792 -0.616489
C146  C     C_3   0.023658 0.613682 0.791153 -0.034815
H64   H     H_    0.000352 0.636845 0.799644 0.215544
H65   H     H_    0.050381 0.615561 0.732297 0.192095
H66   H     H_    0.033914 0.622840 0.827700 0.179569
O115  O     O_3   0.496198 0.074173 0.185460 -0.616347
C147  C     C_3   0.477359 0.113823 0.207695 -0.034498
H67   H     H_    0.500860 0.136814 0.198984 0.215236
H68   H     H_    0.450647 0.115923 0.266524 0.192116
H69   H     H_    0.467187 0.123036 0.171048 0.179856
O116  O     O_3   0.504336 0.074181 0.813944 -0.616510
C148  C     C_3   0.523443 0.113717 0.791387 -0.034771
H70   H     H_    0.500096 0.136841 0.799921 0.215535
H71   H     H_    0.550164 0.115648 0.732537 0.192073
H72   H     H_    0.533680 0.122889 0.827956 0.179631
N29   N     N_R   0.942251 0.441657 0.241149 0.184688
O117  O     O_R   0.948444 0.423045 0.182359 -0.321053
O118  O     O_R   0.907706 0.433622 0.305047 -0.241415
N30   N     N_R   0.057119 0.441155 0.759583 0.183124
O119  O     O_R   0.050689 0.422575 0.818588 -0.332459
O120  O     O_R   0.091600 0.432805 0.695800 -0.244688
N31   N     N_R   0.442323 0.941595 0.241062 0.184304
O121  O     O_R   0.448550 0.922965 0.182259 -0.322903
O122  O     O_R   0.407776 0.933541 0.304946 -0.243185
N32   N     N_R   0.557225 0.941253 0.759470 0.182296
O123  O     O_R   0.550825 0.922640 0.818427 -0.335804
O124  O     O_R   0.591729 0.932987 0.695671 -0.245953

loop_
_geom_bond_atom_site_label_1
_geom_bond_atom_site_label_2
_geom_bond_distance
_ccdc_geom_bond_type
C51   C55   1.420110 A    
C81   C85   1.206713 T    
O113  C145  1.416835 S    
C46   H24   1.113758 S    
C141  H51   1.109252 S    
O42   Cu9   1.936584 S    
H8    C46   1.110718 S    
C118  O77   1.382265 S    
N21   O97   1.301327 A    
C34   H16   1.103061 S    
C119  O80   1.382243 S    
C112  C119  1.405835 A    
C30   C46   1.548308 S    
C32   H14   1.103066 S    
N7    O65   1.301603 A    
C139  H45   1.109077 S    
C52   C56   1.419705 A    
C13   C16   1.411365 A    
O116  C148  1.416829 S    
C34   H12   1.112690 S    
C145  H63   1.108970 S    
N8    O67   1.301557 A    
O34   C103  1.304829 A    
C112  H34   1.083714 S    
N18   O91   1.301604 A    
N4    O56   1.302992 A    
O31   C102  1.284309 A    
O38   Cu10  1.942556 S    
C24   O114  1.437961 S    
O4    C4    1.284923 A    
Cu8   O32   1.940149 S    
O57   C137  1.411651 S    
C147  H67   1.109032 S    
Cu7   O31   1.940323 S    
N20   O95   1.301603 A    
Cu6   O30   1.940149 S    
O19   C94   1.285858 A    
C50   H20   1.115950 S    
C148  H72   1.109007 S    
C29   C37   1.563351 S    
C19   N1    1.492920 S    
N24   O103  1.301266 A    
O16   Cu4   1.984245 S    
C22   N4    1.492907 S    
O13   C5    1.288746 A    
O7    Cu4   1.941229 S    
O23   C97   1.278199 A    
C52   C72   1.405666 A    
O42   C106  1.302775 A    
N32   O124  1.302199 A    
C42   C46   1.568195 S    
O4    Cu2   1.939913 S    
C62   N12   1.441805 S    
C17   N16   1.438828 S    
O9    C5    1.275877 A    
C54   N8    1.441722 S    
C134  C136  1.411705 A    
C33   C49   1.545304 S    
C131  N21   1.438545 S    
N6    O64   1.301256 A    
C113  C118  1.405875 A    
O8    Cu4   1.941053 S    
N31   O121  1.300790 A    
C143  H55   1.113765 S    
C23   C39   1.597027 S    
O32   C102  1.284865 A    
C58   C78   1.448674 S    
O35   Cu11  1.940479 S    
C134  N24   1.438533 S    
O3    Cu2   1.939743 S    
C48   H18   1.115946 S    
N22   O99   1.301266 A    
O33   C103  1.304811 A    
C67   C71   1.395530 A    
C52   N6    1.441751 S    
C31   C35   1.567165 S    
C32   C36   1.567314 S    
N12   O76   1.301559 A    
O18   Cu6   1.940257 S    
N26   O107  1.302524 A    
C11   C91   1.207032 T    
C12   C92   1.207029 T    
O3    C3    1.284879 A    
Cu11  Cu12  2.705271 S    
C114  C116  1.399317 A    
O48   C110  1.301413 A    
N17   O89   1.301610 A    
C21   C25   1.616324 S    
C55   C59   1.419986 A    
O38   C106  1.303484 A    
C39   C43   1.568155 S    
O33   Cu9   1.940479 S    
C132  C135  1.411585 A    
O28   Cu7   1.981797 S    
N30   O119  1.300792 A    
C131  C135  1.411570 A    
C23   O113  1.437930 S    
N27   O109  1.302523 A    
H2    C28   1.113643 S    
C132  N22   1.438462 S    
C64   C68   1.395881 A    
C142  H53   1.112738 S    
C69   C73   1.395525 A    
C34   C50   1.545227 S    
C120  C122  1.408564 A    
C133  C136  1.411634 A    
C140  H46   1.112224 S    
C61   N11   1.441825 S    
C80   C84   1.207028 T    
C49   N31   1.476623 S    
O114  C146  1.416830 S    
H3    C29   1.113644 S    
N14   O83   1.301412 A    
C63   C67   1.395704 A    
C24   C40   1.597244 S    
C70   C82   1.441970 S    
N16   O88   1.301352 A    
O19   Cu7   1.940085 S    
C31   H9    1.112695 S    
O5    Cu3   1.941229 S    
C17   C132  1.412559 A    
N2    O52   1.302989 A    
C144  H59   1.112723 S    
C139  H44   1.112722 S    
O47   C110  1.301401 A    
C53   C73   1.405349 A    
C28   C36   1.563326 S    
C48   N30   1.476550 S    
C55   C75   1.448666 S    
N1    O49   1.301514 A    
C62   C66   1.405455 A    
C43   H21   1.113763 S    
C143  H57   1.109260 S    
C26   O116  1.437953 S    
O35   C104  1.304811 A    
C41   C49   1.578930 S    
C120  O79   1.382278 S    
N9    O69   1.301212 A    
C111  C115  1.399324 A    
Cu11  O47   1.940633 S    
N13   O82   1.301396 A    
C34   C38   1.567280 S    
O25   C95   1.287845 A    
O13   Cu3   1.984197 S    
O26   C96   1.287788 A    
N10   O71   1.301272 A    
O44   Cu11  1.936584 S    
C20   N18   1.495296 S    
C119  C122  1.408574 A    
N19   O94   1.301543 A    
C138  H42   1.109076 S    
O17   Cu5   1.940085 S    
C19   C23   1.616330 S    
O36   Cu12  1.940532 S    
O21   C95   1.278188 A    
C126  C128  1.207897 T    
O5    C1    1.284667 A    
C33   C37   1.567197 S    
C114  H36   1.083712 S    
O8    C4    1.284625 A    
C90   C108  1.436778 S    
C25   O115  1.437932 S    
O77   C141  1.409803 S    
C124  C130  1.207961 T    
N3    O54   1.302991 A    
O22   Cu6   1.986546 S    
C9    C99   1.206432 T    
C145  H62   1.103186 S    
O15   Cu4   1.984197 S    
N5    O62   1.301190 A    
C10   C100  1.206417 T    
C23   N25   1.493736 S    
C65   H31   1.083913 S    
C117  O78   1.382213 S    
C1    C83   1.436233 S    
Cu9   Cu10  2.705271 S    
C57   C77   1.448666 S    
O10   C6    1.275898 A    
C146  H66   1.109016 S    
C4    C86   1.436235 S    
C64   H30   1.083912 S    
H25   C71   1.083998 S    
C57   C61   1.419976 A    
C137  H37   1.112230 S    
C16   N13   1.438624 S    
O23   Cu7   1.986543 S    
O14   C6    1.288714 A    
C94   C128  1.438269 S    
O24   C98   1.278226 A    
C50   N32   1.476550 S    
C40   C44   1.568199 S    
O60   C140  1.411657 S    
C54   C74   1.405348 A    
C140  H48   1.109075 S    
O41   C105  1.302418 A    
C8    C38   1.492707 S    
C115  C123  1.443362 S    
N28   O112  1.299747 A    
C28   C44   1.548306 S    
O44   C108  1.302422 A    
C15   C134  1.412639 A    
C7    C37   1.492731 S    
C76   C88   1.207997 T    
Cu10  O46   1.940581 S    
C104  C130  1.438498 S    
C13   C15   1.411507 A    
C10   C102  1.435012 S    
N8    O68   1.301203 A    
C147  H69   1.108974 S    
C12   C110  1.436162 S    
C78   C90   1.207732 T    
H5    C43   1.110723 S    
N29   O118  1.302201 A    
C20   C24   1.616321 S    
C65   C69   1.395703 A    
N18   O92   1.301529 A    
N28   O111  1.302524 A    
N11   O73   1.301210 A    
C25   C41   1.597055 S    
C91   C135  1.448885 S    
C18   C131  1.412514 A    
C137  H39   1.109075 S    
O2    C2    1.285158 A    
C47   H17   1.115924 S    
O43   Cu12  1.936589 S    
C14   C17   1.411390 A    
O20   Cu8   1.940257 S    
N3    O53   1.301513 A    
O41   Cu10  1.936589 S    
C40   C48   1.578725 S    
C147  H68   1.103189 S    
C138  H40   1.112222 S    
C47   N29   1.476630 S    
C53   N7    1.441785 S    
N20   O96   1.301532 A    
H1    C27   1.113647 S    
C31   C47   1.545314 S    
C148  H71   1.103200 S    
O78   C142  1.409777 S    
N24   O104  1.301416 A    
C77   C89   1.207734 T    
C33   H11   1.112694 S    
H7    C45   1.110723 S    
C141  H49   1.113749 S    
C22   C26   1.616324 S    
O37   C105  1.303561 A    
C51   N5    1.441793 S    
Cu5   Cu6   2.645393 S    
O26   Cu5   1.981797 S    
C16   C133  1.412439 A    
C28   O58   1.423933 S    
O39   Cu11  1.942556 S    
C146  H64   1.109036 S    
O40   C108  1.303559 A    
N25   O106  1.299756 A    
O37   Cu9   1.942556 S    
Cu12  O48   1.940581 S    
O29   C101  1.284309 A    
N15   O85   1.301298 A    
C68   C80   1.442482 S    
C121  C125  1.447227 S    
C59   C63   1.405460 A    
C143  H56   1.112716 S    
N21   O98   1.301360 A    
O12   Cu2   1.983931 S    
C18   N15   1.438626 S    
H4    C30   1.113643 S    
C111  C120  1.405885 A    
O1    C1    1.284879 A    
H27   C73   1.083994 S    
N2    O51   1.301518 A    
C142  H52   1.113751 S    
C26   C42   1.597197 S    
C49   H19   1.115933 S    
C113  C116  1.399332 A    
C33   H15   1.103039 S    
O58   C138  1.411660 S    
O40   Cu12  1.942556 S    
C60   C64   1.405667 A    
C103  C129  1.438488 S    
O79   C143  1.409813 S    
O18   C93   1.285876 A    
C27   C43   1.548234 S    
N23   O101  1.301358 A    
C41   C45   1.568159 S    
C2    C84   1.436770 S    
N26   O108  1.299748 A    
N4    O55   1.301518 A    
C114  C117  1.405800 A    
N22   O100  1.301360 A    
C13   C99   1.448056 S    
O27   C97   1.287829 A    
C56   C60   1.419609 A    
C14   C100  1.448048 S    
N30   O120  1.302201 A    
C21   N3    1.492920 S    
C92   C136  1.448866 S    
O20   C94   1.285882 A    
C87   C105  1.436782 S    
C24   N26   1.493786 S    
O6    C2    1.284668 A    
O36   C104  1.304832 A    
N27   O110  1.299751 A    
C116  C124  1.443365 S    
N32   O123  1.300801 A    
C26   N28   1.493777 S    
N19   O93   1.301610 A    
C19   N17   1.495338 S    
C39   C47   1.578965 S    
C112  C115  1.399314 A    
N14   O84   1.301407 A    
O2    Cu1   1.939913 S    
O10   Cu1   1.983931 S    
C5    C35   1.492727 S    
C6    C36   1.492704 S    
C3    C85   1.436236 S    
H28   C74   1.083936 S    
N6    O63   1.301627 A    
C32   H10   1.112686 S    
C144  H58   1.113763 S    
C30   O60   1.423932 S    
O24   Cu8   1.986546 S    
O34   Cu10  1.940532 S    
H6    C44   1.110720 S    
O17   C93   1.285862 A    
O22   C96   1.278217 A    
C29   O59   1.423930 S    
Cu7   Cu8   2.645393 S    
N11   O74   1.301596 A    
C88   C106  1.437328 S    
O15   C7    1.288736 A    
O115  C147  1.416828 S    
C89   C107  1.436779 S    
C20   N2    1.492906 S    
N13   O81   1.301255 A    
C133  N23   1.438628 S    
O7    C3    1.284667 A    
N10   O72   1.301620 A    
C79   C83   1.206713 T    
N12   O75   1.301175 A    
C138  H41   1.112720 S    
C25   N27   1.493743 S    
C15   N14   1.438937 S    
C30   C38   1.563343 S    
O16   C8    1.288735 A    
N17   O90   1.301546 A    
C56   C76   1.449282 S    
O45   C109  1.301377 A    
N5    O61   1.301607 A    
O43   C107  1.302418 A    
C61   C65   1.405461 A    
C42   C50   1.578751 S    
O11   C7    1.275890 A    
O12   C8    1.275880 A    
O1    Cu1   1.939743 S    
C146  H65   1.103203 S    
O9    Cu1   1.983987 S    
C75   C87   1.207734 T    
C122  C126  1.447237 S    
C142  H54   1.109269 S    
C53   C57   1.420102 A    
O30   C101  1.284877 A    
C137  H38   1.112724 S    
N15   O86   1.301344 A    
C22   N20   1.495304 S    
H26   C72   1.083980 S    
C140  H47   1.112720 S    
C117  C121  1.408581 A    
O11   Cu2   1.983987 S    
C21   C37   1.614596 S    
C111  H33   1.083713 S    
C27   C35   1.563342 S    
C70   C74   1.395478 A    
Cu5   O29   1.940323 S    
N31   O122  1.302199 A    
N16   O87   1.301371 A    
C45   H23   1.113764 S    
C67   C79   1.441971 S    
O6    Cu3   1.941053 S    
C113  H35   1.083709 S    
C144  H60   1.109271 S    
C139  H43   1.112227 S    
O46   C109  1.301442 A    
C123  C129  1.207961 T    
C44   H22   1.113751 S    
N1    O50   1.302992 A    
N29   O117  1.300771 A    
C66   H32   1.083857 S    
O80   C144  1.409793 S    
N23   O102  1.301421 A    
C42   C98   1.495695 S    
O21   Cu5   1.986543 S    
N9    O70   1.301600 A    
C29   C45   1.548253 S    
O59   C139  1.411649 S    
C59   N9    1.441832 S    
C51   C71   1.405349 A    
C58   C62   1.419906 A    
C39   C95   1.495685 S    
N7    O66   1.301190 A    
C40   C96   1.495704 S    
C14   C18   1.411307 A    
O14   Cu3   1.984245 S    
C9    C101  1.435037 S    
C118  C121  1.408562 A    
O39   C107  1.303561 A    
O27   Cu8   1.981798 S    
C82   C86   1.206710 T    
O25   Cu6   1.981798 S    
Cu1   Cu3   2.644251 S    
C19   C35   1.614614 S    
Cu2   Cu4   2.644251 S    
C20   C36   1.614513 S    
C21   N19   1.495335 S    
C125  C127  1.207894 T    
C148  H70   1.109036 S    
C32   C48   1.545224 S    
Cu9   O45   1.940633 S    
C41   C97   1.495678 S    
C54   C58   1.420030 A    
C141  H50   1.112720 S    
C145  H61   1.109032 S    
C11   C109  1.436173 S    
O28   C98   1.287781 A    
C66   C70   1.395670 A    
C27   O57   1.423933 S    
C22   C38   1.614544 S    
C63   H29   1.083920 S    
C93   C127  1.438259 S    
C69   C81   1.441971 S    
N25   O105  1.302526 A    
C60   N10   1.441721 S    
C68   C72   1.395831 A    
C31   H13   1.103035 S    
