data_mof_unit_14515.cif
_audit_creation_date              2012-10-26T20:03:45-0400
_audit_creation_method            fapswitch 2.2
_symmetry_space_group_name_H-M    P1
_symmetry_Int_Tables_number       1
_space_group_crystal_system       triclinic
_cell_length_a                    12.323983
_cell_length_b                    13.044905
_cell_length_c                    15.840779
_cell_angle_alpha                 77.82945
_cell_angle_beta                  101.041873
_cell_angle_gamma                 116.266269
_cell_volume                      2218.30983138

loop_
_atom_site_label
_atom_site_type_symbol
_atom_type_description
_atom_site_fract_x
_atom_site_fract_y
_atom_site_fract_z
_atom_type_partial_charge
C1    C     C_R   0.855227 0.285311 0.505302 0.526144
C2    C     C_R   0.226664 0.836985 0.473259 -0.007128
C3    C     C_R   0.818526 0.072099 0.535960 -0.008426
C4    C     C_R   0.999444 0.499837 0.659959 0.551248
C5    C     C_R   0.733511 0.956483 0.548398 -0.110670
C6    C     C_R   0.609899 0.926172 0.530114 -0.132905
C7    C     C_R   0.564369 0.009254 0.492658 0.029068
C8    C     C_R   0.648434 0.124854 0.470316 0.013483
C9    C     C_R   0.437467 0.979405 0.472757 0.032935
C10   C     C_R   0.396239 0.061030 0.421497 0.050527
C11   C     C_R   0.480489 0.170209 0.390757 -0.136397
C12   C     C_3   0.998465 0.499434 0.916879 0.034888
C13   C     C_R   0.604362 0.200893 0.413286 -0.117111
C14   C     C_R   0.350092 0.869885 0.501754 -0.135000
C15   C     C_R   0.186609 0.918494 0.423320 -0.143547
C16   C     C_R   0.144768 0.714099 0.488257 0.546384
C17   C     C_R   0.774357 0.159670 0.502538 -0.008945
C18   C     C_R   0.349170 0.331417 0.640554 -0.141466
C19   C     C_R   0.759691 0.646365 0.383423 0.049786
C20   C     C_R   0.663384 0.678691 0.357946 -0.158901
C21   C     C_R   0.559840 0.623406 0.401683 -0.136702
C22   C     C_R   0.551538 0.534813 0.472180 -0.007049
C23   C     C_3   0.112400 0.529124 0.039717 -0.120248
C24   C     C_R   0.653198 0.505237 0.496409 0.176571
C25   C     C_R   0.447229 0.475349 0.519976 -0.013886
C26   C     C_R   0.448084 0.389520 0.591516 0.038072
C27   C     C_R   0.547875 0.362423 0.614248 -0.138653
C28   C     C_R   0.000355 0.499920 0.340006 0.546677
C29   C     C_R   0.647838 0.418741 0.567776 -0.077215
C30   C     C_R   0.341405 0.497036 0.500506 0.042460
C31   C     C_R   0.248753 0.357425 0.618477 0.038992
C32   C     C_3   0.925802 0.392033 0.035674 -0.082897
C33   C     C_3   0.886093 0.469271 0.960831 0.319779
C34   C     C_3   0.998161 0.498468 0.082776 0.006767
C35   C     C_1   0.998645 0.499918 0.749530 0.001773
C36   C     C_1   0.000319 0.499055 0.250361 -0.025698
C37   C     C_3   0.040134 0.422955 0.990932 -0.145998
C38   C     C_3   0.954578 0.100868 0.556906 -0.239162
C39   C     C_3   0.990410 0.998352 0.576372 -0.323366
C40   C     C_3   0.128567 0.039789 0.589164 -0.442767
C41   C     C_3   0.070468 0.605532 0.964321 -0.145522
C42   C     C_3   0.956222 0.575112 0.008984 -0.082443
C43   C     C_1   0.998505 0.499816 0.825112 0.002982
C44   C     C_1   0.999392 0.498571 0.174669 -0.044109
C45   C     C_R   0.271095 0.030698 0.398648 -0.137257
Cu1   Cu    Cu3+1 0.098270 0.475420 0.519690 0.921989
Cu2   Cu    Cu3+1 0.901730 0.524580 0.480310 0.925813
H1    H     H_    0.375709 0.807371 0.546111 0.125126
H2    H     H_    0.865527 0.304771 0.065694 0.135874
H3    H     H_    0.488283 0.652219 0.379356 0.101992
H4    H     H_    0.669042 0.746910 0.304111 0.108867
H5    H     H_    0.719360 0.391716 0.590896 0.190284
H6    H     H_    0.920646 0.636649 0.017314 0.136633
H7    H     H_    0.129975 0.692868 0.933914 0.124009
H8    H     H_    0.206042 0.553855 0.073779 0.126900
H9    H     H_    0.074857 0.360924 0.982291 0.123100
H10   H     H_    0.090941 0.894698 0.401175 0.123446
H11   H     H_    0.450675 0.231789 0.348017 0.114505
H12   H     H_    0.552595 0.834974 0.541479 0.110071
H13   H     H_    0.238957 0.092563 0.359166 0.108164
H14   H     H_    0.558442 0.381379 0.945535 0.365752
H15   H     H_    0.169498 0.098248 0.530712 0.162040
H16   H     H_    0.168064 0.086110 0.646603 0.147467
H17   H     H_    0.151520 0.964362 0.600330 0.162443
H18   H     H_    0.954221 0.942148 0.636961 0.171681
H19   H     H_    0.952875 0.947108 0.521383 0.167378
H20   H     H_    0.000646 0.157442 0.499566 0.174711
H21   H     H_    0.990218 0.147665 0.614203 0.161300
H22   H     H_    0.760668 0.886761 0.573997 0.126373
H23   H     H_    0.664451 0.282965 0.381307 0.159429
H24   H     H_    0.172619 0.313535 0.656588 0.118258
H25   H     H_    0.548985 0.296813 0.668945 0.149314
H26   H     H_    0.349776 0.266545 0.695881 0.104480
H27   H     H_    0.332539 0.560236 0.447013 0.120440
H28   H     H_    0.839694 0.689865 0.349103 0.127858
N1    N     N_R   0.246280 0.438200 0.549540 -0.232989
N2    N     N_R   0.754330 0.561180 0.450980 -0.236811
O1    O     O_R   0.972510 0.318130 0.524770 -0.514579
O2    O     O_2   0.698541 0.322901 0.866267 -0.301422
O3    O     O_3   0.639705 0.402643 0.979593 -0.527607
O4    O     O_R   0.806530 0.359650 0.491510 -0.527742
O5    O     O_R   0.082970 0.479240 0.637550 -0.495854
O6    O     O_R   0.916990 0.520750 0.604290 -0.499820
O7    O     O_R   0.193470 0.640350 0.508490 -0.504356
O8    O     O_R   0.027490 0.681870 0.475230 -0.505598
O9    O     O_R   0.083010 0.479250 0.395710 -0.500960
O10   O     O_R   0.917030 0.520760 0.362450 -0.502373
O11   O     O_2   0.731815 0.526559 0.837555 -0.286082
S1    S     S_3+6 0.735418 0.429432 0.906905 -0.004570

loop_
_geom_bond_atom_site_label_1
_geom_bond_atom_site_label_2
_ccdc_geom_bond_type
C45   H13   S    
C8    C13   A    
C27   C29   A    
C15   H10   S    
C41   C42   S    
C19   C20   A    
C18   C26   A    
Cu1   N1    S    
C7    C8    A    
C26   C27   A    
C40   H16   S    
C33   C42   S    
Cu2   O8    S    
C12   C43   S    
C42   H6    S    
C5    C6    A    
C30   H27   S    
C13   H23   S    
H14   O3    S    
C1    O4    A    
C16   O7    A    
C40   H15   S    
O3    S1    S    
C19   N2    A    
C24   C29   A    
C5    H22   S    
Cu1   O5    S    
C37   H9    S    
C3    C38   S    
C22   C25   A    
C34   C42   S    
Cu2   O6    S    
C11   H11   S    
C2    C16   S    
C9    C10   A    
C31   H24   S    
C4    C35   S    
C21   C22   A    
C1    O1    A    
C39   H18   S    
C28   O10   A    
C21   H3    S    
C41   H7    S    
C34   C44   S    
C38   H20   S    
C39   C40   S    
Cu1   O1    S    
C14   H1    S    
C25   C26   A    
C23   C37   S    
C32   C34   S    
C9    C14   A    
C12   C41   S    
C33   S1    S    
C30   N1    A    
C23   C34   S    
C10   C45   A    
C32   C37   S    
C20   C21   A    
C2    C15   A    
Cu1   O7    S    
C38   H21   S    
C18   H26   S    
C28   O9    A    
C16   O8    A    
C39   H19   S    
C22   C24   A    
C36   C44   T    
C15   C45   A    
C35   C43   T    
C25   C30   A    
C7    C9    A    
Cu1   Cu2   S    
C6    H12   S    
C3    C5    A    
C40   H17   S    
C23   H8    S    
C6    C7    A    
C20   H4    S    
C1    C17   S    
C8    C17   A    
C23   C41   S    
C32   C33   S    
C19   H28   S    
C11   C13   A    
C31   N1    A    
C38   C39   S    
C4    O6    A    
C3    C17   A    
Cu2   O4    S    
C2    C14   A    
C32   H2    S    
O2    S1    D    
C10   C11   A    
C24   N2    A    
C4    O5    A    
O11   S1    D    
C28   C36   S    
C12   C37   S    
Cu2   N2    S    
C18   C31   A    
C12   C33   S    
C27   H25   S    
Cu2   O10   S    
Cu1   O9    S    
C29   H5    S    
