data_mof_unit_40010.cif
_audit_creation_date              2012-12-11T14:15:04-0500
_audit_creation_method            fapswitch 2.2
_symmetry_space_group_name_H-M    P1
_symmetry_Int_Tables_number       1
_space_group_crystal_system       triclinic
_cell_length_a                    24.517611
_cell_length_b                    17.301046
_cell_length_c                    15.698297
_cell_angle_alpha                 90.001904
_cell_angle_beta                  129.610102
_cell_angle_gamma                 90.000342
_cell_volume                      5130.02878613

loop_
_atom_site_label
_atom_site_type_symbol
_atom_type_description
_atom_site_fract_x
_atom_site_fract_y
_atom_site_fract_z
_atom_type_partial_charge
C1    C     C_R   0.332601 0.397025 0.196485 -0.023584
C2    C     C_R   0.687175 0.610841 0.506292 -0.075866
C3    C     C_R   0.812839 0.110856 0.493729 -0.075790
C4    C     C_R   0.187188 0.110876 0.506360 -0.075882
C5    C     C_R   0.382009 0.683558 0.211695 0.073957
C6    C     C_R   0.618001 0.683551 0.788332 0.073948
C7    C     C_R   0.881978 0.183521 0.211619 0.073969
C8    C     C_R   0.118000 0.183552 0.788330 0.073953
C9    C     C_2   0.744801 0.641746 0.426258 0.343011
C10   C     C_2   0.255207 0.641773 0.573766 0.343034
C11   C     C_2   0.244908 0.141693 0.426467 0.342871
C12   C     C_R   0.667395 0.397014 0.803503 -0.023588
C13   C     C_2   0.755222 0.141786 0.573775 0.343039
C14   C     C_2   0.750163 0.627089 0.515583 0.409447
C15   C     C_2   0.249853 0.627076 0.484457 0.409312
C16   C     C_2   0.250196 0.127203 0.515754 0.409787
C17   C     C_2   0.749859 0.127082 0.484462 0.409388
C18   C     C_2   0.293373 0.199879 0.437852 0.456285
C19   C     C_2   0.706638 0.199869 0.562223 0.456590
C20   C     C_2   0.793345 0.699862 0.437749 0.456559
C21   C     C_2   0.206606 0.699836 0.562197 0.456651
C22   C     C_2   0.306319 0.264972 0.495657 -0.243849
C23   C     C_R   0.832601 0.897025 0.196486 -0.023550
C24   C     C_2   0.693574 0.264892 0.504240 -0.244193
C25   C     C_2   0.806409 0.764894 0.495731 -0.244218
C26   C     C_2   0.193538 0.764858 0.504219 -0.244187
C27   C     C_2   0.692339 0.349254 0.978979 -0.184306
C28   C     C_2   0.307650 0.349271 0.020993 -0.184350
C29   C     C_2   0.192361 0.849312 0.979028 -0.184361
C30   C     C_2   0.807650 0.849280 0.020989 -0.184333
C31   C     C_2   0.762647 0.348291 0.040448 -0.065574
C32   C     C_2   0.237345 0.348322 0.959520 -0.065604
C33   C     C_2   0.262663 0.848311 0.040471 -0.065546
C34   C     C_R   0.167404 0.897043 0.803525 -0.023494
C35   C     C_2   0.737343 0.848324 0.959516 -0.065577
C36   C     C_2   0.355807 0.755401 0.148374 -0.100655
C37   C     C_2   0.644206 0.755395 0.851654 -0.100630
C38   C     C_2   0.855762 0.255348 0.148276 -0.100681
C39   C     C_2   0.144209 0.255394 0.851659 -0.100650
C40   C     C_R   0.597198 0.366248 0.407754 -0.169022
C41   C     C_R   0.402760 0.366273 0.592225 -0.168958
C42   C     C_R   0.097180 0.866231 0.407747 -0.168892
C43   C     C_R   0.902797 0.866245 0.592236 -0.169089
C44   C     C_2   0.303700 0.795271 0.133473 -0.129426
C45   C     C_R   0.383008 0.598649 0.587407 -0.140858
C46   C     C_2   0.696298 0.795276 0.866517 -0.129439
C47   C     C_2   0.803687 0.295241 0.133431 -0.129492
C48   C     C_2   0.196295 0.295279 0.866516 -0.129464
C49   C     C_R   0.673906 0.368494 0.592435 0.521251
C50   C     C_R   0.326065 0.368522 0.407539 0.521225
C51   C     C_R   0.173879 0.868460 0.592430 0.521267
C52   C     C_R   0.826091 0.868491 0.407553 0.521234
C53   C     C_R   0.575971 0.392024 0.800153 -0.114105
C54   C     C_R   0.424023 0.392032 0.199833 -0.114178
C55   C     C_R   0.075981 0.892045 0.800174 -0.114186
C56   C     C_R   0.617001 0.598644 0.412604 -0.140921
C57   C     C_R   0.924021 0.892037 0.199830 -0.114222
C58   C     C_R   0.353184 0.375365 0.135900 0.116669
C59   C     C_R   0.646809 0.375352 0.864080 0.116697
C60   C     C_R   0.853183 0.875371 0.135898 0.116699
C61   C     C_R   0.146823 0.875390 0.864114 0.116674
C62   C     C_R   0.654840 0.329065 0.500967 0.083017
C63   C     C_R   0.345095 0.329113 0.498989 0.082959
C64   C     C_R   0.154806 0.829028 0.500955 0.082965
C65   C     C_R   0.845152 0.829059 0.499014 0.083042
C66   C     C_R   0.310389 0.595715 0.405665 0.455792
C67   C     C_R   0.883009 0.098650 0.587408 -0.140802
C68   C     C_R   0.689614 0.595713 0.594345 0.455842
C69   C     C_R   0.810390 0.095721 0.405665 0.455832
C70   C     C_R   0.189613 0.095723 0.594380 0.455757
C71   C     C_R   0.438606 0.640551 0.238499 0.500717
C72   C     C_R   0.561401 0.640547 0.761518 0.500724
C73   C     C_R   0.938586 0.140524 0.238450 0.500733
C74   C     C_R   0.061399 0.140548 0.761515 0.500720
C75   C     C_R   0.649228 0.641381 0.753977 -0.264439
C76   C     C_R   0.350778 0.641386 0.246041 -0.264433
C77   C     C_R   0.149228 0.141381 0.753977 -0.264504
C78   C     C_R   0.117016 0.098688 0.412638 -0.141215
C79   C     C_R   0.850758 0.141364 0.245994 -0.264448
C80   C     C_R   0.312835 0.610849 0.493728 -0.075734
Cl1   Cl    Cl    0.329103 0.183948 0.370797 -0.566155
Cl2   Cl    Cl    0.671033 0.183985 0.629473 -0.566118
Cl3   Cl    Cl    0.828937 0.683975 0.370477 -0.566052
Cl4   Cl    Cl    0.170988 0.683928 0.629419 -0.566086
Cl5   Cl    Cl    0.758388 0.365092 0.722978 -0.622693
Cl6   Cl    Cl    0.241598 0.365136 0.276975 -0.622735
Cl7   Cl    Cl    0.258340 0.865011 0.722985 -0.622772
Cl8   Cl    Cl    0.741610 0.865090 0.277006 -0.622702
H1    H     H_    0.278996 0.406005 0.163464 0.152573
H2    H     H_    0.716554 0.779270 0.824422 0.141508
H3    H     H_    0.783449 0.279257 0.175552 0.141554
H4    H     H_    0.216539 0.279284 0.824403 0.141513
H5    H     H_    0.788354 0.374308 0.011333 0.147793
H6    H     H_    0.211644 0.374343 0.988643 0.147799
H7    H     H_    0.288362 0.874288 0.011321 0.147793
H8    H     H_    0.711640 0.874343 0.988638 0.147785
H9    H     H_    0.374816 0.771629 0.104393 0.187368
H10   H     H_    0.625207 0.771625 0.895650 0.187371
H11   H     H_    0.874743 0.271558 0.104257 0.187378
H12   H     H_    0.721002 0.405980 0.836518 0.152572
H13   H     H_    0.125224 0.271612 0.895675 0.187375
H14   H     H_    0.667381 0.322074 0.008900 0.147833
H15   H     H_    0.332604 0.322083 0.991068 0.147836
H16   H     H_    0.167406 0.822166 0.008976 0.147821
H17   H     H_    0.832605 0.822097 0.991064 0.147818
H18   H     H_    0.571565 0.353155 0.322426 0.141811
H19   H     H_    0.428376 0.353188 0.677548 0.141856
H20   H     H_    0.071545 0.853139 0.322419 0.141804
H21   H     H_    0.928427 0.853154 0.677561 0.141834
H22   H     H_    0.545529 0.393518 0.828156 0.102117
H23   H     H_    0.778995 0.906001 0.163469 0.152558
H24   H     H_    0.454463 0.393530 0.171826 0.102120
H25   H     H_    0.045542 0.893548 0.828182 0.102114
H26   H     H_    0.954461 0.893538 0.171823 0.102130
H27   H     H_    0.695673 0.656923 0.764223 0.155367
H28   H     H_    0.304338 0.656931 0.235806 0.155346
H29   H     H_    0.195674 0.156922 0.764229 0.155378
H30   H     H_    0.804310 0.156899 0.235738 0.155381
H31   H     H_    0.401283 0.591076 0.669690 0.206155
H32   H     H_    0.598725 0.591101 0.330312 0.206134
H33   H     H_    0.901280 0.091073 0.669689 0.206166
H34   H     H_    0.221010 0.906041 0.836550 0.152532
H35   H     H_    0.098748 0.091257 0.330332 0.206153
H36   H     H_    0.807052 0.666067 0.666035 0.348390
H37   H     H_    0.192925 0.665992 0.333992 0.348435
H38   H     H_    0.306882 0.166371 0.666101 0.348269
H39   H     H_    0.692925 0.166001 0.333999 0.348423
H40   H     H_    0.264191 0.546720 0.264499 0.330455
H41   H     H_    0.735801 0.546698 0.735491 0.330449
H42   H     H_    0.764190 0.046702 0.264513 0.330457
H43   H     H_    0.235788 0.046678 0.735502 0.330428
H44   H     H_    0.487602 0.601634 0.190787 0.306970
H45   H     H_    0.284444 0.273671 0.537131 0.121398
H46   H     H_    0.512391 0.601620 0.809201 0.306980
H47   H     H_    0.987611 0.101581 0.190801 0.306966
H48   H     H_    0.012392 0.101626 0.809204 0.306973
H49   H     H_    0.691497 0.635540 0.267817 0.371989
H50   H     H_    0.308489 0.635701 0.732182 0.372018
H51   H     H_    0.191855 0.135010 0.268152 0.371887
H52   H     H_    0.808495 0.135680 0.732182 0.372018
H53   H     H_    0.715351 0.273525 0.462608 0.121253
H54   H     H_    0.784635 0.773538 0.537370 0.121304
H55   H     H_    0.215323 0.773502 0.462603 0.121276
H56   H     H_    0.283438 0.779271 0.175560 0.141523
N1    N     N_R   0.389060 0.424180 0.294540 -0.053324
N2    N     N_R   0.374530 0.423490 0.443400 -0.101573
N3    N     N_R   0.125470 0.923490 0.556600 -0.101591
N4    N     N_R   0.874530 0.923490 0.443400 -0.101592
N5    N     N_R   0.555250 0.423100 0.705420 -0.045733
N6    N     N_R   0.444750 0.423100 0.294580 -0.045726
N7    N     N_R   0.055250 0.923100 0.705420 -0.045731
N8    N     N_R   0.944750 0.923100 0.294580 -0.045738
N9    N     N_R   0.375210 0.577180 0.443400 -0.101980
N10   N     N_R   0.624790 0.577180 0.556600 -0.101978
N11   N     N_R   0.875210 0.077180 0.443400 -0.101981
N12   N     N_R   0.610940 0.424180 0.705460 -0.053346
N13   N     N_R   0.124790 0.077180 0.556600 -0.101956
N14   N     N_R   0.445430 0.577570 0.294580 -0.110001
N15   N     N_R   0.554570 0.577570 0.705420 -0.110012
N16   N     N_R   0.945430 0.077570 0.294580 -0.109991
N17   N     N_R   0.054570 0.077570 0.705420 -0.110007
N18   N     N_R   0.611620 0.576500 0.705460 -0.078162
N19   N     N_R   0.388380 0.576500 0.294540 -0.078164
N20   N     N_R   0.111620 0.076500 0.705460 -0.078174
N21   N     N_R   0.888380 0.076500 0.294540 -0.078166
N22   N     N_R   0.421010 0.576890 0.556640 -0.079475
N23   N     N_R   0.889060 0.924180 0.294540 -0.053352
N24   N     N_R   0.578990 0.576890 0.443360 -0.079427
N25   N     N_R   0.921010 0.076890 0.556640 -0.079471
N26   N     N_R   0.078990 0.076890 0.443360 -0.079358
N27   N     N_R   0.110940 0.924180 0.705460 -0.053352
N28   N     N_R   0.579670 0.423790 0.443360 -0.073239
N29   N     N_R   0.420330 0.423790 0.556640 -0.073259
N30   N     N_R   0.079670 0.923790 0.443360 -0.073221
N31   N     N_R   0.920330 0.923790 0.556640 -0.073251
N32   N     N_R   0.625470 0.423490 0.556600 -0.101591
Ni1   Ni    Ni4+2 0.383200 0.500680 0.370150 0.246644
Ni2   Ni    Ni4+2 0.616800 0.500680 0.629850 0.246640
Ni3   Ni    Ni4+2 0.883200 0.000680 0.370150 0.246616
Ni4   Ni    Ni4+2 0.116800 0.000680 0.629850 0.246636
Ni5   Ni    Ni4+2 0.512440 0.500680 0.370150 0.208377
Ni6   Ni    Ni4+2 0.487560 0.500680 0.629850 0.208341
Ni7   Ni    Ni4+2 0.012440 0.000680 0.370150 0.208432
Ni8   Ni    Ni4+2 0.987560 0.000680 0.629850 0.208321
O1    O     O_3   0.815202 0.640353 0.618686 -0.716712
O2    O     O_3   0.526807 0.653228 0.802551 -0.737100
O3    O     O_3   0.973178 0.153189 0.197414 -0.737274
O4    O     O_3   0.026802 0.153234 0.802540 -0.737104
O5    O     O_3   0.689634 0.612295 0.323611 -0.762829
O6    O     O_3   0.310439 0.612487 0.676461 -0.762873
O7    O     O_3   0.189896 0.111937 0.323932 -0.762760
O8    O     O_3   0.810445 0.112477 0.676455 -0.762895
O9    O     O_3   0.184806 0.640257 0.381360 -0.716711
O10   O     O_3   0.315160 0.140701 0.618879 -0.716862
O11   O     O_3   0.684810 0.140262 0.381369 -0.716694
O12   O     O_3   0.249755 0.573435 0.303177 -0.715914
O13   O     O_3   0.750242 0.573437 0.696835 -0.715928
O14   O     O_3   0.749757 0.073442 0.303178 -0.715941
O15   O     O_3   0.250235 0.073425 0.696865 -0.715842
O16   O     O_3   0.473208 0.653244 0.197485 -0.737157

loop_
_geom_bond_atom_site_label_1
_geom_bond_atom_site_label_2
_ccdc_geom_bond_type
C53   H22   S    
N23   Ni3   S    
C21   C26   D    
C5    C36   S    
C11   C18   S    
C70   O15   S    
C29   C33   D    
N9    N22   A    
C32   C48   S    
H46   O2    S    
C1    N1    A    
C25   H54   S    
N22   Ni6   S    
H44   O16   S    
N17   N20   A    
C4    C70   A    
C53   C59   A    
N3    N30   A    
N7    N27   A    
N7    Ni8   S    
C54   N6    A    
C35   H8    S    
C67   N25   A    
C6    C72   A    
H38   O10   S    
C73   N16   A    
C10   O6    S    
C13   O8    S    
C30   C35   D    
C75   N18   A    
C40   H18   S    
C3    C69   A    
N5    N12   A    
H51   O7    S    
C10   C15   D    
H36   O1    S    
N26   Ni7   S    
C20   C25   D    
C57   N8    A    
C67   H33   S    
C78   N26   A    
C18   Cl1   S    
C40   C62   A    
N9    Ni1   S    
C26   C64   S    
C22   C63   S    
C12   C59   A    
N12   Ni2   S    
N3    Ni4   S    
C30   C60   S    
N19   Ni1   S    
C24   C62   S    
C36   H9    S    
C8    C39   S    
C51   N3    A    
C19   Cl2   S    
C45   N22   A    
N16   Ni7   S    
N1    N6    A    
N20   Ni4   S    
C43   C65   A    
N28   Ni5   S    
C45   H31   S    
C77   N20   A    
N32   Ni2   S    
C34   H34   S    
C16   O10   S    
C31   C47   S    
H48   O4    S    
C53   N5    A    
C50   C63   A    
C56   H32   S    
N10   N24   A    
H50   O6    S    
C43   N31   A    
C12   N12   A    
C9    O5    S    
C33   H7    S    
H47   O3    S    
C37   H10   S    
C73   O3    S    
N11   Ni3   S    
C39   H13   S    
N6    Ni5   S    
C74   O4    S    
C10   C21   S    
C23   C60   A    
C29   C61   S    
N15   N18   A    
N4    N31   A    
N18   Ni2   S    
C13   C19   S    
C22   H45   S    
C27   C31   D    
C49   Cl5   S    
C28   C32   D    
C25   C65   S    
C7    C73   A    
C42   N30   A    
C51   Cl7   S    
C14   O1    S    
C57   C60   A    
C79   H30   S    
C55   H25   S    
C31   H5    S    
C34   C61   A    
N2    Ni1   S    
C68   O13   S    
N13   Ni4   S    
C2    C68   A    
C4    C16   S    
H43   O15   S    
C9    C14   D    
N25   Ni8   S    
C4    C78   A    
H39   O11   S    
N13   N26   A    
C74   N17   A    
C11   C16   D    
N11   N25   A    
C9    C20   S    
C15   C80   S    
C21   Cl4   S    
H37   O9    S    
C24   H53   S    
C44   H56   S    
C56   N24   A    
C8    C74   A    
C6    C37   S    
C54   H24   S    
C69   N11   A    
N16   N21   A    
C79   N21   A    
N8    Ni7   S    
C78   H35   S    
C72   N15   A    
C72   O2    S    
C38   C47   D    
N14   N19   A    
C23   N23   A    
N29   Ni6   S    
N4    Ni3   S    
N10   Ni2   S    
C30   H17   S    
C69   O14   S    
H52   O8    S    
H49   O5    S    
N27   Ni4   S    
C36   C44   D    
C71   O16   S    
C41   C63   A    
N1    Ni1   S    
C26   H55   S    
C42   C64   A    
C40   N28   A    
N8    N23   A    
C23   H23   S    
C7    C79   A    
C54   C58   A    
C34   N27   A    
C71   N14   A    
C41   N29   A    
N5    Ni6   S    
C1    H1    S    
C49   C62   A    
C41   H19   S    
C18   C22   D    
C33   C44   S    
C47   H3    S    
C3    C67   A    
C51   C64   A    
H40   O12   S    
C38   H11   S    
N30   Ni7   S    
C20   Cl3   S    
C66   N9    A    
C66   O12   S    
C55   N7    A    
C57   H26   S    
C46   H2    S    
C28   C58   S    
C66   C80   A    
C27   H14   S    
C77   H29   S    
C13   C17   D    
C70   N13   A    
C5    C76   A    
C19   C24   D    
C5    C71   A    
C27   C59   S    
C1    C58   A    
C28   H15   S    
C50   N2    A    
C8    C77   A    
N17   Ni8   S    
N21   Ni3   S    
C55   C61   A    
C68   N10   A    
C76   H28   S    
C7    C38   S    
C3    C17   S    
C45   C80   A    
C11   O7    S    
N15   Ni6   S    
C2    C14   S    
C52   Cl8   S    
C12   H12   S    
C17   O11   S    
C50   Cl6   S    
C15   O9    S    
C75   H27   S    
C29   H16   S    
C52   N4    A    
N24   Ni5   S    
C48   H4    S    
C32   H6    S    
N2    N29   A    
C39   C48   D    
C76   N19   A    
C2    C56   A    
C43   H21   S    
C37   C46   D    
H42   O14   S    
C35   C46   S    
C42   H20   S    
C49   N32   A    
H41   O13   S    
C52   C65   A    
N28   N32   A    
N14   Ni5   S    
N31   Ni8   S    
C6    C75   A    
