data_mof_unit_57613.cif
_audit_creation_date              2012-12-10T19:17:52-0500
_audit_creation_method            fapswitch 2.2
_symmetry_space_group_name_H-M    P1
_symmetry_Int_Tables_number       1
_space_group_crystal_system       triclinic
_cell_length_a                    16.042889
_cell_length_b                    14.787957
_cell_length_c                    10.640325
_cell_angle_alpha                 89.665635
_cell_angle_beta                  89.879403
_cell_angle_gamma                 90.521647
_cell_volume                      2524.17374213

loop_
_atom_site_label
_atom_site_type_symbol
_atom_type_description
_atom_site_fract_x
_atom_site_fract_y
_atom_site_fract_z
_atom_type_partial_charge
C1    C     C_R   0.340992 0.499552 0.500228 0.827510
C2    C     C_R   0.659008 0.500448 0.499770 0.827515
C3    C     C_1   0.822668 0.502311 0.500236 -0.060605
C4    C     C_1   0.177333 0.497688 0.499744 -0.060600
C5    C     C_R   0.957594 0.583422 0.514682 0.046171
C6    C     C_R   0.042407 0.416581 0.485277 0.046172
C7    C     C_R   0.045934 0.582242 0.512005 0.046963
C8    C     C_R   0.954067 0.417759 0.487964 0.046961
C9    C     C_R   0.912631 0.501282 0.501262 0.034672
C10   C     C_R   0.087370 0.498719 0.498708 0.034673
C11   C     C_R   0.499963 0.500276 0.258716 0.783995
C12   C     C_R   0.500037 0.499724 0.741284 0.783998
C13   C     C_1   0.252174 0.498319 0.500162 -0.205702
C14   C     C_1   0.747826 0.501680 0.499827 -0.205694
C15   C     C_R   0.573833 0.951835 0.530324 0.068493
C16   C     C_R   0.426165 0.048165 0.469687 0.068506
C17   C     C_R   0.424540 0.951162 0.478062 0.057506
C18   C     C_R   0.575458 0.048838 0.521944 0.057506
C19   C     C_R   0.499067 0.903063 0.503998 -0.061075
C20   C     C_R   0.500931 0.096937 0.496009 -0.061089
C21   C     C_3   0.499091 0.586123 0.039582 -0.132799
C22   C     C_3   0.500908 0.413877 0.960418 -0.132798
C23   C     C_3   0.568055 0.544151 0.957371 -0.171334
C24   C     C_3   0.431944 0.455849 0.042629 -0.171333
C25   C     C_3   0.431066 0.541100 0.957788 -0.172321
C26   C     C_3   0.568933 0.458900 0.042212 -0.172319
C27   C     C_3   0.500029 0.499201 0.877874 0.023717
C28   C     C_3   0.499971 0.500799 0.122126 0.023719
C29   C     C_1   0.499533 0.802472 0.501275 0.117702
C30   C     C_1   0.500466 0.197528 0.498728 0.117723
Cu1   Cu    Cu3+1 0.500000 0.589220 0.500000 0.956950
Cu2   Cu    Cu3+1 0.500000 0.410780 0.500000 0.956950
H1    H     H_    0.374699 0.574633 0.919997 0.127270
H2    H     H_    0.625301 0.425367 0.080003 0.127269
H3    H     H_    0.498328 0.656676 0.074646 0.137223
H4    H     H_    0.501672 0.343324 0.925354 0.137220
H5    H     H_    0.623672 0.580231 0.919212 0.127864
H6    H     H_    0.376328 0.419769 0.080788 0.127863
N1    N     N_1   0.500000 0.276710 0.500000 -0.159260
N2    N     N_1   0.500000 0.723290 0.500000 -0.159267
O1    O     O_R   0.380310 0.575320 0.500020 -0.573890
O2    O     O_R   0.619690 0.424680 0.499980 -0.573889
O3    O     O_R   0.619690 0.575320 0.499980 -0.571688
O4    O     O_R   0.380310 0.424680 0.500020 -0.571699
O5    O     O_R   0.499980 0.575330 0.316850 -0.581746
O6    O     O_R   0.500020 0.424670 0.683150 -0.581747
O7    O     O_R   0.500020 0.575330 0.683150 -0.577708
O8    O     O_R   0.499980 0.424670 0.316850 -0.577704
C31   C     C_3   0.656601 0.102575 0.535794 -0.396468
C32   C     C_3   0.677571 0.120253 0.674068 -0.328501
C33   C     C_3   0.750181 0.186988 0.686138 -0.870602
H7    H     H_    0.805968 0.161359 0.636109 0.253914
H8    H     H_    0.732703 0.253719 0.646184 0.259887
H9    H     H_    0.765920 0.196020 0.786876 0.239677
H10   H     H_    0.622366 0.148609 0.722809 0.219985
H11   H     H_    0.694722 0.056214 0.721527 0.217005
H12   H     H_    0.708934 0.069462 0.486492 0.179838
H13   H     H_    0.652311 0.168447 0.486089 0.200521
C34   C     C_3   0.343398 0.897424 0.464203 -0.396453
C35   C     C_3   0.322432 0.879754 0.325925 -0.328508
C36   C     C_3   0.249835 0.813003 0.313845 -0.870602
H14   H     H_    0.267330 0.746270 0.353778 0.259897
H15   H     H_    0.194046 0.838611 0.363889 0.253915
H16   H     H_    0.234094 0.803982 0.213105 0.239675
H17   H     H_    0.305265 0.943792 0.278480 0.216991
H18   H     H_    0.377643 0.851416 0.277176 0.219986
H19   H     H_    0.347688 0.831550 0.513900 0.200531
H20   H     H_    0.291064 0.930533 0.513505 0.179830
C37   C     C_3   0.349301 0.102114 0.431761 -0.409587
C38   C     C_3   0.357760 0.140983 0.297803 -0.325903
C39   C     C_3   0.283739 0.200629 0.264625 -0.869923
H21   H     H_    0.224547 0.161324 0.271538 0.251439
H22   H     H_    0.281033 0.259342 0.329127 0.260763
H23   H     H_    0.290789 0.226390 0.166908 0.238747
H24   H     H_    0.415533 0.182206 0.287784 0.226892
H25   H     H_    0.361487 0.085001 0.229037 0.204621
H26   H     H_    0.290811 0.062394 0.435976 0.196439
H27   H     H_    0.340634 0.157914 0.499860 0.197852
C40   C     C_3   0.650697 0.897887 0.568255 -0.409589
C41   C     C_3   0.642239 0.859016 0.702209 -0.325916
C42   C     C_3   0.716297 0.799431 0.735425 -0.869874
H28   H     H_    0.719078 0.740735 0.670901 0.260726
H29   H     H_    0.775463 0.838789 0.728582 0.251432
H30   H     H_    0.709234 0.773642 0.833122 0.238741
H31   H     H_    0.638456 0.914995 0.770971 0.204632
H32   H     H_    0.584494 0.817746 0.712196 0.226899
H33   H     H_    0.659366 0.842087 0.500157 0.197820
H34   H     H_    0.709185 0.937610 0.564042 0.196478
C43   C     C_3   0.097185 0.669274 0.524374 -0.393898
C44   C     C_3   0.121493 0.685608 0.661809 -0.332253
C45   C     C_3   0.177432 0.768979 0.674082 -0.871135
H35   H     H_    0.236779 0.758273 0.622854 0.259392
H36   H     H_    0.145928 0.829650 0.635449 0.251193
H37   H     H_    0.191840 0.780807 0.774701 0.240238
H38   H     H_    0.064584 0.695082 0.719736 0.208270
H39   H     H_    0.155345 0.626107 0.699506 0.224074
H40   H     H_    0.154161 0.665803 0.465356 0.205629
H41   H     H_    0.064044 0.728822 0.486355 0.194857
C46   C     C_3   0.902818 0.330725 0.475600 -0.393885
C47   C     C_3   0.878501 0.314395 0.338168 -0.332270
C48   C     C_3   0.822585 0.231008 0.325896 -0.871150
H42   H     H_    0.854122 0.170338 0.364470 0.251191
H43   H     H_    0.763254 0.241677 0.377184 0.259400
H44   H     H_    0.808144 0.219205 0.225283 0.240247
H45   H     H_    0.844627 0.373888 0.300489 0.224077
H46   H     H_    0.935406 0.304945 0.280222 0.208274
H47   H     H_    0.935964 0.271179 0.513611 0.194879
H48   H     H_    0.845847 0.334195 0.534626 0.205612
C49   C     C_3   0.910702 0.671967 0.529906 -0.391468
C50   C     C_3   0.892838 0.714812 0.401188 -0.331528
C51   C     C_3   0.858432 0.809966 0.415072 -0.882895
H49   H     H_    0.801226 0.808112 0.473444 0.261604
H50   H     H_    0.905385 0.854909 0.460027 0.250916
H51   H     H_    0.842884 0.837981 0.321055 0.242682
H52   H     H_    0.950708 0.718505 0.343732 0.212106
H53   H     H_    0.846659 0.672364 0.350079 0.224044
H54   H     H_    0.851061 0.661012 0.581154 0.197874
H55   H     H_    0.945450 0.719808 0.590625 0.195766
C52   C     C_3   0.089298 0.328038 0.470021 -0.391481
C53   C     C_3   0.107185 0.285183 0.598726 -0.331515
C54   C     C_3   0.141552 0.190014 0.584811 -0.882961
H56   H     H_    0.094552 0.145085 0.539936 0.250915
H57   H     H_    0.198718 0.191839 0.526350 0.261636
H58   H     H_    0.157153 0.162004 0.678811 0.242691
H59   H     H_    0.153397 0.327610 0.649802 0.224050
H60   H     H_    0.049332 0.281512 0.656223 0.212116
H61   H     H_    0.054543 0.280201 0.409306 0.195783
H62   H     H_    0.148931 0.339000 0.418753 0.197869

loop_
_geom_bond_atom_site_label_1
_geom_bond_atom_site_label_2
_ccdc_geom_bond_type
C7    C10   A    
C48   H42   S    
C15   C18   A    
C37   H26   S    
C51   H49   S    
C40   H33   S    
C42   H28   S    
C11   O8    A    
C49   H54   S    
C44   H38   S    
C20   C30   S    
C26   C28   S    
C15   C19   A    
C46   H48   S    
C47   H45   S    
Cu1   O3    S    
C8    C46   S    
C53   H60   S    
C23   C26   S    
C7    C43   S    
C31   H12   S    
Cu1   N2    S    
Cu2   N1    S    
C4    C13   T    
C36   H15   S    
C50   C51   S    
C54   H58   S    
C41   H32   S    
C34   H19   S    
C26   H2    S    
C15   C40   S    
C46   C47   S    
C8    C9    A    
C24   H6    S    
C38   C39   S    
C23   C27   S    
C52   H62   S    
C35   H18   S    
C34   C35   S    
C48   H43   S    
Cu1   O7    S    
Cu2   O8    S    
C37   H27   S    
C36   H14   S    
C12   O7    A    
C40   H34   S    
C42   H29   S    
C49   H55   S    
C12   C27   S    
C33   H7    S    
C24   C25   S    
C12   O6    A    
C45   H35   S    
C5    C7    A    
C53   H59   S    
C16   C17   A    
C6    C8    A    
C23   H5    S    
C32   H11   S    
C31   H13   S    
C43   H40   S    
C35   C36   S    
C33   H8    S    
C36   H16   S    
C5    C9    A    
C41   H31   S    
C3    C9    S    
C34   H20   S    
C45   H36   S    
C1    O4    A    
Cu1   Cu2   S    
C2    O3    A    
C16   C20   A    
C32   C33   S    
Cu2   O4    S    
C51   H50   S    
C54   H56   S    
C3    C14   T    
C17   C34   S    
C1    O1    A    
C21   C28   S    
C35   H17   S    
C48   H44   S    
C22   C27   S    
C21   C23   S    
C38   H25   S    
C22   C24   S    
C11   O5    A    
C1    C13   S    
C4    C10   S    
C19   C29   S    
C50   H53   S    
C6    C52   S    
C42   H30   S    
C46   H47   S    
C53   C54   S    
C39   H22   S    
C21   C25   S    
Cu1   O1    S    
Cu2   O6    S    
C16   C37   S    
C24   C28   S    
C41   C42   S    
C6    C10   A    
C39   H23   S    
C52   C53   S    
C44   H39   S    
C21   H3    S    
C25   C27   S    
C22   H4    S    
C47   H46   S    
C32   H10   S    
C43   H41   S    
C33   H9    S    
C39   H21   S    
C49   C50   S    
C45   H37   S    
C44   C45   S    
C5    C49   S    
C11   C28   S    
C2    O2    A    
C29   N2    T    
C47   C48   S    
C17   C19   A    
C30   N1    T    
C51   H51   S    
C18   C20   A    
C37   C38   S    
C2    C14   S    
C54   H57   S    
C22   C26   S    
C40   C41   S    
C31   C32   S    
Cu1   O5    S    
C38   H24   S    
Cu2   O2    S    
C43   C44   S    
C50   H52   S    
C18   C31   S    
C25   H1    S    
C52   H61   S    
