data_mof_unit_14742.cif
_audit_creation_date              2012-12-10T18:02:09-0500
_audit_creation_method            fapswitch 2.2
_symmetry_space_group_name_H-M    P1
_symmetry_Int_Tables_number       1
_space_group_crystal_system       triclinic
_cell_length_a                    10.74108
_cell_length_b                    9.599283
_cell_length_c                    23.525604
_cell_angle_alpha                 89.944656
_cell_angle_beta                  91.690013
_cell_angle_gamma                 90.113059
_cell_volume                      2424.58577152

loop_
_atom_site_label
_atom_site_type_symbol
_atom_type_description
_atom_site_fract_x
_atom_site_fract_y
_atom_site_fract_z
_atom_type_partial_charge
C1    C     C_R   0.262758 0.499912 0.499765 0.915914
C2    C     C_R   0.737237 0.500083 0.500015 0.856758
C3    C     C_R   0.503383 0.373738 0.239069 0.428711
C4    C     C_R   0.497457 0.626246 0.760957 0.424373
C5    C     C_R   0.502676 0.374006 0.298334 -0.209134
C6    C     C_R   0.497932 0.625986 0.701687 -0.209117
C7    C     C_R   0.501208 0.500222 0.328441 -0.170423
C8    C     C_R   0.499179 0.499772 0.671572 -0.167718
C9    C     C_R   0.500994 0.626626 0.298312 -0.117795
C10   C     C_R   0.499516 0.373364 0.701702 -0.120191
C11   C     C_R   0.501644 0.627493 0.239006 0.131456
C12   C     C_R   0.499104 0.372492 0.761011 0.128964
C13   C     C_R   0.502746 0.500377 0.209127 0.200735
C14   C     C_R   0.498135 0.499604 0.790895 0.201215
C15   C     C_R   0.061853 0.476719 0.448650 0.150994
C16   C     C_R   0.938161 0.523380 0.551024 0.129000
C17   C     C_R   0.931903 0.476712 0.448518 0.053078
C18   C     C_R   0.068718 0.523571 0.550985 0.045703
C19   C     C_R   0.871163 0.500180 0.499803 -0.077119
C20   C     C_R   0.128862 0.499822 0.499807 -0.053112
C21   C     C_R   0.421438 0.073939 0.464085 0.361787
C22   C     C_R   0.578566 0.926066 0.535912 0.362395
C23   C     C_R   0.578614 0.074198 0.535903 0.358272
C24   C     C_R   0.421398 0.925805 0.464090 0.358579
C25   C     C_R   0.500164 0.500060 0.391028 0.840780
C26   C     C_R   0.499922 0.499938 0.608975 0.880425
C27   C     C_R   0.611256 0.502346 0.881146 0.625961
C28   C     C_R   0.389652 0.497615 0.118875 0.625691
C29   C     C_R   0.388867 0.497988 0.879009 0.612044
C30   C     C_R   0.612041 0.501988 0.121015 0.612319
C31   C     C_R   0.387436 0.497868 0.938490 -0.075411
C32   C     C_R   0.613476 0.502100 0.061533 -0.076156
C33   C     C_R   0.501078 0.500054 0.969928 -0.056757
C34   C     C_R   0.499834 0.499911 0.030095 -0.056575
C35   C     C_R   0.615598 0.502429 0.941298 -0.108875
C36   C     C_R   0.385313 0.497532 0.058724 -0.109046
C37   C     C_R   0.274610 0.495513 0.966824 -0.144369
C38   C     C_R   0.726301 0.504454 0.033199 -0.143279
C39   C     C_R   0.272098 0.495260 0.026024 0.416045
C40   C     C_R   0.728813 0.504702 0.973998 0.415940
Cu1   Cu    Cu3+1 0.500000 0.640660 0.500000 1.067668
Cu2   Cu    Cu3+1 0.500000 0.359340 0.500000 1.062394
H1    H     H_    0.186854 0.493764 0.942893 0.247175
H2    H     H_    0.814056 0.506205 0.057130 0.247585
H3    H     H_    0.503172 0.275317 0.320692 0.223321
H4    H     H_    0.497400 0.724679 0.679333 0.224010
H5    H     H_    0.500137 0.725196 0.320680 0.218120
H6    H     H_    0.500257 0.274795 0.679331 0.218277
N1    N     N_R   0.499381 0.499887 0.851882 -0.466295
N2    N     N_R   0.501525 0.500084 0.148141 -0.467324
N3    N     N_R   0.500000 0.852070 0.500000 -0.281494
N4    N     N_R   0.500000 0.147930 0.500000 -0.281896
O1    O     O_R   0.319640 0.618740 0.500000 -0.536745
O2    O     O_R   0.680360 0.381260 0.500000 -0.547334
O3    O     O_R   0.680360 0.618740 0.500000 -0.537858
O4    O     O_R   0.319640 0.381260 0.500000 -0.540880
O5    O     O_R   0.499960 0.618810 0.417880 -0.557006
O6    O     O_R   0.500040 0.381190 0.582120 -0.553691
O7    O     O_R   0.500040 0.618810 0.582120 -0.544901
O8    O     O_R   0.499960 0.381190 0.417880 -0.552267
O9    O     O_2   0.716824 0.504598 0.851608 -0.429928
O10   O     O_2   0.284081 0.495353 0.148411 -0.426851
O11   O     O_2   0.280700 0.496158 0.848307 -0.487487
O12   O     O_2   0.720205 0.503830 0.151720 -0.482218
Cl1   Cl    Cl    0.122706 0.491967 0.055363 -0.436034
Cl2   Cl    Cl    0.878204 0.507992 0.944658 -0.438702
Cl3   Cl    Cl    0.504568 0.213401 0.202933 -0.504308
Cl4   Cl    Cl    0.496450 0.786577 0.797100 -0.507630
N5    N     N_3   0.500767 0.758391 0.209754 -0.504242
H7    H     H_    0.579718 0.763541 0.184895 0.254583
H8    H     H_    0.422073 0.761624 0.182568 0.260327
N6    N     N_3   0.500051 0.241591 0.790262 -0.505149
H9    H     H_    0.578834 0.238340 0.817393 0.260020
H10   H     H_    0.421187 0.236456 0.815176 0.254046
N7    N     N_3   0.126791 0.455359 0.396936 -0.523472
H11   H     H_    0.099854 0.533390 0.368104 0.270876
H12   H     H_    0.099155 0.359321 0.379805 0.290163
N8    N     N_3   0.872483 0.544509 0.602587 -0.533075
H13   H     H_    0.898099 0.466223 0.631504 0.249770
H14   H     H_    0.898683 0.640811 0.619856 0.269757
N9    N     N_3   0.863107 0.454321 0.396052 -0.565104
H15   H     H_    0.805435 0.540333 0.388350 0.219711
H16   H     H_    0.806904 0.366181 0.400507 0.238723
N10   N     N_3   0.141375 0.546469 0.602360 -0.599911
H17   H     H_    0.118631 0.643934 0.618813 0.250935
H18   H     H_    0.118839 0.469842 0.631937 0.243450
Cl5   Cl    Cl    0.318039 0.161305 0.416787 -0.501121
Cl6   Cl    Cl    0.681956 0.838711 0.583211 -0.503888
Cl7   Cl    Cl    0.682319 0.161967 0.583104 -0.499207
Cl8   Cl    Cl    0.317723 0.838041 0.416875 -0.496955

loop_
_geom_bond_atom_site_label_1
_geom_bond_atom_site_label_2
_ccdc_geom_bond_type
C15   N7    S    
C29   O11   S    
C30   O12   S    
C8    C26   S    
Cu1   Cu2   S    
Cu2   O6    S    
C21   Cl5   S    
N9    H15   S    
C29   N1    A    
C38   C40   A    
C1    O4    A    
N10   H18   S    
C2    O3    A    
C33   C35   A    
N8    H14   S    
C14   N1    S    
C15   C17   A    
N5    H8    S    
C1    O1    A    
Cu1   O3    S    
C27   O9    S    
Cu2   O4    S    
C28   N2    A    
C26   O6    A    
C18   N10   S    
C23   Cl7   S    
C25   O8    A    
C32   C38   A    
C17   N9    S    
C26   O7    A    
C18   C20   A    
C3    C13   A    
C24   N3    A    
C30   N2    A    
C40   Cl2   S    
C39   Cl1   S    
C25   O5    A    
N9    H16   S    
C15   C20   A    
C37   C39   A    
N10   H17   S    
Cu1   O7    S    
N6    H10   S    
C2    O2    A    
Cu2   O8    S    
C4    Cl4   S    
N8    H13   S    
C6    C8    A    
C27   C35   A    
C5    H3    S    
C31   C37   A    
C32   C34   A    
C37   H1    S    
N7    H11   S    
C38   H2    S    
C9    C11   A    
C31   C33   A    
C33   C34   A    
N7    H12   S    
Cu1   O1    S    
C10   C12   A    
C4    C6    A    
C12   C14   A    
C9    H5    S    
C22   Cl6   S    
C10   H6    S    
C8    C10   A    
C5    C7    A    
C7    C9    A    
C1    C20   S    
C6    H4    S    
C2    C19   S    
C36   C39   A    
C3    Cl3   S    
N6    H9    S    
C3    C5    A    
C24   Cl8   S    
C11   N5    S    
C7    C25   S    
C35   C40   A    
Cu1   O5    S    
C29   C31   A    
Cu2   O2    S    
C30   C32   A    
C11   C13   A    
C23   N4    A    
C16   C19   A    
C17   C19   A    
C34   C36   A    
C16   N8    S    
C4    C14   A    
N5    H7    S    
C12   N6    S    
C13   N2    S    
C28   C36   A    
C16   C18   A    
C21   C24   A    
C22   C23   A    
Cu1   N3    S    
C21   N4    A    
C27   N1    A    
Cu2   N4    S    
C22   N3    A    
C28   O10   S    
