data_mof_unit_50964.cif
_audit_creation_date              2012-10-26T20:25:35-0400
_audit_creation_method            fapswitch 2.2
_symmetry_space_group_name_H-M    P1
_symmetry_Int_Tables_number       1
_space_group_crystal_system       triclinic
_cell_length_a                    23.498626
_cell_length_b                    10.651084
_cell_length_c                    9.465482
_cell_angle_alpha                 91.913009
_cell_angle_beta                  90.161337
_cell_angle_gamma                 90.307612
_cell_volume                      2367.71097579

loop_
_atom_site_label
_atom_site_type_symbol
_atom_type_description
_atom_site_fract_x
_atom_site_fract_y
_atom_site_fract_z
_atom_type_partial_charge
C1    C     C_R   0.499954 0.259980 0.497555 0.576580
C2    C     C_R   0.702940 0.492396 0.624495 -0.148437
C3    C     C_R   0.239308 0.455981 0.619043 0.188025
C4    C     C_R   0.762502 0.485800 0.621715 0.173947
C5    C     C_R   0.209347 0.492357 0.498117 0.270467
C6    C     C_R   0.790833 0.479761 0.491373 0.277411
C7    C     C_3   0.546708 0.046317 0.564313 0.241014
C8    C     C_3   0.451720 0.953970 0.435036 0.241619
C9    C     C_3   0.545405 0.954592 0.433766 0.081759
C10   C     C_3   0.453025 0.046000 0.565299 0.082376
C11   C     C_3   0.498779 0.876623 0.506364 -0.015220
C12   C     C_R   0.499416 0.740106 0.502342 0.576120
C13   C     C_3   0.499729 0.123636 0.493015 -0.014582
C14   C     C_3   0.499767 0.969786 0.636023 0.123807
C15   C     C_3   0.498581 0.030721 0.363291 0.123015
C16   C     C_R   0.391158 0.498935 0.499746 0.548283
C17   C     C_R   0.608964 0.498188 0.499786 0.547982
C18   C     C_3   0.503845 0.614897 0.056007 -0.054352
C19   C     C_3   0.495887 0.385040 0.944426 -0.051361
C20   C     C_3   0.458127 0.563320 0.953350 0.195927
C21   C     C_3   0.541544 0.436649 0.046800 0.201904
C22   C     C_3   0.545789 0.549419 0.953880 0.362910
C23   C     C_R   0.239182 0.529822 0.378647 -0.116885
C24   C     C_3   0.453899 0.450610 0.047096 0.360492
C25   C     C_R   0.879747 0.593138 0.491752 0.411831
C26   C     C_R   0.120285 0.377820 0.488492 0.422133
C27   C     C_R   0.880208 0.368839 0.481415 0.413574
C28   C     C_R   0.119652 0.602139 0.497753 0.390869
C29   C     C_R   0.940352 0.367134 0.485301 0.053305
C30   C     C_R   0.059563 0.603673 0.492239 0.050625
C31   C     C_R   0.969888 0.483671 0.488467 -0.069669
C32   C     C_R   0.030070 0.487129 0.489151 -0.071013
C33   C     C_R   0.939296 0.597087 0.491294 0.002595
C34   C     C_R   0.759852 0.477989 0.365139 -0.101527
C35   C     C_R   0.060693 0.373774 0.486876 0.000689
C36   C     C_R   0.971931 0.253926 0.485358 0.128092
C37   C     C_R   0.027986 0.716899 0.491787 0.128648
C38   C     C_R   0.031434 0.258723 0.484221 -0.122723
C39   C     C_R   0.968518 0.712111 0.493237 -0.122725
C40   C     C_3   0.933795 0.092575 0.630260 -0.268492
C41   C     C_3   0.066141 0.878612 0.347408 -0.268243
C42   C     C_3   0.380114 0.709064 0.998874 -0.339776
C43   C     C_3   0.622486 0.299485 0.999499 -0.334711
C44   C     C_3   0.627821 0.659389 0.011946 -0.032384
C45   C     C_R   0.298411 0.531575 0.378924 -0.161459
C46   C     C_3   0.690434 0.665105 0.974333 -0.399713
C47   C     C_3   0.366679 0.356442 0.000313 -0.042525
C48   C     C_3   0.317494 0.285508 0.065690 -0.389823
C49   C     C_3   0.193148 0.518584 0.836508 -0.299572
C50   C     C_3   0.794288 0.372778 0.823304 -0.314069
C51   C     C_3   0.623900 0.964394 0.260196 -0.312042
C52   C     C_3   0.374930 0.040613 0.741179 -0.310225
C53   C     C_3   0.642629 0.040789 0.627105 -0.010597
C54   C     C_3   0.685530 0.095770 0.733005 -0.383050
C55   C     C_3   0.355503 0.958138 0.374965 -0.010422
C56   C     C_R   0.700707 0.483682 0.368192 -0.169535
C57   C     C_3   0.312592 0.905471 0.267622 -0.378838
C58   C     C_3   0.547435 0.908634 0.855528 -0.286889
C59   C     C_3   0.448898 0.101657 0.151475 -0.277303
C60   C     C_R   0.328685 0.496164 0.498940 -0.012338
C61   C     C_R   0.671631 0.491961 0.497841 -0.020101
C62   C     C_R   0.298867 0.457263 0.618054 -0.144869
Cu1   Cu    Cu3+1 0.500010 0.499990 0.643150 0.994584
Cu2   Cu    Cu3+1 0.499990 0.500010 0.356850 0.994391
H1    H     H_    0.506899 0.709985 0.106972 0.127356
H2    H     H_    0.681353 0.497218 0.725179 0.160669
H3    H     H_    0.964341 0.066043 0.427011 0.236058
H4    H     H_    0.974580 0.076312 0.686361 0.115911
H5    H     H_    0.909196 0.003266 0.624189 0.161492
H6    H     H_    0.908499 0.163447 0.691339 0.174649
H7    H     H_    0.035514 0.904712 0.550632 0.236358
H8    H     H_    0.025378 0.894742 0.291151 0.113613
H9    H     H_    0.091570 0.807968 0.286352 0.177274
H10   H     H_    0.090636 0.968053 0.353780 0.161523
H11   H     H_    0.421274 0.680784 0.807484 0.277835
H12   H     H_    0.493464 0.289927 0.893362 0.126829
H13   H     H_    0.341493 0.747211 0.948293 0.129049
H14   H     H_    0.407124 0.788695 0.038477 0.157026
H15   H     H_    0.366659 0.651954 0.088879 0.186085
H16   H     H_    0.578610 0.315953 0.188708 0.271713
H17   H     H_    0.660353 0.259370 0.051533 0.124587
H18   H     H_    0.637383 0.362366 0.915906 0.194804
H19   H     H_    0.596739 0.221587 0.950896 0.156579
H20   H     H_    0.624361 0.610878 0.113986 0.166877
H21   H     H_    0.612247 0.756540 0.028815 0.119575
H22   H     H_    0.696100 0.709044 0.870474 0.158264
H23   H     H_    0.054697 0.171162 0.484284 0.151921
H24   H     H_    0.713906 0.721594 0.056460 0.113110
H25   H     H_    0.707939 0.568531 0.970334 0.141487
H26   H     H_    0.387717 0.292162 0.921665 0.131939
H27   H     H_    0.348591 0.437912 0.946105 0.165400
H28   H     H_    0.294009 0.348348 0.140720 0.166891
H29   H     H_    0.287790 0.251311 0.981377 0.094924
H30   H     H_    0.333405 0.203381 0.122704 0.141340
H31   H     H_    0.230037 0.346152 0.792771 0.242438
H32   H     H_    0.168321 0.480571 0.925260 0.140383
H33   H     H_    0.166033 0.586684 0.781399 0.189836
H34   H     H_    0.945250 0.799678 0.493480 0.151911
H35   H     H_    0.231534 0.567612 0.880337 0.128013
H36   H     H_    0.785383 0.565880 0.814369 0.248346
H37   H     H_    0.823984 0.380793 0.914625 0.147877
H38   H     H_    0.808594 0.294089 0.752239 0.186837
H39   H     H_    0.750944 0.352204 0.863365 0.113448
H40   H     H_    0.617886 0.840040 0.427419 0.236324
H41   H     H_    0.666739 0.923101 0.243134 0.132435
H42   H     H_    0.628850 0.064297 0.295746 0.143081
H43   H     H_    0.601088 0.959553 0.157615 0.155318
H44   H     H_    0.380867 0.162256 0.571133 0.234115
H45   H     H_    0.216302 0.557331 0.285237 0.113903
H46   H     H_    0.332129 0.082404 0.757254 0.128367
H47   H     H_    0.397940 0.048456 0.843488 0.163058
H48   H     H_    0.369829 0.939971 0.708907 0.142081
H49   H     H_    0.661653 0.048427 0.520916 0.161426
H50   H     H_    0.635702 0.940266 0.650803 0.119126
H51   H     H_    0.670675 0.081666 0.842480 0.122921
H52   H     H_    0.727154 0.048181 0.718783 0.121166
H53   H     H_    0.691331 0.197774 0.716405 0.167657
H54   H     H_    0.361759 0.059507 0.354660 0.115434
H55   H     H_    0.336945 0.946964 0.481231 0.162036
H56   H     H_    0.781734 0.473347 0.264566 0.117176
H57   H     H_    0.306222 0.803347 0.282044 0.164482
H58   H     H_    0.271178 0.953858 0.282249 0.127356
H59   H     H_    0.327738 0.920751 0.158617 0.122579
H60   H     H_    0.463345 0.872814 0.800405 0.245899
H61   H     H_    0.536898 0.880632 0.964082 0.135461
H62   H     H_    0.574457 0.993846 0.865634 0.177164
H63   H     H_    0.570375 0.831025 0.799569 0.180395
H64   H     H_    0.534530 0.125755 0.197061 0.244756
H65   H     H_    0.457731 0.136938 0.044951 0.138751
H66   H     H_    0.428020 0.176742 0.216265 0.188162
H67   H     H_    0.320480 0.561180 0.285539 0.145198
H68   H     H_    0.420497 0.019052 0.137101 0.171019
H69   H     H_    0.677907 0.481693 0.268781 0.151831
H70   H     H_    0.321761 0.427508 0.710178 0.116257
N1    N     N_R   0.851749 0.480455 0.487176 -0.382967
N2    N     N_2   0.794507 0.489300 0.749250 -0.501247
N3    N     N_2   0.592977 0.893225 0.362851 -0.509202
N4    N     N_2   0.405657 0.108792 0.635668 -0.511021
N5    N     N_2   0.495466 0.936154 0.782532 -0.499631
N6    N     N_2   0.501460 0.065299 0.216696 -0.500668
N7    N     N_R   0.148290 0.490600 0.495159 -0.389459
N8    N     N_3   0.500040 0.499970 0.858290 -0.256305
N9    N     N_3   0.499960 0.500030 0.141710 -0.255749
N10   N     N_2   0.944675 0.134422 0.488944 -0.457474
N11   N     N_2   0.055207 0.836467 0.488561 -0.456401
N12   N     N_2   0.411080 0.632912 0.896484 -0.523262
N13   N     N_2   0.589072 0.368467 0.103328 -0.520786
N14   N     N_2   0.209661 0.416705 0.740756 -0.485493
O1    O     O_R   0.500030 0.316850 0.620870 -0.467885
O2    O     O_2   0.150172 0.269882 0.483276 -0.500634
O3    O     O_2   0.850087 0.260767 0.471171 -0.479259
O4    O     O_2   0.149563 0.710510 0.508270 -0.478486
O5    O     O_3   0.596971 0.598490 0.900422 -0.556193
O6    O     O_3   0.404747 0.397992 0.107662 -0.550210
O7    O     O_3   0.591888 0.110558 0.635457 -0.556046
O8    O     O_3   0.406629 0.890061 0.363098 -0.555484
O9    O     O_R   0.499970 0.683150 0.379130 -0.468896
O10   O     O_R   0.500000 0.316860 0.379090 -0.521364
O11   O     O_R   0.500000 0.683140 0.620910 -0.522246
O12   O     O_R   0.417890 0.499960 0.620920 -0.513417
O13   O     O_R   0.582110 0.500040 0.379080 -0.514854
O14   O     O_R   0.417870 0.499970 0.379140 -0.447949
O15   O     O_R   0.582130 0.500030 0.620860 -0.452717
O16   O     O_2   0.849845 0.701072 0.496646 -0.509358

loop_
_geom_bond_atom_site_label_1
_geom_bond_atom_site_label_2
_ccdc_geom_bond_type
C58   N5    S    
C7    C13   S    
H44   N4    S    
C59   H66   S    
C34   C56   A    
C23   C45   A    
C16   O12   A    
C43   H19   S    
H60   N5    S    
Cu1   O11   S    
C41   H9    S    
C56   H69   S    
C45   C60   A    
C46   H25   S    
C55   H55   S    
C53   C54   S    
C18   H1    S    
Cu1   O15   S    
C29   C36   A    
C33   C39   A    
C48   H30   S    
C44   O5    S    
C21   N13   S    
C19   H12   S    
C19   C21   S    
C8    C11   S    
C8    C10   S    
C11   C14   S    
C57   H59   S    
C52   H48   S    
C25   O16   S    
H40   N3    S    
C60   C62   A    
C16   C60   S    
C42   H13   S    
Cu1   O1    S    
C17   O15   A    
C17   C61   S    
C57   H58   S    
C9    N3    S    
C7    C14   S    
C20   C24   S    
C44   C46   S    
C53   O7    S    
C54   H52   S    
Cu2   O9    S    
C52   N4    S    
C31   C33   A    
C1    O1    A    
C12   O9    A    
C26   N7    A    
C2    C61   A    
C4    N2    S    
C41   H10   S    
C3    N14   S    
C49   H32   S    
C21   C22   S    
Cu1   O12   S    
C8    O8    S    
H3    N10   S    
C24   O6    S    
C46   H24   S    
H16   N13   S    
H11   N12   S    
C34   H56   S    
C55   O8    S    
C23   H45   S    
C59   H68   S    
Cu2   N9    S    
C48   H29   S    
C40   H4    S    
C32   C35   A    
C20   N8    S    
C26   O2    S    
C35   C38   A    
C21   N9    S    
C4    C6    A    
C40   H5    S    
C39   H34   S    
C52   H47   S    
C16   O14   A    
C57   H57   S    
C6    C34   A    
C30   C37   A    
C37   C39   A    
C2    C4    A    
C6    N1    S    
C49   H35   S    
C50   H38   S    
C53   H49   S    
C5    N7    S    
C47   C48   S    
C5    C23   A    
C52   H46   S    
C51   H41   S    
C54   H51   S    
C22   N8    S    
C7    O7    S    
C9    C11   S    
C17   O13   A    
C50   H37   S    
C41   H8    S    
C51   N3    S    
Cu2   O14   S    
H7    N11   S    
C58   H63   S    
C58   H62   S    
C8    C15   S    
C13   C15   S    
C10   C14   S    
C43   H17   S    
C47   H26   S    
C20   N12   S    
C1    C13   S    
C44   H21   S    
C42   N12   S    
C3    C5    A    
C53   H50   S    
C42   H14   S    
C15   N6    S    
C3    C62   A    
C7    C9    S    
C59   H65   S    
C27   O3    S    
C18   C22   S    
C47   H27   S    
C31   C32   A    
H31   N14   S    
Cu2   O13   S    
C2    H2    S    
C10   C13   S    
C11   C12   S    
C45   H67   S    
C47   O6    S    
C19   N8    S    
C10   N4    S    
C40   H6    S    
C40   N10   S    
C44   H20   S    
C38   H23   S    
C27   N1    A    
C62   H70   S    
C28   O4    S    
C55   C57   S    
C19   C24   S    
C9    C15   S    
C18   N9    S    
C28   C30   A    
C29   C31   A    
C50   N2    S    
C30   C32   A    
C1    O10   A    
C27   C29   A    
C59   N6    S    
C51   H42   S    
C36   C38   A    
Cu1   N8    S    
C18   C20   S    
C12   O11   A    
H64   N6    S    
C25   N1    A    
C43   N13   S    
C49   H33   S    
Cu1   Cu2   S    
C26   C35   A    
C42   H15   S    
C41   N11   S    
C14   N5    S    
C49   N14   S    
C58   H61   S    
C51   H43   S    
C48   H28   S    
C54   H53   S    
Cu2   O10   S    
C43   H18   S    
C56   C61   A    
C50   H39   S    
C28   N7    A    
C24   N9    S    
C37   N11   S    
C36   N10   S    
C55   H54   S    
H36   N2    S    
C25   C33   A    
C46   H22   S    
C22   O5    S    
