data_mof_unit_30812.cif
_audit_creation_date              2013-03-05T15:47:46-0500
_audit_creation_method            fapswitch 2.2
_symmetry_space_group_name_H-M    P1
_symmetry_Int_Tables_number       1
_space_group_crystal_system       triclinic
_cell_length_a                    10.832301
_cell_length_b                    13.007642
_cell_length_c                    11.737148
_cell_angle_alpha                 99.616968
_cell_angle_beta                  89.417947
_cell_angle_gamma                 92.802175
_cell_volume                      1628.60131

loop_
_atom_site_label
_atom_site_type_symbol
_atom_site_description
_atom_site_fract_x
_atom_site_fract_y
_atom_site_fract_z
_atom_type_partial_charge
O1    O     O_R   0.506570 0.354460 0.582000 -0.607308
O2    O     O_R   0.493430 0.645540 0.418000 -0.607177
O3    O     O_R   0.490940 0.341410 0.386200 -0.513407
O4    O     O_R   0.509060 0.658590 0.613800 -0.513409
C1    C     C_R   0.501987 0.299608 0.478414 0.838783
C2    C     C_R   0.497925 0.700392 0.521594 0.839118
O5    O     O_R   0.327470 0.506520 0.597900 -0.530855
O6    O     O_R   0.672530 0.493480 0.402100 -0.530839
O7    O     O_R   0.311840 0.493460 0.402100 -0.550357
O8    O     O_R   0.688160 0.506540 0.597900 -0.550308
C3    C     C_R   0.262099 0.493897 0.504592 0.788255
C4    C     C_R   0.737906 0.506054 0.495404 0.788519
Cu1   Cu    Cu3+1 0.509250 0.507730 0.615930 1.076627
Cu2   Cu    Cu3+1 0.490750 0.492270 0.384070 1.076662
H1    H     H_    0.151126 0.839713 0.451231 0.175234
H2    H     H_    0.848926 0.160225 0.548797 0.175290
C5    C     C_R   0.094462 0.335160 0.599313 0.308318
C6    C     C_R   0.905541 0.664823 0.400811 0.308873
C7    C     C_R   0.023750 0.240889 0.593224 -0.115709
C8    C     C_R   0.976279 0.759074 0.406854 -0.115426
C9    C     C_R   0.904636 0.231762 0.549468 -0.145773
C10   C     C_R   0.095405 0.768183 0.450567 -0.146074
C11   C     C_R   0.853456 0.317721 0.515987 -0.080992
C12   C     C_R   0.146569 0.682219 0.484038 -0.080971
C13   C     C_R   0.925223 0.410975 0.513610 0.057201
C14   C     C_R   0.074794 0.588966 0.486403 0.057224
C15   C     C_R   0.051549 0.415654 0.543154 -0.022687
C16   C     C_R   0.948467 0.584293 0.456879 -0.022973
C17   C     C_R   0.872189 0.498601 0.481526 -0.076605
C18   C     C_R   0.127823 0.501340 0.518478 -0.076292
H3    H     H_    0.056404 0.177300 0.631891 0.216476
H4    H     H_    0.943607 0.822670 0.368215 0.216464
H5    H     H_    0.758021 0.309965 0.489466 0.141019
H6    H     H_    0.242000 0.689972 0.510563 0.140942
C19   C     C_R   0.487151 0.813272 0.534179 -0.208590
C20   C     C_R   0.512618 0.186727 0.465829 -0.208361
C21   C     C_R   0.599465 0.024589 0.374933 0.373574
C22   C     C_R   0.400249 0.975402 0.625087 0.373494
C23   C     C_R   0.585330 0.131556 0.378216 0.319027
C24   C     C_R   0.414490 0.868440 0.621841 0.319071
C25   C     C_R   0.454337 0.135073 0.548028 -0.198814
C26   C     C_R   0.545241 0.864931 0.451904 -0.198837
C27   C     C_R   0.463061 0.027886 0.543689 -0.050436
C28   C     C_R   0.536575 0.972118 0.456293 -0.050654
H7    H     H_    0.596906 0.820124 0.383988 0.253236
H8    H     H_    0.402466 0.179888 0.615819 0.252800
N1    N     N_R   0.523180 0.519350 0.790130 -0.271752
N2    N     N_R   0.476820 0.480650 0.209870 -0.271728
C29   C     C_R   0.418072 0.377649 0.024888 0.195018
C30   C     C_R   0.581989 0.622302 0.975108 0.195063
C31   C     C_R   0.417011 0.393935 0.146747 0.452274
C32   C     C_R   0.583017 0.606045 0.853255 0.452327
C33   C     C_R   0.528224 0.556316 0.154882 0.104653
C34   C     C_R   0.471788 0.443671 0.845107 0.104783
C35   C     C_R   0.526997 0.545631 0.032892 -0.141278
C36   C     C_R   0.473034 0.454337 0.967100 -0.141136
H9    H     H_    0.429783 0.375357 0.793257 0.223160
H10   H     H_    0.570221 0.624642 0.206716 0.223285
N3    N     N_R   0.365336 0.282303 0.961027 0.174256
O9    O     O_R   0.249663 0.255101 0.974858 -0.181187
O10   O     O_R   0.436403 0.217672 0.897898 -0.257875
N4    N     N_R   0.634854 0.717585 0.038969 0.174124
O11   O     O_R   0.750659 0.744470 0.025433 -0.181523
O12   O     O_R   0.563854 0.782417 0.101874 -0.257540
N5    N     N_R   0.188076 0.357056 0.686527 0.107440
O13   O     O_R   0.242035 0.279788 0.719015 -0.349134
O14   O     O_R   0.186950 0.444897 0.758382 -0.296138
N6    N     N_R   0.811772 0.643019 0.313768 0.107679
O15   O     O_R   0.813083 0.555468 0.241496 -0.296082
O16   O     O_R   0.757421 0.720315 0.281854 -0.349880
Cl1   Cl    Cl    0.334231 0.803922 0.723982 -0.431252
Cl2   Cl    Cl    0.665758 0.196066 0.276156 -0.431429
Cl3   Cl    Cl    0.701483 0.959377 0.271616 -0.383840
Cl4   Cl    Cl    0.298301 0.040607 0.728471 -0.383929
N7    N     N_R   0.648681 0.681477 0.796814 0.159186
O17   O     O_R   0.612862 0.776873 0.812289 -0.245347
O18   O     O_R   0.761013 0.664105 0.761285 -0.304641
N8    N     N_R   0.351362 0.318503 0.203201 0.159197
O19   O     O_R   0.387201 0.223113 0.187750 -0.245389
O20   O     O_R   0.239031 0.335867 0.238736 -0.304721

loop_
_geom_bond_atom_site_label_1
_geom_bond_atom_site_label_2
_geom_bond_distance
_ccdc_geom_bond_type
C35   C36   1.408228 A    
H2    C9    1.082985 S    
C24   Cl1   1.772286 S    
C4    C17   1.468154 S    
O7    Cu2   1.947922 S    
C32   N7    1.430706 S    
C7    H3    1.082836 S    
C29   C31   1.410455 A    
H1    C10   1.082982 S    
O5    C3    1.293090 A    
O1    C1    1.302938 A    
C16   C17   1.421860 A    
C7    C9    1.385920 A    
C12   C14   1.412528 A    
C22   Cl4   1.769703 S    
N8    O20   1.300251 A    
C6    N6    1.432475 S    
C1    C20   1.461073 S    
C2    C19   1.461269 S    
O4    Cu1   1.966764 S    
C19   C26   1.393955 A    
N4    O12   1.300633 A    
N2    C31   1.378405 A    
C3    C18   1.468076 S    
N6    O15   1.302024 A    
C11   H5    1.077785 S    
C30   C32   1.410375 A    
C25   H8    1.075448 S    
N3    O9    1.301268 A    
Cu1   Cu2   2.703842 S    
C15   C18   1.421880 A    
C25   C27   1.394466 A    
C20   C25   1.394111 A    
O2    C2    1.302994 A    
C26   C28   1.394306 A    
C33   C35   1.415385 A    
C13   C17   1.408126 A    
N2    C33   1.358923 A    
C34   C36   1.415431 A    
N3    O10   1.300752 A    
C5    C15   1.425225 A    
C6    C16   1.425038 A    
O4    C2    1.298894 A    
Cu1   N1    2.031462 S    
N8    O19   1.301409 A    
Cu2   N2    2.031461 S    
N5    O14   1.302370 A    
C12   H6    1.077761 S    
C26   H7    1.075151 S    
N7    O17   1.301405 A    
N4    O11   1.301063 A    
O7    C3    1.312376 A    
O6    C4    1.293114 A    
N7    O18   1.300255 A    
O3    Cu2   1.966767 S    
O8    C4    1.312351 A    
N1    C34   1.358933 A    
C8    C10   1.385860 A    
C14   C18   1.408055 A    
C9    C11   1.387023 A    
C27   C28   1.415576 A    
C30   N4    1.433462 S    
C10   C12   1.386957 A    
O1    Cu1   1.965580 S    
C8    H4    1.082806 S    
C21   Cl3   1.769744 S    
O6    Cu2   1.981588 S    
C14   C16   1.410956 A    
C20   C23   1.408936 A    
O3    C1    1.298860 A    
O8    Cu1   1.947922 S    
C33   H10   1.073504 S    
N1    C32   1.378366 A    
C13   C15   1.411000 A    
C29   C36   1.403337 A    
C5    N5    1.432728 S    
C30   C35   1.403273 A    
C29   N3    1.433582 S    
C21   C28   1.414535 A    
C19   C24   1.408965 A    
C31   N8    1.430712 S    
C22   C27   1.414584 A    
C21   C23   1.401315 A    
C22   C24   1.401487 A    
C5    C7    1.405524 A    
C6    C8    1.405495 A    
C11   C13   1.412506 A    
C23   Cl2   1.772362 S    
O2    Cu2   1.965577 S    
O5    Cu1   1.981587 S    
N6    O16   1.298474 A    
N5    O13   1.298932 A    
C34   H9    1.073514 S    
