data_mof_unit_24658.cif
_audit_creation_date              2012-12-10T17:50:17-0500
_audit_creation_method            fapswitch 2.2
_symmetry_space_group_name_H-M    P1
_symmetry_Int_Tables_number       1
_space_group_crystal_system       triclinic
_cell_length_a                    10.623603
_cell_length_b                    14.771956
_cell_length_c                    14.795741
_cell_angle_alpha                 64.74873
_cell_angle_beta                  105.092057
_cell_angle_gamma                 102.577058
_cell_volume                      2012.42649416

loop_
_atom_site_label
_atom_site_type_symbol
_atom_type_description
_atom_site_fract_x
_atom_site_fract_y
_atom_site_fract_z
_atom_type_partial_charge
C1    C     C_R   0.476299 0.119629 0.311624 0.838561
C2    C     C_R   0.520043 0.880856 0.688342 0.831949
C3    C     C_R   0.482014 0.291734 0.178189 -0.267775
C4    C     C_R   0.471990 0.715607 0.825671 -0.281277
C5    C     C_R   0.459568 0.362901 0.077301 0.049822
C6    C     C_R   0.499643 0.642931 0.925868 0.052897
C7    C     C_R   0.393476 0.327691 0.000068 -0.012511
C8    C     C_R   0.580532 0.676284 0.001409 -0.013758
C9    C     C_R   0.498166 0.467977 0.052142 0.015221
C10   C     C_R   0.456443 0.537864 0.951564 0.015875
C11   C     C_R   0.377237 0.499838 0.879269 -0.294899
C12   C     C_R   0.582428 0.504408 0.123756 -0.283734
C13   C     C_R   0.351612 0.396387 0.901147 0.495152
C14   C     C_R   0.618917 0.607095 0.100678 0.479175
C15   C     C_R   0.757177 0.305560 0.629724 -0.416660
C16   C     C_R   0.275295 0.717415 0.330014 -0.382596
C17   C     C_R   0.706788 0.212871 0.619707 0.660363
C18   C     C_R   0.307136 0.796626 0.364258 0.655443
C19   C     C_R   0.509628 0.282513 0.515379 0.527740
C20   C     C_R   0.489749 0.717085 0.484684 0.551253
C21   C     C_R   0.562098 0.380422 0.516169 -0.128658
C22   C     C_R   0.464787 0.637748 0.448167 -0.122820
C23   C     C_R   0.259618 0.999906 0.500178 0.844899
C24   C     C_R   0.740315 0.999629 0.500346 0.852624
C25   C     C_R   0.687557 0.388869 0.576500 0.047350
C26   C     C_R   0.351587 0.637902 0.372748 0.033179
C27   C     C_R   0.494500 0.469013 0.462923 0.077029
C28   C     C_R   0.544344 0.557103 0.485019 0.083739
C29   C     C_R   0.674857 0.563837 0.537459 -0.219014
C30   C     C_R   0.384353 0.475802 0.383831 -0.220801
C31   C     C_R   0.744340 0.481056 0.583118 -0.166204
C32   C     C_R   0.315545 0.559099 0.339012 -0.170331
C33   C     C_3   0.010402 0.919166 0.482725 -0.234425
C34   C     C_3   0.988981 0.079063 0.518340 -0.254361
C35   C     C_3   0.927891 0.005469 0.410421 0.421322
C36   C     C_3   0.071487 0.992778 0.590657 0.409735
C37   C     C_3   0.876987 0.999381 0.500525 -0.086730
C38   C     C_3   0.122588 0.999079 0.500507 -0.095310
C39   C     C_3   0.958073 0.913050 0.573955 -0.227306
C40   C     C_3   0.041207 0.085252 0.427017 -0.253557
C41   C     C_R   0.454726 0.187741 0.202345 -0.129039
C42   C     C_R   0.531530 0.815405 0.798198 -0.123541
C43   C     C_R   0.369386 0.223620 0.023103 -0.174273
C44   C     C_R   0.625594 0.778989 0.976188 -0.164426
C45   C     C_R   0.403189 0.153784 0.122407 0.394089
C46   C     C_R   0.602866 0.848315 0.875985 0.389746
Cu1   Cu    Cu3+1 0.465750 0.918270 0.475680 1.066532
Cu2   Cu    Cu3+1 0.534250 0.081730 0.524320 1.059411
H1    H     H_    0.851214 0.314820 0.677399 0.166582
H2    H     H_    0.192666 0.717953 0.268931 0.172450
H3    H     H_    0.726464 0.633469 0.542531 0.203363
H4    H     H_    0.353134 0.420097 0.351082 0.204671
H5    H     H_    0.020538 0.853483 0.468430 0.166164
H6    H     H_    0.977470 0.144422 0.532481 0.164855
H7    H     H_    0.921607 0.843153 0.634298 0.177976
H8    H     H_    0.077448 0.155178 0.366594 0.180267
H9    H     H_    0.406821 0.696637 0.766003 0.156276
H10   H     H_    0.516075 0.316338 0.240141 0.173296
H11   H     H_    0.324733 0.195835 0.963605 0.217828
H12   H     H_    0.683106 0.805765 0.034080 0.221035
H13   H     H_    0.332985 0.548042 0.804582 0.146773
H14   H     H_    0.628284 0.454688 0.197343 0.155570
H15   H     H_    0.843300 0.489056 0.625273 0.153755
H16   H     H_    0.231511 0.560887 0.278381 0.159272
N1    N     N_R   0.585750 0.204560 0.560800 -0.246562
N2    N     N_R   0.414250 0.795440 0.439200 -0.252549
O1    O     O_R   0.454850 0.022100 0.338110 -0.487489
O2    O     O_R   0.545150 0.977900 0.661890 -0.492690
O3    O     O_R   0.512700 0.160150 0.379180 -0.598921
O4    O     O_R   0.487300 0.839850 0.620820 -0.580294
O5    O     O_R   0.287930 0.931000 0.479440 -0.571924
O6    O     O_R   0.712070 0.069000 0.520560 -0.562848
O7    O     O_R   0.345780 0.069050 0.520520 -0.530277
O8    O     O_R   0.654220 0.930950 0.479480 -0.529227
Cl1   Cl    Cl    0.828695 0.014126 0.290351 -0.595811
Cl2   Cl    Cl    0.169618 0.982988 0.711331 -0.637718
O9    O     O_3   0.585740 0.715271 0.568620 -0.563797
C47   C     C_3   0.542442 0.641012 0.657147 -0.317166
H17   H     H_    0.556287 0.564277 0.669167 0.159747
H18   H     H_    0.437415 0.642023 0.655286 0.135915
H19   H     H_    0.602894 0.655608 0.723998 0.204443
O10   O     O_3   0.380475 0.262733 0.472962 -0.579600
C48   C     C_3   0.301650 0.248897 0.542473 -0.275336
H20   H     H_    0.310053 0.317553 0.557754 0.133266
H21   H     H_    0.326038 0.183481 0.615349 0.223691
H22   H     H_    0.197712 0.233787 0.508387 0.185097
O11   O     O_3   0.239396 0.880620 0.319618 -0.516918
C49   C     C_3   0.103235 0.856831 0.289255 -0.238494
H23   H     H_    0.052744 0.919008 0.280826 0.226277
H24   H     H_    0.061950 0.786282 0.346754 0.118166
H25   H     H_    0.081831 0.852491 0.213533 0.195776
O12   O     O_3   0.772097 0.127136 0.668885 -0.517493
C50   C     C_3   0.905459 0.144376 0.712078 -0.210554
H26   H     H_    0.950979 0.074765 0.736633 0.233728
H27   H     H_    0.914714 0.159373 0.781167 0.195353
H28   H     H_    0.960456 0.205959 0.655823 0.113855
O13   O     O_3   0.271987 0.361185 0.829427 -0.579450
C51   C     C_3   0.335129 0.389305 0.746799 -0.337515
H29   H     H_    0.440679 0.376930 0.771831 0.167331
H30   H     H_    0.324280 0.468776 0.694038 0.154333
H31   H     H_    0.285986 0.341554 0.703655 0.192072
O14   O     O_3   0.707832 0.639526 0.171106 -0.589693
C52   C     C_3   0.647925 0.620724 0.252997 -0.276714
H32   H     H_    0.637217 0.538986 0.302009 0.162990
H33   H     H_    0.551190 0.650414 0.226340 0.180215
H34   H     H_    0.712367 0.660143 0.300671 0.202279
Cl3   Cl    Cl    0.668229 0.974186 0.855097 -0.532598
Cl4   Cl    Cl    0.377009 0.025931 0.140011 -0.512131

loop_
_geom_bond_atom_site_label_1
_geom_bond_atom_site_label_2
_ccdc_geom_bond_type
C25   C31   A    
C38   C40   S    
O11   C49   S    
C26   C32   A    
C50   H26   S    
C34   C37   S    
Cu2   O3    S    
O13   C51   S    
O9    C47   S    
C35   Cl1   S    
C33   C39   S    
C20   O9    S    
C34   C40   S    
C20   N2    A    
C28   C29   A    
C35   C37   S    
C16   H2    S    
C2    O2    A    
C20   C22   A    
C47   H18   S    
C14   O14   S    
C51   H29   S    
C42   C46   A    
C21   C25   A    
C36   Cl2   S    
C33   C35   S    
C39   H7    S    
C48   H20   S    
C40   H8    S    
C4    H9    S    
C7    C43   A    
Cu2   N1    S    
C19   O10   S    
C9    C10   A    
Cu1   N2    S    
C45   Cl4   S    
C43   H11   S    
C21   C27   A    
C50   H27   S    
C22   C28   A    
C27   C30   A    
C33   H5    S    
C17   O12   S    
C23   O7    A    
Cu1   O1    S    
C44   C46   A    
C16   C26   A    
C44   H12   S    
C31   H15   S    
C32   H16   S    
C4    C6    A    
C5    C7    A    
C47   H17   S    
C6    C8    A    
C3    C5    A    
C1    O3    A    
Cu1   O4    S    
C5    C9    A    
C23   O5    A    
C12   H14   S    
Cu1   Cu2   S    
C49   H25   S    
C46   Cl3   S    
C24   C37   S    
C52   H33   S    
C16   C18   A    
Cu2   O2    S    
C43   C45   A    
Cu1   O5    S    
C1    C41   S    
C48   H21   S    
C12   C14   A    
C34   H6    S    
C50   H28   S    
C51   H30   S    
Cu2   O6    S    
C51   H31   S    
C52   H32   S    
C24   O6    A    
C29   H3    S    
C15   C17   A    
C30   H4    S    
C3    C41   A    
C8    C14   A    
C19   C21   A    
Cu2   O7    S    
C36   C39   S    
C8    C44   A    
Cu1   O8    S    
C49   H24   S    
C11   H13   S    
C6    C10   A    
C18   N2    A    
C23   C38   S    
C17   N1    A    
C18   O11   S    
C36   C38   S    
C35   C40   S    
C37   C39   S    
C30   C32   A    
C11   C13   A    
C47   H19   S    
C24   O8    A    
C4    C42   A    
C2    C42   S    
O12   C50   S    
C1    O1    A    
C19   N1    A    
C52   H34   S    
C34   C36   S    
C15   H1    S    
C13   O13   S    
O14   C52   S    
C9    C12   A    
C15   C25   A    
C10   C11   A    
C3    H10   S    
C7    C13   A    
C48   H22   S    
C49   H23   S    
C29   C31   A    
O10   C48   S    
C22   C26   A    
C27   C28   A    
C41   C45   A    
C33   C38   S    
C2    O4    A    
