data_mof_unit_16164.cif
_audit_creation_date              2013-03-05T16:22:37-0500
_audit_creation_method            fapswitch 2.2
_symmetry_space_group_name_H-M    P1
_symmetry_Int_Tables_number       1
_space_group_crystal_system       triclinic
_cell_length_a                    9.748175
_cell_length_b                    10.496263
_cell_length_c                    16.747566
_cell_angle_alpha                 89.974785
_cell_angle_beta                  84.909721
_cell_angle_gamma                 90.633601
_cell_volume                      1706.73673345

loop_
_atom_site_label
_atom_site_type_symbol
_atom_site_description
_atom_site_fract_x
_atom_site_fract_y
_atom_site_fract_z
_atom_type_partial_charge
O1    O     O_R   0.383390 0.686040 0.500000 -0.635700
O2    O     O_R   0.616610 0.313960 0.500000 -0.638194
O3    O     O_R   0.616650 0.686050 0.499970 -0.576298
O4    O     O_R   0.383350 0.313950 0.500030 -0.580797
C1    C     C_R   0.501021 0.742419 0.498761 0.920885
C2    C     C_R   0.498985 0.257602 0.501144 0.911797
O5    O     O_R   0.369590 0.500020 0.615820 -0.620755
O6    O     O_R   0.630410 0.499980 0.384180 -0.618258
O7    O     O_R   0.602840 0.500020 0.615790 -0.624114
O8    O     O_R   0.397160 0.499980 0.384210 -0.624069
C3    C     C_R   0.480492 0.497092 0.653230 0.880182
C4    C     C_R   0.519284 0.492545 0.347157 0.880887
Zn1   Zn    Zn3+2 0.344250 0.499990 0.500020 0.956872
Zn2   Zn    Zn3+2 0.655750 0.500010 0.499980 0.959112
C5    C     C_R   0.467976 0.473139 0.739196 -0.099090
C6    C     C_R   0.530561 0.450169 0.264217 -0.092165
C7    C     C_R   0.587152 0.466005 0.779425 -0.190140
C8    C     C_R   0.418239 0.386534 0.235326 -0.188728
C9    C     C_R   0.578693 0.428150 0.858598 -0.159424
C10   C     C_R   0.429225 0.336509 0.158917 -0.183033
C11   C     C_R   0.450861 0.396121 0.899336 0.043580
C12   C     C_R   0.550930 0.353307 0.108742 0.043764
C13   C     C_R   0.329246 0.403617 0.859517 0.323265
C14   C     C_R   0.667963 0.410880 0.138645 0.338544
C15   C     C_R   0.339330 0.443217 0.779478 -0.252223
C16   C     C_R   0.656521 0.457684 0.217121 -0.266215
C17   C     C_2   0.443065 0.377048 0.986045 -0.122617
C18   C     C_2   0.546468 0.327593 0.023289 -0.167802
H1    H     H_    0.687649 0.488900 0.749656 0.178925
H2    H     H_    0.321808 0.373901 0.272051 0.173820
H3    H     H_    0.744730 0.503427 0.240516 0.186855
H4    H     H_    0.247094 0.446182 0.747932 0.190208
H5    H     H_    0.635478 0.286403 0.989699 0.194191
H6    H     H_    0.356098 0.420023 0.020804 0.194653
H7    H     H_    0.340154 0.289213 0.137499 0.188706
H8    H     H_    0.672651 0.428442 0.888291 0.213584
C19   C     C_3   0.415177 0.957164 0.445457 -0.315499
C20   C     C_3   0.584795 0.042950 0.554314 -0.312114
C21   C     C_3   0.542537 0.045064 0.425695 -0.334081
C22   C     C_3   0.457429 0.955077 0.574072 -0.332016
H9    H     H_    0.577031 0.086753 0.366240 0.163781
H10   H     H_    0.422828 0.913547 0.633545 0.163407
H11   H     H_    0.345764 0.917715 0.402287 0.163862
H12   H     H_    0.654163 0.082461 0.597491 0.164528
C23   C     C_3   0.497666 0.122758 0.501100 -0.121219
C24   C     C_3   0.502323 0.877331 0.498679 -0.125243
C25   C     C_3   0.372613 0.036268 0.520519 0.654786
C26   C     C_3   0.627370 0.963862 0.479248 0.655139
C27   C     C_3   0.948516 0.606570 0.527123 -0.069002
C28   C     C_3   0.051491 0.393415 0.472878 -0.070235
C29   C     C_3   0.056590 0.590765 0.455507 -0.057845
C30   C     C_3   0.943404 0.409218 0.544491 -0.058075
H13   H     H_    0.109315 0.667285 0.418206 0.127894
H14   H     H_    0.890657 0.332744 0.581827 0.126976
H15   H     H_    0.900274 0.696362 0.549877 0.154459
H16   H     H_    0.099764 0.303654 0.450087 0.152032
N1    N     N_3   0.136700 0.499970 0.500060 -0.078998
N2    N     N_3   0.863300 0.500030 0.499940 -0.079210
C31   C     C_3   0.037781 0.515760 0.571687 -0.079005
C32   C     C_3   0.962215 0.484216 0.428312 -0.078668
H17   H     H_    0.074467 0.529104 0.632041 0.137246
H18   H     H_    0.925507 0.470795 0.367965 0.140126
N3    N     N_R   0.196239 0.369511 0.898595 0.210425
O9    O     O_R   0.183782 0.277585 0.951002 -0.360662
O10   O     O_R   0.085190 0.420018 0.875201 -0.357734
N4    N     N_R   0.796199 0.427650 0.090110 0.212336
O11   O     O_R   0.798029 0.470496 0.017152 -0.371045
O12   O     O_R   0.912057 0.419694 0.122787 -0.369344
O13   O     O_3   0.240060 0.085036 0.541648 -0.602927
C33   C     C_3   0.148300 0.983299 0.562361 -0.319326
H19   H     H_    0.175824 0.933876 0.617345 0.175963
H20   H     H_    0.143993 0.914258 0.512225 0.157320
H21   H     H_    0.043554 0.022338 0.575714 0.191862
O14   O     O_3   0.759982 0.915235 0.458107 -0.603141
C34   C     C_3   0.851602 0.017085 0.437380 -0.322629
H22   H     H_    0.855843 0.086136 0.487516 0.158679
H23   H     H_    0.823986 0.066481 0.382404 0.176042
H24   H     H_    0.956401 0.978176 0.424007 0.190944

loop_
_geom_bond_atom_site_label_1
_geom_bond_atom_site_label_2
_geom_bond_distance
_ccdc_geom_bond_type
C22   C25   1.536471 S    
N4    O12   1.301444 A    
N3    O10   1.301609 A    
C2    C23   1.415276 S    
C7    H1    1.083542 S    
O7    Zn2   1.962220 S    
C21   H9    1.110379 S    
C22   C24   1.537043 S    
O1    C1    1.283075 A    
C9    C11   1.403924 A    
C14   C16   1.398891 A    
C9    H8    1.080262 S    
N1    C31   1.481462 S    
Zn1   N1    2.023172 S    
N2    C32   1.481480 S    
C32   H18   1.110199 S    
O4    Zn1   1.993711 S    
C25   O13   1.410864 S    
C20   C23   1.538430 S    
C10   H7    1.083939 S    
C3    C5    1.455584 S    
C4    C6    1.453924 S    
C27   C29   1.534847 S    
C28   C30   1.534908 S    
C33   H19   1.111559 S    
C8    H2    1.083554 S    
C19   C25   1.535524 S    
C20   C26   1.535520 S    
C14   N4    1.438428 S    
C21   C23   1.536857 S    
C15   H4    1.083241 S    
C13   N3    1.441016 S    
N4    O11   1.300390 A    
C11   C17   1.460982 S    
C16   H3    1.083630 S    
C12   C18   1.460819 S    
O2    C2    1.283015 A    
O8    C4    1.295931 A    
C30   H14   1.110426 S    
C23   C25   1.523448 S    
C17   H6    1.087275 S    
C6    C16   1.400708 A    
Zn2   N2    2.023172 S    
C24   C26   1.523687 S    
C31   H17   1.110121 S    
O14   C34   1.408749 S    
C26   O14   1.410855 S    
O4    C2    1.280342 A    
C27   H15   1.110392 S    
C28   H16   1.110426 S    
C27   N2    1.481500 S    
C29   H13   1.110382 S    
C19   H11   1.110359 S    
O5    C3    1.297367 A    
C34   H22   1.112686 S    
C20   H12   1.110397 S    
C30   C31   1.535091 S    
O7    C3    1.297319 A    
O6    C4    1.296681 A    
C33   H21   1.108751 S    
C34   H23   1.111595 S    
O3    Zn2   1.993710 S    
C30   N2    1.481297 S    
C29   N1    1.481231 S    
C10   C12   1.401104 A    
C18   H5    1.085422 S    
C11   C13   1.413747 A    
C12   C14   1.415605 A    
O1    Zn1   1.985601 S    
C5    C7    1.396415 A    
O6    Zn2   1.976659 S    
C28   N1    1.481579 S    
O3    C1    1.280539 A    
O8    Zn1   1.962220 S    
C1    C24   1.415982 S    
C27   C31   1.534832 S    
C28   C32   1.534848 S    
C19   C21   1.550365 S    
C20   C22   1.550233 S    
C22   H10   1.110238 S    
C7    C9    1.379215 A    
C8    C10   1.379208 A    
C13   C15   1.398032 A    
O13   C33   1.408648 S    
O2    Zn2   1.985604 S    
C34   H24   1.108745 S    
C5    C15   1.402644 A    
N3    O9    1.301471 A    
O5    Zn1   1.976659 S    
C6    C8    1.399015 A    
C17   C18   1.340688 D    
C33   H20   1.112680 S    
C29   C32   1.535122 S    
C19   C24   1.538758 S    
C21   C26   1.536633 S    
