data_mof_unit_63589.cif
_audit_creation_date              2012-12-10T18:13:51-0500
_audit_creation_method            fapswitch 2.2
_symmetry_space_group_name_H-M    P1
_symmetry_Int_Tables_number       1
_space_group_crystal_system       triclinic
_cell_length_a                    32.256912
_cell_length_b                    32.25688
_cell_length_c                    30.169454
_cell_angle_alpha                 90.00001
_cell_angle_beta                  90.00001
_cell_angle_gamma                 89.999982
_cell_volume                      31391.5383174

loop_
_atom_site_label
_atom_site_type_symbol
_atom_type_description
_atom_site_fract_x
_atom_site_fract_y
_atom_site_fract_z
_atom_type_partial_charge
C1    C     C_R   0.420465 0.000000 1.000000 0.804434
C2    C     C_R   1.000000 0.579535 0.000000 0.804740
C3    C     C_R   0.579535 1.000000 1.000000 0.804433
C4    C     C_R   1.000000 0.420465 0.000000 0.804741
C5    C     C_R   0.920465 0.500000 0.500000 0.806018
C6    C     C_R   0.500000 0.079535 0.500000 0.806034
C7    C     C_R   0.079535 0.500000 0.500000 0.806017
C8    C     C_R   0.500000 0.920465 0.500000 0.806035
C9    C     C_R   0.271704 0.971431 0.026428 0.311942
C10   C     C_R   0.972219 0.728295 0.027372 0.311991
C11   C     C_R   0.728296 0.028569 0.026428 0.311943
C12   C     C_R   0.027781 0.271705 0.027372 0.311991
C13   C     C_R   0.271704 0.028570 0.973572 0.311942
C14   C     C_R   0.972220 0.271704 0.972627 0.311991
C15   C     C_R   0.728296 0.971430 0.973572 0.311942
C16   C     C_R   0.027780 0.728295 0.972628 0.311992
C17   C     C_R   0.771706 0.475016 0.530297 0.312018
C18   C     C_R   0.475019 0.228294 0.530301 0.312016
C19   C     C_R   0.228294 0.524984 0.530297 0.312018
C20   C     C_R   0.524980 0.771706 0.530301 0.312018
C21   C     C_R   0.771706 0.524984 0.469703 0.312019
C22   C     C_R   0.475020 0.771706 0.469699 0.312018
C23   C     C_R   0.228294 0.475015 0.469703 0.312018
C24   C     C_R   0.524980 0.228294 0.469699 0.312017
C25   C     C_R   0.293559 0.000000 0.000000 -0.190142
C26   C     C_R   1.000000 0.706440 1.000000 -0.189945
C27   C     C_R   0.706441 1.000000 0.000000 -0.190143
C28   C     C_R   0.000000 0.293560 1.000000 -0.189945
C29   C     C_R   0.793561 0.500000 0.500000 -0.189158
C30   C     C_R   0.500000 0.206439 0.500000 -0.189147
C31   C     C_R   0.206439 0.500000 0.500000 -0.189158
C32   C     C_R   0.500000 0.793561 0.500000 -0.189148
C33   C     C_1   0.161313 0.000001 1.000000 0.194450
C34   C     C_1   0.999999 0.838686 0.000000 0.194655
C35   C     C_1   0.838687 0.999999 1.000000 0.194450
C36   C     C_1   0.000000 0.161313 0.000000 0.194655
C37   C     C_1   0.661314 0.500001 0.500000 0.194213
C38   C     C_1   0.499999 0.338685 0.500000 0.194215
C39   C     C_1   0.338685 0.499999 0.500000 0.194213
C40   C     C_1   0.500001 0.661315 0.500000 0.194215
C41   C     C_1   0.338464 0.000000 0.000000 0.185055
C42   C     C_1   1.000000 0.661536 1.000000 0.185195
C43   C     C_1   0.661536 1.000000 0.000000 0.185055
C44   C     C_1   0.000000 0.338464 1.000000 0.185195
C45   C     C_1   0.838465 0.500000 0.500000 0.185327
C46   C     C_1   0.500000 0.161535 0.500000 0.185318
C47   C     C_1   0.161535 0.500000 0.500000 0.185327
C48   C     C_1   0.500000 0.838465 0.500000 0.185318
C49   C     C_1   0.375902 0.000000 0.000000 -0.093318
C50   C     C_1   1.000000 0.624098 1.000000 -0.093297
C51   C     C_1   0.624098 1.000000 1.000000 -0.093318
C52   C     C_1   1.000000 0.375902 0.000000 -0.093297
C53   C     C_1   0.875903 0.500000 0.500000 -0.093790
C54   C     C_1   0.500000 0.124097 0.500000 -0.093823
C55   C     C_1   0.124097 0.500000 0.500000 -0.093790
C56   C     C_1   0.500000 0.875903 0.500000 -0.093823
C57   C     C_1   0.123874 0.000000 1.000000 -0.068510
C58   C     C_1   1.000000 0.876126 0.000000 -0.068235
C59   C     C_1   0.876126 1.000000 1.000000 -0.068510
C60   C     C_1   0.000000 0.123874 0.000000 -0.068235
C61   C     C_1   0.623875 0.500000 0.500000 -0.068579
C62   C     C_1   0.500000 0.376125 0.500000 -0.068577
C63   C     C_1   0.376125 0.500000 0.500000 -0.068579
C64   C     C_1   0.500000 0.623875 0.500000 -0.068577
C65   C     C_R   0.000000 0.079308 0.000000 0.800037
C66   C     C_R   0.079308 0.000000 1.000000 0.800065
C67   C     C_R   1.000000 0.920692 0.000000 0.800038
C68   C     C_R   0.920692 1.000000 1.000000 0.800066
C69   C     C_R   0.500000 0.579309 0.500000 0.797506
C70   C     C_R   0.579309 0.500000 0.500000 0.797506
C71   C     C_R   0.500000 0.420691 0.500000 0.797507
C72   C     C_R   0.420691 0.500000 0.500000 0.797507
C73   C     C_R   0.500000 1.000000 0.085803 0.806477
C74   C     C_R   1.000000 0.500000 0.085803 0.806769
C75   C     C_R   0.500000 0.000000 0.914197 0.806477
C76   C     C_R   1.000000 0.500000 0.914197 0.806771
C77   C     C_R   1.000000 0.500000 0.585802 0.808010
C78   C     C_R   0.500000 0.000000 0.585802 0.808026
C79   C     C_R   1.000000 0.500000 0.414198 0.808009
C80   C     C_R   0.500000 0.000000 0.414198 0.808028
C81   C     C_R   0.472406 0.025688 0.342859 -0.204680
C82   C     C_R   0.025687 0.527595 0.342859 -0.204601
C83   C     C_R   0.527594 0.974312 0.342859 -0.204680
C84   C     C_R   0.974313 0.472405 0.342859 -0.204600
C85   C     C_R   0.472408 0.974310 0.657141 -0.204680
C86   C     C_R   0.025685 0.472403 0.657141 -0.204601
C87   C     C_R   0.527592 0.025690 0.657141 -0.204681
C88   C     C_R   0.974315 0.527597 0.657141 -0.204601
C89   C     C_R   0.972329 0.525605 0.842854 -0.205079
C90   C     C_R   0.525603 0.027673 0.842854 -0.205375
C91   C     C_R   0.027671 0.474395 0.842854 -0.205079
C92   C     C_R   0.474397 0.972327 0.842854 -0.205373
C93   C     C_R   0.972330 0.474394 0.157146 -0.205079
C94   C     C_R   0.525601 0.972325 0.157146 -0.205374
C95   C     C_R   0.027670 0.525606 0.157146 -0.205079
C96   C     C_R   0.474399 0.027675 0.157146 -0.205374
C97   C     C_R   0.500000 0.000000 0.365906 -0.056686
C98   C     C_R   1.000000 0.500000 0.365906 -0.056690
C99   C     C_R   0.500000 1.000000 0.634094 -0.056684
C100  C     C_R   1.000000 0.500000 0.634094 -0.056691
C101  C     C_R   1.000000 0.500000 0.865903 -0.056720
C102  C     C_R   0.500000 1.000000 0.865903 -0.056722
C103  C     C_R   1.000000 0.500000 0.134097 -0.056718
C104  C     C_R   0.500000 1.000000 0.134097 -0.056724
C105  C     C_R   0.527291 0.973581 0.296559 0.104380
C106  C     C_R   0.973584 0.472707 0.296559 0.104372
C107  C     C_R   0.472709 0.026418 0.296559 0.104380
C108  C     C_R   0.026416 0.527293 0.296559 0.104372
C109  C     C_R   0.527290 0.026419 0.703441 0.104382
C110  C     C_R   0.973585 0.527294 0.703441 0.104371
C111  C     C_R   0.472710 0.973580 0.703441 0.104381
C112  C     C_R   0.026415 0.472706 0.703441 0.104371
C113  C     C_R   0.027371 0.473665 0.796554 0.104251
C114  C     C_R   0.473668 0.972626 0.796554 0.104238
C115  C     C_R   0.972629 0.526335 0.796554 0.104251
C116  C     C_R   0.526332 0.027374 0.796554 0.104238
C117  C     C_R   0.027370 0.526336 0.203446 0.104252
C118  C     C_R   0.473668 0.027374 0.203446 0.104238
C119  C     C_R   0.972629 0.473664 0.203446 0.104251
C120  C     C_R   0.526332 0.972626 0.203446 0.104238
C121  C     C_R   0.500000 1.000000 0.273290 0.066102
C122  C     C_R   1.000000 0.500000 0.273290 0.066138
C123  C     C_R   0.500000 1.000000 0.726710 0.066100
C124  C     C_R   1.000000 0.500000 0.726710 0.066139
C125  C     C_R   1.000000 0.500000 0.773285 0.066283
C126  C     C_R   0.500000 1.000000 0.773285 0.066292
C127  C     C_R   1.000000 0.500000 0.226715 0.066283
C128  C     C_R   0.500000 1.000000 0.226715 0.066293
C129  C     C_R   0.553672 0.946864 0.273137 -0.168411
C130  C     C_R   0.946869 0.446323 0.273136 -0.168294
C131  C     C_R   0.446328 0.053136 0.273137 -0.168411
C132  C     C_R   0.053131 0.553677 0.273136 -0.168293
C133  C     C_R   0.553671 0.053137 0.726863 -0.168410
C134  C     C_R   0.946870 0.553678 0.726863 -0.168294
C135  C     C_R   0.446329 0.946862 0.726863 -0.168411
C136  C     C_R   0.053130 0.446322 0.726863 -0.168294
C137  C     C_R   0.053835 0.447028 0.773132 -0.168686
C138  C     C_R   0.447034 0.946160 0.773131 -0.168959
C139  C     C_R   0.946165 0.552971 0.773132 -0.168687
C140  C     C_R   0.552966 0.053840 0.773131 -0.168959
C141  C     C_R   0.053834 0.552972 0.226868 -0.168687
C142  C     C_R   0.447035 0.053841 0.226869 -0.168958
C143  C     C_R   0.946166 0.447028 0.226868 -0.168686
C144  C     C_R   0.552965 0.946159 0.226869 -0.168958
C145  C     C_R   0.228074 0.028578 0.973582 0.316152
C146  C     C_R   0.027789 0.771925 0.972637 0.316308
C147  C     C_R   0.771925 0.971422 0.973582 0.316151
C148  C     C_R   0.972212 0.228075 0.972637 0.316310
C149  C     C_R   0.228074 0.971423 0.026418 0.316151
C150  C     C_R   0.027789 0.228075 0.027363 0.316310
C151  C     C_R   0.771926 0.028577 0.026418 0.316150
C152  C     C_R   0.972210 0.771925 0.027362 0.316310
C153  C     C_R   0.728076 0.524993 0.469711 0.316243
C154  C     C_R   0.524988 0.271924 0.469707 0.316247
C155  C     C_R   0.271923 0.475006 0.469711 0.316242
C156  C     C_R   0.475012 0.728076 0.469707 0.316247
C157  C     C_R   0.728076 0.475008 0.530289 0.316242
C158  C     C_R   0.524989 0.728076 0.530292 0.316246
C159  C     C_R   0.271924 0.524993 0.530289 0.316242
C160  C     C_R   0.475010 0.271924 0.530292 0.316248
C161  C     C_R   0.206219 0.000000 0.000000 -0.190939
C162  C     C_R   0.999999 0.793781 1.000000 -0.190946
C163  C     C_R   0.793781 0.999999 0.000000 -0.190939
C164  C     C_R   0.000000 0.206219 1.000000 -0.190947
C165  C     C_R   0.706220 0.500000 0.500000 -0.190871
C166  C     C_R   0.499999 0.293780 0.500000 -0.190872
C167  C     C_R   0.293780 0.499999 0.500000 -0.190871
C168  C     C_R   0.500000 0.706220 0.500000 -0.190871
Cu1   Cu    Cu3+1 0.500000 0.958950 0.000000 1.047960
Cu2   Cu    Cu3+1 0.958950 0.500000 0.000000 1.047629
Cu3   Cu    Cu3+1 0.500000 0.041050 0.000000 1.047959
Cu4   Cu    Cu3+1 0.041050 0.500000 0.000000 1.047629
Cu5   Cu    Cu3+1 0.000000 0.458950 0.500000 1.044819
Cu6   Cu    Cu3+1 0.458950 0.000000 0.500000 1.044701
Cu7   Cu    Cu3+1 0.000000 0.541050 0.500000 1.044819
Cu8   Cu    Cu3+1 0.541050 0.000000 0.500000 1.044700
Cu9   Cu    Cu3+1 1.000000 1.000000 0.044450 1.091535
Cu10  Cu    Cu3+1 0.000000 1.000000 0.955550 1.091535
Cu11  Cu    Cu3+1 0.500000 0.500000 0.544450 1.095881
Cu12  Cu    Cu3+1 0.500000 0.500000 0.455550 1.095881
H1    H     H_    0.451391 0.045682 0.361048 0.155616
H2    H     H_    0.045680 0.548611 0.361048 0.155628
H3    H     H_    0.548609 0.954318 0.361048 0.155616
H4    H     H_    0.954320 0.451389 0.361048 0.155629
H5    H     H_    0.451394 0.954314 0.638952 0.155614
H6    H     H_    0.045677 0.451385 0.638952 0.155631
H7    H     H_    0.548606 0.045686 0.638952 0.155614
H8    H     H_    0.954323 0.548614 0.638952 0.155631
H9    H     H_    0.951253 0.545536 0.861041 0.155781
H10   H     H_    0.545533 0.048750 0.861041 0.155764
H11   H     H_    0.048747 0.454464 0.861041 0.155781
H12   H     H_    0.454467 0.951250 0.861041 0.155764
H13   H     H_    0.951256 0.454461 0.138958 0.155779
H14   H     H_    0.545530 0.951247 0.138959 0.155766
H15   H     H_    0.048744 0.545539 0.138958 0.155779
H16   H     H_    0.454470 0.048753 0.138959 0.155766
O1    O     O_R   0.440170 0.965330 0.000010 -0.565809
O2    O     O_R   0.965330 0.559830 0.000010 -0.565998
O3    O     O_R   0.559830 0.034670 0.000010 -0.565809
O4    O     O_R   0.034670 0.440170 0.000010 -0.565998
O5    O     O_R   0.440170 0.034670 0.999990 -0.565809
O6    O     O_R   0.965330 0.440170 0.999990 -0.565997
O7    O     O_R   0.559830 0.965330 0.999990 -0.565809
O8    O     O_R   0.034670 0.559830 0.999990 -0.565998
O9    O     O_R   0.940170 0.465330 0.500010 -0.566848
O10   O     O_R   0.465330 0.059830 0.500010 -0.566860
O11   O     O_R   0.059830 0.534670 0.500010 -0.566848
O12   O     O_R   0.534670 0.940170 0.500010 -0.566860
O13   O     O_R   0.940170 0.534670 0.499990 -0.566848
O14   O     O_R   0.465330 0.940170 0.499990 -0.566860
O15   O     O_R   0.059830 0.465330 0.499990 -0.566848
O16   O     O_R   0.534670 0.059830 0.499990 -0.566860
O17   O     O_R   0.500030 0.965330 0.064870 -0.576712
O18   O     O_R   0.965330 0.499970 0.064870 -0.576730
O19   O     O_R   0.499970 0.034670 0.064870 -0.576712
O20   O     O_R   0.034670 0.500030 0.064870 -0.576731
O21   O     O_R   0.500030 0.034670 0.935130 -0.576711
O22   O     O_R   0.965330 0.500030 0.935130 -0.576731
O23   O     O_R   0.499970 0.965330 0.935130 -0.576710
O24   O     O_R   0.034670 0.499970 0.935130 -0.576732
O25   O     O_R   0.000030 0.465330 0.564870 -0.576984
O26   O     O_R   0.465330 0.999970 0.564870 -0.577001
O27   O     O_R   0.999970 0.534670 0.564870 -0.576985
O28   O     O_R   0.534670 0.000030 0.564870 -0.577001
O29   O     O_R   0.000030 0.534670 0.435130 -0.576983
O30   O     O_R   0.465330 0.000030 0.435130 -0.577002
O31   O     O_R   0.999970 0.465330 0.435130 -0.576983
O32   O     O_R   0.534670 0.999970 0.435130 -0.577002
O33   O     O_R   0.000010 0.059770 0.037600 -0.561699
O34   O     O_R   0.059770 0.999990 0.037600 -0.561870
O35   O     O_R   0.999990 0.940230 0.037600 -0.561699
O36   O     O_R   0.940230 0.000010 0.037600 -0.561869
O37   O     O_R   0.000010 0.940230 0.962400 -0.561698
O38   O     O_R   0.059770 0.000010 0.962400 -0.561869
O39   O     O_R   0.999990 0.059770 0.962400 -0.561698
O40   O     O_R   0.940230 0.999990 0.962400 -0.561869
O41   O     O_R   0.500010 0.559770 0.537600 -0.560738
O42   O     O_R   0.559770 0.499990 0.537600 -0.560739
O43   O     O_R   0.499990 0.440230 0.537600 -0.560738
O44   O     O_R   0.440230 0.500010 0.537600 -0.560739
O45   O     O_R   0.500010 0.440230 0.462400 -0.560737
O46   O     O_R   0.559770 0.500010 0.462400 -0.560738
O47   O     O_R   0.499990 0.559770 0.462400 -0.560737
O48   O     O_R   0.440230 0.499990 0.462400 -0.560738
H17   H     H_    0.574663 0.926351 0.290610 0.165583
H18   H     H_    0.926357 0.425330 0.290609 0.165609
H19   H     H_    0.425337 0.073649 0.290610 0.165583
H20   H     H_    0.073642 0.574670 0.290610 0.165609
H21   H     H_    0.574662 0.073651 0.709390 0.165583
H22   H     H_    0.926359 0.574672 0.709390 0.165609
H23   H     H_    0.425339 0.926349 0.709390 0.165584
H24   H     H_    0.073640 0.425328 0.709390 0.165609
H25   H     H_    0.074889 0.426580 0.790605 0.165641
H26   H     H_    0.426588 0.925104 0.790604 0.165596
H27   H     H_    0.925111 0.573420 0.790605 0.165641
H28   H     H_    0.573412 0.074896 0.790604 0.165596
H29   H     H_    0.074888 0.573421 0.209395 0.165641
H30   H     H_    0.426589 0.074898 0.209396 0.165596
H31   H     H_    0.925112 0.426579 0.209395 0.165640
H32   H     H_    0.573411 0.925102 0.209396 0.165596
Cl1   Cl    Cl    0.299005 0.064500 0.940308 -0.456378
Cl2   Cl    Cl    0.062718 0.700994 0.938176 -0.456755
Cl3   Cl    Cl    0.700995 0.935500 0.940308 -0.456378
Cl4   Cl    Cl    0.937283 0.299006 0.938175 -0.456755
Cl5   Cl    Cl    0.299005 0.935500 0.059692 -0.456377
Cl6   Cl    Cl    0.062718 0.299006 0.061825 -0.456756
Cl7   Cl    Cl    0.700995 0.064500 0.059692 -0.456377
Cl8   Cl    Cl    0.937281 0.700994 0.061824 -0.456755
Cl9   Cl    Cl    0.799007 0.556402 0.431572 -0.459705
Cl10  Cl    Cl    0.556392 0.200993 0.431563 -0.459782
Cl11  Cl    Cl    0.200992 0.443597 0.431573 -0.459704
Cl12  Cl    Cl    0.443607 0.799007 0.431563 -0.459783
Cl13  Cl    Cl    0.799007 0.443599 0.568428 -0.459704
Cl14  Cl    Cl    0.556393 0.799007 0.568436 -0.459783
Cl15  Cl    Cl    0.200993 0.556402 0.568427 -0.459704
Cl16  Cl    Cl    0.443607 0.200992 0.568437 -0.459783
Cl17  Cl    Cl    0.200775 0.064544 0.940360 -0.442820
Cl18  Cl    Cl    0.062764 0.799225 0.938228 -0.442458
Cl19  Cl    Cl    0.799225 0.935456 0.940360 -0.442820
Cl20  Cl    Cl    0.937237 0.200775 0.938227 -0.442459
Cl21  Cl    Cl    0.200775 0.935457 0.059640 -0.442820
Cl22  Cl    Cl    0.062764 0.200775 0.061773 -0.442459
Cl23  Cl    Cl    0.799225 0.064543 0.059640 -0.442820
Cl24  Cl    Cl    0.937235 0.799225 0.061772 -0.442458
Cl25  Cl    Cl    0.700778 0.556451 0.431617 -0.443805
Cl26  Cl    Cl    0.556442 0.299222 0.431608 -0.443820
Cl27  Cl    Cl    0.299222 0.443548 0.431618 -0.443804
Cl28  Cl    Cl    0.443558 0.700778 0.431609 -0.443820
Cl29  Cl    Cl    0.700778 0.443550 0.568383 -0.443805
Cl30  Cl    Cl    0.556443 0.700778 0.568391 -0.443819
Cl31  Cl    Cl    0.299222 0.556451 0.568382 -0.443805
Cl32  Cl    Cl    0.443557 0.299222 0.568391 -0.443820

loop_
_geom_bond_atom_site_label_1
_geom_bond_atom_site_label_2
_ccdc_geom_bond_type
C23   C155  A    
C119  C143  A    
Cu6   O26   S    
Cu7   O11   S    
C8    C56   S    
C129  H17   S    
C9    C149  A    
C66   O38   A    
C112  C136  A    
C112  C124  A    
C22   Cl12  S    
C149  Cl21  S    
C3    O7    A    
C77   C100  S    
C142  H30   S    
C77   O27   A    
C155  C167  A    
C120  C144  A    
C160  C166  A    
C92   C102  A    
C19   C31   A    
C20   C158  A    
C74   O18   A    
C93   C119  A    
C82   C98   A    
C6    C54   S    
C41   C49   T    
C116  C140  A    
C24   C154  A    
C158  C168  A    
C12   C150  A    
C121  C128  A    
C154  C166  A    
C25   C41   S    
C123  C126  A    
C17   Cl13  S    
C21   C29   A    
C28   C44   S    
C35   C163  S    
Cu8   O16   S    
C24   Cl10  S    
C23   C31   A    
C33   C161  S    
Cu11  O44   S    
C15   C27   A    
C11   C27   A    
C83   H3    S    
C14   Cl4   S    
Cu2   O18   S    
C115  C139  A    
C60   C65   S    
C96   C104  A    
C153  Cl25  S    
C113  C137  A    
C158  Cl30  S    
C134  C139  A    
C106  C130  A    
C89   C101  A    
C94   H14   S    
C145  Cl17  S    
C87   H7    S    
Cu1   O17   S    
Cu8   O12   S    
Cu10  O40   S    
C145  C161  A    
C159  C167  A    
C12   Cl6   S    
Cu2   O6    S    
C15   Cl3   S    
C58   C67   S    
C78   C99   S    
C34   C58   T    
Cu7   O27   S    
C136  H24   S    
Cu4   O20   S    
C78   O28   A    
C38   C62   T    
C159  Cl31  S    
C89   C115  A    
C80   C97   S    
C13   C145  A    
C57   C66   S    
C43   C51   T    
C93   C103  A    
C129  C144  A    
Cu12  O45   S    
C95   C117  A    
C10   Cl8   S    
C21   Cl9   S    
Cu11  O42   S    
C114  C126  A    
C156  C168  A    
C122  C127  A    
C90   C102  A    
C69   O41   A    
C2    C50   S    
C94   C120  A    
C82   C108  A    
C17   C157  A    
Cu4   O24   S    
C10   C152  A    
C44   C52   T    
C45   C53   T    
Cu1   Cu3   S    
C91   C101  A    
C8    O14   A    
C94   C104  A    
C160  Cl32  S    
C95   C103  A    
C18   Cl16  S    
Cu5   Cu7   S    
C85   H5    S    
Cu8   O32   S    
C148  C164  A    
C84   H4    S    
C143  H31   S    
C7    O11   A    
Cu5   O31   S    
C157  C165  A    
Cu9   O34   S    
Cu10  O38   S    
C109  C123  A    
C37   C165  S    
C85   C99   A    
C106  C122  A    
C64   C69   S    
C42   C50   T    
C11   C151  A    
C78   O26   A    
C90   C116  A    
C110  C134  A    
C24   C30   A    
C75   O21   A    
C133  H21   S    
C26   C42   S    
Cu1   O1    S    
C90   H10   S    
Cu12  O47   S    
C132  C141  A    
C11   Cl7   S    
Cu8   O28   S    
C153  C165  A    
C30   C46   S    
C1    O1    A    
C135  H23   S    
C136  C137  A    
C34   C162  S    
C7    O15   A    
C150  C164  A    
C82   H2    S    
C65   O33   A    
Cu3   O19   S    
C147  C163  A    
C62   C71   S    
C154  Cl26  S    
C114  C138  A    
C91   H11   S    
C6    O10   A    
C18   C160  A    
C67   O35   A    
C4    O4    A    
C141  H29   S    
C31   C47   S    
C70   O42   A    
C80   O30   A    
C146  Cl18  S    
C68   O36   A    
C119  C127  A    
C61   C70   S    
C81   C107  A    
C17   C29   A    
C72   O48   A    
Cu2   O2    S    
Cu5   O25   S    
Cu9   O36   S    
C9    C25   A    
C146  C162  A    
C23   Cl11  S    
C12   C28   A    
C20   C32   A    
C35   C59   T    
Cu4   O8    S    
Cu11  O43   S    
C110  C124  A    
C76   O22   A    
C84   C106  A    
C86   C100  A    
C88   C110  A    
Cu6   O14   S    
C32   C48   S    
C73   O17   A    
Cu5   O15   S    
C16   C26   A    
C111  C123  A    
C3    C51   S    
C132  H20   S    
Cu6   O10   S    
C36   C60   T    
C109  C133  A    
C148  Cl20  S    
C71   O43   A    
C139  H27   S    
C37   C61   T    
C46   C54   T    
C80   O32   A    
C117  C127  A    
Cu3   O21   S    
C22   C32   A    
Cu1   O23   S    
C86   H6    S    
C149  C161  A    
C107  C121  A    
C5    O13   A    
C5    C53   S    
C38   C166  S    
C95   H15   S    
C65   O39   A    
C93   H13   S    
C69   O47   A    
C85   C111  A    
C115  C125  A    
C120  C128  A    
C87   C109  A    
Cu12  O46   S    
C1    O5    A    
Cu7   O29   S    
C19   C159  A    
Cu6   O30   S    
Cu11  O41   S    
C15   C147  A    
C111  C135  A    
Cu2   Cu4   S    
C76   O24   A    
C83   C105  A    
Cu6   Cu8   S    
Cu11  Cu12  S    
C27   C43   S    
C96   H16   S    
C6    O16   A    
C63   C72   S    
C133  C140  A    
Cu9   Cu10  S    
C83   C97   A    
C29   C45   S    
C36   C164  S    
C89   H9    S    
C73   O19   A    
Cu5   O9    S    
C138  H26   S    
C152  C162  A    
C92   H12   S    
C135  C138  A    
C79   C98   S    
C117  C141  A    
C81   H1    S    
C130  H18   S    
C22   C156  A    
C81   C97   A    
C4    C52   S    
C96   C118  A    
Cu9   O33   S    
Cu10  O39   S    
C113  C125  A    
C14   C148  A    
C16   C146  A    
C150  Cl22  S    
C8    O12   A    
Cu3   O3    S    
C68   O40   A    
C4    O6    A    
C73   C104  S    
C19   Cl15  S    
C1    C49   S    
C75   C102  S    
C3    O3    A    
C72   O44   A    
Cu4   O4    S    
C140  H28   S    
C75   O23   A    
C16   Cl2   S    
C10   C26   A    
Cu7   O13   S    
C116  C126  A    
C13   C25   A    
C118  C128  A    
C79   O31   A    
C87   C99   A    
Cu12  O48   S    
C108  C132  A    
C157  Cl29  S    
C2    O8    A    
C71   O45   A    
C107  C131  A    
C105  C129  A    
C91   C113  A    
Cu3   O5    S    
C86   C112  A    
C151  Cl23  S    
C59   C68   S    
Cu1   O7    S    
C105  C121  A    
C88   C100  A    
C130  C143  A    
C131  C142  A    
C131  H19   S    
C18   C30   A    
C7    C55   S    
C77   O25   A    
C151  C163  A    
C9    Cl5   S    
C155  Cl27  S    
C156  Cl28  S    
C47   C55   T    
C76   C101  S    
C48   C56   T    
C67   O37   A    
C33   C57   T    
C74   O20   A    
C2    O2    A    
C108  C122  A    
C118  C142  A    
Cu9   O35   S    
Cu10  O37   S    
C147  Cl19  S    
C39   C63   T    
C66   O34   A    
C40   C64   T    
C84   C98   A    
C21   C153  A    
C70   O46   A    
C92   C114  A    
C39   C167  S    
C144  H32   S    
C20   Cl14  S    
C40   C168  S    
C5    O9    A    
C152  Cl24  S    
C88   H8    S    
C134  H22   S    
C124  C125  A    
C14   C28   A    
C13   Cl1   S    
C79   O29   A    
C137  H25   S    
C74   C103  S    
Cu2   O22   S    
