data_mof_unit_50782.cif
_audit_creation_date              2012-12-10T16:53:33-0500
_audit_creation_method            fapswitch 2.2
_symmetry_space_group_name_H-M    P1
_symmetry_Int_Tables_number       1
_space_group_crystal_system       triclinic
_cell_length_a                    7.854277
_cell_length_b                    8.566928
_cell_length_c                    13.566724
_cell_angle_alpha                 92.555073
_cell_angle_beta                  78.58248
_cell_angle_gamma                 93.231006
_cell_volume                      892.856044493

loop_
_atom_site_label
_atom_site_type_symbol
_atom_type_description
_atom_site_fract_x
_atom_site_fract_y
_atom_site_fract_z
_atom_type_partial_charge
C1    C     C_R   0.545479 0.794361 0.497897 0.940097
C2    C     C_1   0.561197 0.467473 0.119729 -0.074144
C3    C     C_2   0.569119 0.957675 0.498395 -0.379832
C4    C     C_2   0.430881 0.042325 0.501606 -0.379836
C5    C     C_3   0.164988 0.626877 0.041715 0.094759
C6    C     C_3   0.054323 0.718750 0.127088 -0.789369
C7    C     C_3   0.835035 0.373313 0.958184 0.094704
C8    C     C_3   0.945649 0.281347 0.872837 -0.789254
C9    C     C_3   0.972895 0.244570 0.373419 0.209380
C10   C     C_3   0.099203 0.151988 0.296208 -0.890620
C11   C     C_3   0.027107 0.755423 0.626588 0.209374
C12   C     C_R   0.454521 0.205639 0.502104 0.940095
C13   C     C_3   0.900802 0.847997 0.703806 -0.890653
C14   C     C_R   0.470686 0.505409 0.687124 0.890591
C15   C     C_R   0.529314 0.494591 0.312876 0.890584
C16   C     C_1   0.548880 0.479852 0.208175 -0.157146
C17   C     C_1   0.451122 0.520158 0.791825 -0.157174
C18   C     C_2   0.560020 0.459833 0.015097 0.383187
C19   C     C_2   0.439981 0.540201 0.984902 0.383225
C20   C     C_1   0.438805 0.532548 0.880270 -0.074303
H1    H     H_    0.699602 0.007622 0.497139 0.163217
H2    H     H_    0.930802 0.324665 0.799164 0.274539
H3    H     H_    0.084668 0.295879 0.878887 0.198058
H4    H     H_    0.904851 0.155184 0.876915 0.254993
H5    H     H_    0.855005 0.258866 0.342010 0.170927
H6    H     H_    0.940544 0.176558 0.443266 0.125412
H7    H     H_    0.219663 0.135439 0.324992 0.262588
H8    H     H_    0.038291 0.035435 0.281333 0.213645
H9    H     H_    0.133510 0.215284 0.224711 0.259906
H10   H     H_    0.059455 0.823445 0.556745 0.125420
H11   H     H_    0.144997 0.741120 0.657994 0.170923
H12   H     H_    0.300397 0.992377 0.502861 0.163219
H13   H     H_    0.866493 0.784686 0.775299 0.259886
H14   H     H_    0.961719 0.964544 0.718692 0.213649
H15   H     H_    0.780342 0.864559 0.675025 0.262592
H16   H     H_    0.118600 0.501675 0.047415 0.121562
H17   H     H_    0.147108 0.672665 0.969117 0.146980
H18   H     H_    0.095212 0.844899 0.123126 0.255021
H19   H     H_    0.915330 0.704346 0.120960 0.198050
H20   H     H_    0.069023 0.675250 0.200742 0.274556
H21   H     H_    0.853085 0.327713 0.030798 0.146948
H22   H     H_    0.881324 0.498533 0.952360 0.121597
N1    N     N_2   0.954190 0.457600 0.473930 0.163459
N2    N     N_2   0.045810 0.542400 0.526070 0.163460
O1    O     O_R   0.388300 0.738660 0.506400 -0.658741
O2    O     O_3   0.659076 0.355061 0.949274 -0.614941
O3    O     O_3   0.052272 0.390744 0.392003 -0.521845
O4    O     O_3   0.947726 0.609254 0.607997 -0.521854
O5    O     O_R   0.611700 0.261340 0.493600 -0.658744
O6    O     O_R   0.679920 0.711490 0.489690 -0.603811
O7    O     O_R   0.320080 0.288510 0.510310 -0.603816
O8    O     O_R   0.333200 0.515510 0.649910 -0.643264
O9    O     O_R   0.666800 0.484490 0.350090 -0.643255
O10   O     O_R   0.624820 0.488340 0.633200 -0.549389
O11   O     O_R   0.375180 0.511660 0.366800 -0.549378
O12   O     O_3   0.340908 0.644955 0.050734 -0.614961
Zn1   Zn    Zn3+2 0.305280 0.518140 0.511160 1.009863
Zn2   Zn    Zn3+2 0.694720 0.481860 0.488840 1.009863

loop_
_geom_bond_atom_site_label_1
_geom_bond_atom_site_label_2
_ccdc_geom_bond_type
C10   H7    S    
C19   O12   S    
C8    H2    S    
N1    N2    D    
C6    H18   S    
C13   H13   S    
O7    Zn1   S    
C5    H17   S    
C4    C12   S    
C2    C16   T    
C1    O6    A    
C5    O12   S    
C19   C20   S    
C14   C17   S    
N2    Zn1   S    
O9    Zn2   S    
O1    Zn1   S    
C12   O7    A    
C8    H3    S    
C7    H21   S    
C12   O5    A    
C3    C4    D    
C11   H11   S    
C7    C8    S    
C11   C13   S    
C10   H9    S    
C1    O1    A    
C11   O4    S    
C4    H12   S    
C18   O2    S    
C8    H4    S    
C9    H6    S    
C9    O3    S    
O11   Zn1   S    
O10   Zn2   S    
C5    C6    S    
C6    H20   S    
C3    H1    S    
C2    C18   S    
O8    Zn1   S    
C9    H5    S    
C15   C16   S    
O6    Zn2   S    
C5    H16   S    
C15   O9    A    
C13   H14   S    
C17   C20   T    
C18   C19   D    
C9    C10   S    
C7    H22   S    
C10   H8    S    
C6    H19   S    
C7    O2    S    
N1    Zn2   S    
C14   O10   A    
N1    O3    S    
C13   H15   S    
C14   O8    A    
O5    Zn2   S    
N2    O4    S    
C11   H10   S    
C1    C3    S    
C15   O11   A    
