data_mof_unit_15036.cif
_audit_creation_date              2013-03-05T15:40:06-0500
_audit_creation_method            fapswitch 2.2
_symmetry_space_group_name_H-M    P1
_symmetry_Int_Tables_number       1
_space_group_crystal_system       triclinic
_cell_length_a                    28.208096
_cell_length_b                    18.447185
_cell_length_c                    17.000104
_cell_angle_alpha                 89.836212
_cell_angle_beta                  60.57968
_cell_angle_gamma                 89.672221
_cell_volume                      7705.24185417

loop_
_atom_site_label
_atom_site_type_symbol
_atom_site_description
_atom_site_fract_x
_atom_site_fract_y
_atom_site_fract_z
_atom_type_partial_charge
O1    O     O_R   0.746490 0.236330 0.638080 -0.633381
O2    O     O_R   0.253510 0.763670 0.361920 -0.625912
O3    O     O_R   0.253510 0.236330 0.361920 -0.636016
O4    O     O_R   0.746490 0.763670 0.638080 -0.604134
O5    O     O_R   0.246490 0.736330 0.638080 -0.606798
O6    O     O_R   0.753510 0.263670 0.361920 -0.652975
O7    O     O_R   0.753510 0.736330 0.361920 -0.610151
O8    O     O_R   0.246490 0.263670 0.638080 -0.630962
O9    O     O_R   0.674170 0.186160 0.516270 -0.632199
O10   O     O_R   0.325830 0.813840 0.483730 -0.648473
O11   O     O_R   0.325830 0.186160 0.483730 -0.638612
O12   O     O_R   0.674170 0.813840 0.516270 -0.641737
O13   O     O_R   0.174170 0.686160 0.516270 -0.620637
O14   O     O_R   0.825830 0.313840 0.483730 -0.640142
O15   O     O_R   0.825830 0.686160 0.483730 -0.620808
O16   O     O_R   0.174170 0.313840 0.516270 -0.639720
O17   O     O_R   0.739960 0.127620 0.525000 -0.624340
O18   O     O_R   0.260040 0.872380 0.475000 -0.626999
O19   O     O_R   0.260040 0.127620 0.475000 -0.617716
O20   O     O_R   0.739960 0.872380 0.525000 -0.623667
O21   O     O_R   0.239960 0.627620 0.525000 -0.614811
O22   O     O_R   0.760040 0.372380 0.475000 -0.617057
O23   O     O_R   0.760040 0.627620 0.475000 -0.612697
O24   O     O_R   0.239960 0.372380 0.525000 -0.611404
O25   O     O_R   0.680700 0.294870 0.629350 -0.556469
O26   O     O_R   0.319300 0.705130 0.370650 -0.576115
O27   O     O_R   0.319300 0.294870 0.370650 -0.569793
O28   O     O_R   0.680700 0.705130 0.629350 -0.566546
O29   O     O_R   0.180700 0.794870 0.629350 -0.561254
O30   O     O_R   0.819300 0.205130 0.370650 -0.573813
O31   O     O_R   0.819300 0.794870 0.370650 -0.574188
O32   O     O_R   0.180700 0.205130 0.629350 -0.566981
C1    C     C_R   0.701415 0.268498 0.676303 0.947609
C2    C     C_R   0.300919 0.737611 0.323139 0.899119
C3    C     C_R   0.298501 0.268519 0.323848 0.913215
C4    C     C_R   0.699315 0.736985 0.676776 0.921551
C5    C     C_R   0.202381 0.771974 0.675850 0.941777
C6    C     C_R   0.798506 0.231354 0.323744 0.902009
C7    C     C_R   0.797536 0.772032 0.324252 0.917728
C8    C     C_R   0.201415 0.231590 0.676211 0.918248
C9    C     C_R   0.696927 0.127901 0.516603 0.896461
C10   C     C_R   0.308622 0.870652 0.465142 0.863559
C11   C     C_R   0.309028 0.129496 0.463961 0.879334
C12   C     C_R   0.691499 0.870916 0.533086 0.861108
C13   C     C_R   0.196739 0.627873 0.517145 0.911543
C14   C     C_R   0.808627 0.370621 0.465086 0.896496
C15   C     C_R   0.809008 0.629476 0.464031 0.901345
C16   C     C_R   0.191441 0.370859 0.533326 0.886013
Zn1   Zn    Zn3+2 0.792340 0.208750 0.507670 1.057415
Zn2   Zn    Zn3+2 0.207660 0.791250 0.492330 1.099082
Zn3   Zn    Zn3+2 0.207660 0.208750 0.492330 1.056883
Zn4   Zn    Zn3+2 0.792340 0.791250 0.507670 1.101981
Zn5   Zn    Zn3+2 0.292340 0.708750 0.507670 1.083320
Zn6   Zn    Zn3+2 0.707660 0.291250 0.492330 1.067226
Zn7   Zn    Zn3+2 0.707660 0.708750 0.492330 1.090518
Zn8   Zn    Zn3+2 0.292340 0.291250 0.507670 1.065037
C17   C     C_R   0.558856 0.998059 0.471428 0.032610
C18   C     C_R   0.470547 0.998493 0.437425 0.032028
C19   C     C_R   0.058341 0.497896 0.472859 0.039630
C20   C     C_R   0.970207 0.498344 0.438451 0.043098
C21   C     C_R   0.546497 0.061611 0.437653 0.048788
C22   C     C_R   0.489690 0.932617 0.454363 0.047201
C23   C     C_R   0.499098 0.063487 0.428090 0.048024
C24   C     C_R   0.529601 0.933719 0.481582 0.048076
C25   C     C_R   0.045962 0.561447 0.439125 0.038504
C26   C     C_R   0.989329 0.432444 0.455420 0.058129
C27   C     C_R   0.998668 0.563339 0.429374 0.047912
C28   C     C_R   0.029178 0.433523 0.482798 0.052571
C29   C     C_R   0.613171 0.935879 0.529038 0.068628
C30   C     C_R   0.398117 0.065154 0.427026 0.056178
C31   C     C_R   0.396507 0.933011 0.432777 0.061031
C32   C     C_R   0.632485 0.061210 0.479851 0.053782
C33   C     C_R   0.112828 0.435711 0.530119 0.067388
C34   C     C_R   0.897966 0.565060 0.427564 0.057842
C35   C     C_R   0.896401 0.432927 0.433117 0.065007
C36   C     C_R   0.131905 0.561119 0.481350 0.039121
C37   C     C_R   0.659745 0.936018 0.541593 -0.107154
C38   C     C_R   0.343996 0.064886 0.440009 -0.113828
C39   C     C_R   0.343351 0.934599 0.442051 -0.106765
C40   C     C_R   0.670486 0.062543 0.512449 -0.101301
C41   C     C_R   0.159517 0.435901 0.542384 -0.112615
C42   C     C_R   0.843935 0.564833 0.440205 -0.108301
C43   C     C_R   0.843323 0.434552 0.442100 -0.110160
C44   C     C_R   0.170085 0.562490 0.513563 -0.106693
C45   C     C_R   0.683584 0.000282 0.542248 -0.266990
C46   C     C_R   0.319102 0.999949 0.442840 -0.267605
C47   C     C_R   0.183299 0.500212 0.543162 -0.247273
C48   C     C_R   0.819090 0.499909 0.442822 -0.247204
H1    H     H_    0.715469 0.000830 0.560427 0.200205
H2    H     H_    0.278154 0.000272 0.452479 0.206541
H3    H     H_    0.215305 0.500771 0.561058 0.204703
H4    H     H_    0.778194 0.500247 0.452235 0.206143
C49   C     C_R   0.601129 0.998576 0.494161 0.076484
C50   C     C_R   0.421911 0.998951 0.431629 0.075694
C51   C     C_R   0.100623 0.498440 0.495569 0.082124
C52   C     C_R   0.921708 0.498840 0.432278 0.085387
C53   C     C_R   0.078634 0.375182 0.549683 -0.120416
C54   C     C_R   0.929387 0.628359 0.410113 -0.097190
C55   C     C_R   0.925622 0.368242 0.424726 -0.108955
C56   C     C_R   0.124764 0.619050 0.433694 -0.110249
C57   C     C_R   0.578889 0.875445 0.548774 -0.126928
C58   C     C_R   0.429588 0.128459 0.409303 -0.129827
C59   C     C_R   0.425726 0.868333 0.424349 -0.124589
C60   C     C_R   0.625488 0.119145 0.431960 -0.121146
C61   C     C_R   0.038691 0.373331 0.524289 -0.175033
C62   C     C_R   0.978387 0.627679 0.411567 -0.137983
C63   C     C_R   0.969094 0.367508 0.441343 -0.162671
C64   C     C_R   0.081742 0.620307 0.415737 -0.128853
C65   C     C_R   0.539005 0.873590 0.523284 -0.193375
C66   C     C_R   0.478750 0.127789 0.410326 -0.156711
C67   C     C_R   0.469344 0.867653 0.440579 -0.197003
C68   C     C_R   0.582350 0.120468 0.414197 -0.122210
H5    H     H_    0.081178 0.329185 0.586981 0.200806
H6    H     H_    0.917673 0.679158 0.392854 0.209910
H7    H     H_    0.916198 0.317227 0.404970 0.203533
H8    H     H_    0.152748 0.663718 0.407356 0.215815
H9    H     H_    0.581282 0.829545 0.586344 0.200449
H10   H     H_    0.417770 0.179235 0.392134 0.204160
H11   H     H_    0.416192 0.817276 0.404861 0.208574
H12   H     H_    0.653611 0.163779 0.405417 0.180311
C69   C     C_R   0.721451 0.265536 0.952468 -0.041861
C70   C     C_R   0.269191 0.728263 0.060668 -0.027967
C71   C     C_R   0.278785 0.262553 0.047567 -0.029189
C72   C     C_R   0.731536 0.725460 0.938846 -0.031127
C73   C     C_R   0.212280 0.759024 0.962615 -0.027751
C74   C     C_R   0.777953 0.233427 0.048130 -0.037984
C75   C     C_R   0.788549 0.757466 0.036429 -0.025585
C76   C     C_R   0.219780 0.239674 0.953794 -0.018149
C77   C     C_R   0.771836 0.299359 0.927547 0.343499
C78   C     C_R   0.219388 0.767881 0.101120 0.335579
C79   C     C_R   0.299502 0.214964 0.972380 0.361801
C80   C     C_R   0.781994 0.762902 0.896882 0.321304
C81   C     C_R   0.259111 0.713593 0.925597 0.314126
C82   C     C_R   0.727556 0.199544 0.073055 0.349444
C83   C     C_R   0.741422 0.713064 0.074532 0.315284
C84   C     C_R   0.199037 0.287249 0.029027 0.368084
C85   C     C_R   0.799392 0.282466 0.975456 -0.189704
C86   C     C_R   0.195774 0.789320 0.048458 -0.207216
C87   C     C_R   0.269943 0.204881 0.926248 -0.251152
C88   C     C_R   0.805639 0.785324 0.949049 -0.193191
C89   C     C_R   0.289698 0.706690 0.970118 -0.206819
C90   C     C_R   0.699978 0.216532 0.025168 -0.210783
C91   C     C_R   0.710820 0.705816 0.030090 -0.206589
C92   C     C_R   0.228624 0.297377 0.075135 -0.229639
C93   C     C_R   0.639033 0.318933 0.952610 0.292705
C94   C     C_R   0.337527 0.649571 0.081752 0.224577
C95   C     C_R   0.359743 0.320674 0.048377 0.306523
C96   C     C_R   0.662205 0.648485 0.919358 0.226774
C97   C     C_R   0.125268 0.798583 0.959790 0.235559
C98   C     C_R   0.860685 0.180665 0.047632 0.283761
C99   C     C_R   0.874876 0.798992 0.040251 0.230057
C100  C     C_R   0.138935 0.181295 0.952687 0.294337
C101  C     C_R   0.610532 0.337968 0.905520 -0.261028
C102  C     C_R   0.377404 0.645603 0.110382 -0.310628
C103  C     C_R   0.388344 0.339474 0.095481 -0.270238
C104  C     C_R   0.622659 0.644967 0.889850 -0.303459
C105  C     C_R   0.102801 0.829789 0.908856 -0.260983
C106  C     C_R   0.889329 0.161901 0.094582 -0.269149
C107  C     C_R   0.896828 0.830478 0.091618 -0.259830
C108  C     C_R   0.110928 0.161437 0.904983 -0.276363
C109  C     C_R   0.626168 0.309599 0.820923 0.204220
C110  C     C_R   0.372582 0.689343 0.180768 0.238792
C111  C     C_R   0.373173 0.310326 0.179603 0.225493
C112  C     C_R   0.627816 0.688649 0.819044 0.236240
C113  C     C_R   0.123402 0.809503 0.819624 0.226253
C114  C     C_R   0.873676 0.190329 0.179143 0.214018
C115  C     C_R   0.876270 0.810006 0.180761 0.235213
C116  C     C_R   0.126419 0.189992 0.820438 0.226221
C117  C     C_R   0.677789 0.279830 0.772679 -0.186963
C118  C     C_R   0.326416 0.730892 0.225260 -0.171341
C119  C     C_R   0.321991 0.279964 0.227521 -0.175689
C120  C     C_R   0.674063 0.729570 0.774570 -0.176202
C121  C     C_R   0.177005 0.785420 0.772509 -0.187531
C122  C     C_R   0.821966 0.219778 0.227496 -0.175325
C123  C     C_R   0.822907 0.785616 0.227527 -0.182429
C124  C     C_R   0.177556 0.220608 0.772762 -0.180183
C125  C     C_R   0.709053 0.265248 0.815648 -0.202060
C126  C     C_R   0.297826 0.751876 0.180200 -0.197316
C127  C     C_R   0.290971 0.264948 0.184436 -0.237508
C128  C     C_R   0.702794 0.749639 0.819490 -0.195305
C129  C     C_R   0.207193 0.777148 0.818040 -0.216435
C130  C     C_R   0.790472 0.233808 0.184811 -0.200412
C131  C     C_R   0.792976 0.777234 0.181618 -0.203464
C132  C     C_R   0.208123 0.236413 0.816418 -0.232749
H13   H     H_    0.749101 0.240721 0.778671 0.198769
H14   H     H_    0.270156 0.797239 0.206620 0.213113
H15   H     H_    0.251445 0.239472 0.221138 0.201374
H16   H     H_    0.730885 0.794222 0.792697 0.206527
H17   H     H_    0.250588 0.768346 0.778642 0.199498
H18   H     H_    0.750304 0.257978 0.221963 0.195394
H19   H     H_    0.749651 0.768527 0.220918 0.201663
H20   H     H_    0.247639 0.261937 0.779868 0.206287
C133  C     C_R   0.689084 0.282388 0.906606 0.028530
C134  C     C_R   0.301721 0.710185 0.107958 0.054758
C135  C     C_R   0.310745 0.281943 0.093516 0.043515
C136  C     C_R   0.698577 0.708073 0.892232 0.054238
C137  C     C_R   0.180989 0.776990 0.913362 0.052838
C138  C     C_R   0.810413 0.216695 0.093870 0.038276
C139  C     C_R   0.819383 0.776791 0.086192 0.051835
C140  C     C_R   0.187932 0.220114 0.907677 0.036862
O33   O     O_R   0.062020 0.072840 0.007170 -0.581267
O34   O     O_R   0.937980 0.927160 0.992830 -0.586631
O35   O     O_R   0.937980 0.072840 0.992830 -0.576018
O36   O     O_R   0.062020 0.927160 0.007170 -0.591435
O37   O     O_R   0.562020 0.572840 0.007170 -0.568401
O38   O     O_R   0.437980 0.427160 0.992830 -0.570083
O39   O     O_R   0.437980 0.572840 0.992830 -0.568462
O40   O     O_R   0.562020 0.427160 0.007170 -0.566493
O41   O     O_R   0.947860 0.073950 0.109290 -0.563957
O42   O     O_R   0.052140 0.926050 0.890710 -0.569255
O43   O     O_R   0.052140 0.073950 0.890710 -0.563578
O44   O     O_R   0.947860 0.926050 0.109290 -0.567114
O45   O     O_R   0.447860 0.573950 0.109290 -0.576531
O46   O     O_R   0.552140 0.426050 0.890710 -0.574338
O47   O     O_R   0.552140 0.573950 0.890710 -0.575343
O48   O     O_R   0.447860 0.426050 0.109290 -0.574083
C141  C     C_R   0.071075 0.103360 0.937001 0.920750
C142  C     C_R   0.933285 0.892920 0.059438 0.915447
C143  C     C_R   0.929384 0.103852 0.062434 0.937660
C144  C     C_R   0.066391 0.892629 0.941020 0.906998
C145  C     C_R   0.577914 0.594412 0.929588 0.940896
C146  C     C_R   0.428620 0.396948 0.063255 0.912288
C147  C     C_R   0.422057 0.594534 0.070429 0.936562
C148  C     C_R   0.570593 0.396141 0.937589 0.927134
Zn9   Zn    Zn3+2 0.505960 0.500000 0.080520 1.223527
Zn10  Zn    Zn3+2 0.494040 0.500000 0.919480 1.224454
Zn11  Zn    Zn3+2 0.005960 0.000000 0.080520 1.206259
Zn12  Zn    Zn3+2 0.994040 0.000000 0.919480 1.212836
H21   H     H_    0.013810 0.325247 0.541353 0.168721
H22   H     H_    0.998432 0.679164 0.402042 0.170920
H23   H     H_    0.987952 0.315821 0.439371 0.164144
H24   H     H_    0.078486 0.667179 0.380558 0.193406
H25   H     H_    0.514040 0.825578 0.540534 0.165717
H26   H     H_    0.498887 0.179235 0.400514 0.165235
H27   H     H_    0.488207 0.815966 0.438590 0.167935
H28   H     H_    0.579059 0.167390 0.379113 0.173396
H29   H     H_    0.661564 0.190444 0.043765 0.208789
H30   H     H_    0.328909 0.680611 0.934193 0.226393
H31   H     H_    0.213373 0.334880 0.131378 0.201703
H32   H     H_    0.671342 0.681087 0.066835 0.225890
H33   H     H_    0.161494 0.826185 0.078348 0.209594
H34   H     H_    0.837790 0.308622 0.956814 0.212990
H35   H     H_    0.840129 0.821274 0.917857 0.212681
H36   H     H_    0.285207 0.167377 0.870009 0.192635
N1    N     N_R   0.794999 0.352058 0.855892 0.219050
O49   O     O_R   0.847506 0.360615 0.810096 -0.338237
O50   O     O_R   0.763998 0.397203 0.842644 -0.315751
N2    N     N_R   0.189236 0.781262 0.196443 0.197903
O51   O     O_R   0.180412 0.728279 0.252553 -0.406276
O52   O     O_R   0.162529 0.841796 0.227000 -0.364772
N3    N     N_R   0.349641 0.175464 0.942975 0.231289
O53   O     O_R   0.365063 0.155644 0.000516 -0.345633
O54   O     O_R   0.377488 0.152826 0.859905 -0.332365
N4    N     N_R   0.812464 0.773419 0.800903 0.201856
O55   O     O_R   0.819724 0.719416 0.746940 -0.327595
O56   O     O_R   0.840564 0.832303 0.767698 -0.356922
N5    N     N_R   0.274227 0.669469 0.847234 0.208376
O57   O     O_R   0.237565 0.630679 0.841738 -0.309467
O58   O     O_R   0.325335 0.658339 0.789262 -0.355825
N6    N     N_R   0.704420 0.146660 0.144552 0.203964
O59   O     O_R   0.735473 0.102154 0.158539 -0.382000
O60   O     O_R   0.652010 0.136897 0.188914 -0.391326
N7    N     N_R   0.726016 0.670105 0.153994 0.206934
O61   O     O_R   0.762436 0.630855 0.160474 -0.320796
O62   O     O_R   0.674841 0.660405 0.212216 -0.357159
N8    N     N_R   0.148850 0.326642 0.058525 0.239047
O63   O     O_R   0.120945 0.349091 0.141656 -0.329186
O64   O     O_R   0.133364 0.346413 0.001059 -0.319186
N9    N     N_R   0.617811 0.337479 0.046060 0.218861
O65   O     O_R   0.570281 0.313904 0.106477 -0.319393
O66   O     O_R   0.646177 0.376877 0.071129 -0.304773
N10   N     N_R   0.325771 0.586840 0.044016 0.201109
O67   O     O_R   0.277666 0.557909 0.087283 -0.330961
O68   O     O_R   0.359118 0.564820 0.962367 -0.314856
N11   N     N_R   0.379993 0.340850 0.955648 0.222711
O69   O     O_R   0.427588 0.318095 0.893829 -0.273087
O70   O     O_R   0.349975 0.378989 0.932228 -0.321348
N12   N     N_R   0.672817 0.586139 0.959752 0.205512
O71   O     O_R   0.720545 0.555403 0.918148 -0.275788
O72   O     O_R   0.639066 0.566729 0.042316 -0.317561
N13   N     N_R   0.089645 0.776334 0.051996 0.212887
O73   O     O_R   0.098259 0.714587 0.080219 -0.307139
O74   O     O_R   0.043251 0.808680 0.101607 -0.319811
N14   N     N_R   0.882046 0.162447 0.954051 0.216641
O75   O     O_R   0.853788 0.123243 0.928577 -0.352060
O76   O     O_R   0.929578 0.186214 0.893894 -0.308252
N15   N     N_R   0.911091 0.776020 0.948581 0.212662
O77   O     O_R   0.904094 0.712959 0.921728 -0.293971
O78   O     O_R   0.956360 0.809910 0.897863 -0.313429
N16   N     N_R   0.118042 0.162084 0.045877 0.218456
O79   O     O_R   0.147826 0.125187 0.070907 -0.380739
O80   O     O_R   0.069882 0.184121 0.106461 -0.275778
N17   N     N_R   0.588930 0.309229 0.785926 0.227538
O81   O     O_R   0.589737 0.360930 0.732965 -0.322066
O82   O     O_R   0.548845 0.263463 0.818578 -0.310337
N18   N     N_R   0.412944 0.691075 0.209203 0.223956
O83   O     O_R   0.439273 0.750925 0.200336 -0.384937
O84   O     O_R   0.414569 0.640128 0.261020 -0.340542
N19   N     N_R   0.410451 0.309531 0.214518 0.223920
O85   O     O_R   0.410001 0.361390 0.266702 -0.334245
O86   O     O_R   0.448473 0.260317 0.186542 -0.338004
N20   N     N_R   0.587554 0.691088 0.790391 0.222431
O87   O     O_R   0.585947 0.640263 0.738758 -0.336107
O88   O     O_R   0.561138 0.751257 0.799181 -0.383560
N21   N     N_R   0.088873 0.810038 0.779506 0.245954
O89   O     O_R   0.088345 0.865436 0.732297 -0.325115
O90   O     O_R   0.064920 0.750435 0.778042 -0.285108
N22   N     N_R   0.910989 0.191244 0.213969 0.222606
O91   O     O_R   0.949667 0.239087 0.183696 -0.321637
O92   O     O_R   0.910785 0.139567 0.266480 -0.330948
N23   N     N_R   0.910729 0.810340 0.221016 0.242903
O93   O     O_R   0.910977 0.865745 0.268096 -0.329864
O94   O     O_R   0.934865 0.750578 0.222802 -0.330503
N24   N     N_R   0.089486 0.189870 0.784838 0.225997
O95   O     O_R   0.090570 0.137612 0.732622 -0.333428
O96   O     O_R   0.050710 0.238014 0.813188 -0.322166

loop_
_geom_bond_atom_site_label_1
_geom_bond_atom_site_label_2
_geom_bond_distance
_ccdc_geom_bond_type
O4    C4    1.261557 A    
C63   H23   1.081693 S    
O7    Zn7   2.007673 S    
O31   Zn4   2.065931 S    
O8    Zn8   2.007673 S    
C127  C135  1.396660 A    
C106  C114  1.383687 A    
C125  C133  1.397616 A    
C118  C126  1.410222 A    
C123  C131  1.412574 A    
C12   C37   1.458380 S    
C76   C87   1.404937 A    
C29   C49   1.412124 A    
C54   H6    1.078687 S    
C100  C140  1.406325 A    
O33   Zn11  1.984586 S    
C21   C23   1.424171 A    
C22   C24   1.412103 A    
C79   N3    1.441128 S    
N10   O67   1.301037 A    
O38   Zn10  1.984587 S    
N15   O78   1.299712 A    
C94   C134  1.420109 A    
C95   C103  1.432442 A    
C25   C64   1.404118 A    
C128  C136  1.407996 A    
C80   N4    1.435622 S    
C53   C61   1.391184 A    
O2    C2    1.257946 A    
C43   C48   1.379646 A    
N1    O49   1.301484 A    
O6    Zn6   2.007135 S    
O47   C145  1.258775 A    
C33   C41   1.431002 A    
N2    O52   1.301370 A    
C114  C122  1.383461 A    
C4    C120  1.458229 S    
C47   H3    1.085231 S    
N3    O53   1.301536 A    
C130  H18   1.083659 S    
C46   H2    1.083993 S    
C77   N1    1.440290 S    
O27   C3    1.295215 A    
N24   O95   1.302342 A    
C62   H22   1.078537 S    
C101  C109  1.383902 A    
O41   C143  1.269817 A    
C112  N20   1.439430 S    
C111  N19   1.439181 S    
C94   C102  1.429784 A    
O23   Zn7   2.014785 S    
N18   O83   1.300668 A    
O30   Zn1   2.066080 S    
N9    O66   1.301351 A    
O24   Zn8   2.014785 S    
C33   C51   1.411661 A    
C105  C113  1.383327 A    
C78   C86   1.407974 A    
C8    C124  1.450019 S    
C124  C132  1.418460 A    
N14   O75   1.301336 A    
O42   Zn12  1.994215 S    
C69   C90   1.405696 A    
C100  N16   1.436889 S    
C99   N15   1.444494 S    
C17   C21   1.419075 A    
C29   C57   1.407862 A    
C73   C86   1.411713 A    
C36   C56   1.411331 A    
O9    C9    1.250099 A    
C54   C62   1.394506 A    
O47   Zn10  2.005098 S    
O12   C12   1.254654 A    
O13   C13   1.250202 A    
C107  C115  1.382504 A    
C108  C116  1.384000 A    
C126  H14   1.077725 S    
C77   C85   1.407984 A    
C74   C82   1.417042 A    
C97   N13   1.445298 S    
O9    Zn6   2.110695 S    
O8    C8    1.258472 A    
N24   O96   1.300327 A    
C95   N11   1.436763 S    
O11   Zn8   2.102890 S    
C65   H25   1.081273 S    
C90   H29   1.083612 S    
O39   C147  1.233300 A    
C29   C37   1.430752 A    
O16   Zn3   2.102890 S    
C26   C63   1.400596 A    
C129  C137  1.412647 A    
C122  C130  1.418610 A    
C31   C39   1.428729 A    
O22   Zn6   2.026060 S    
O30   C6    1.291500 A    
O18   C10   1.296549 A    
C19   C28   1.410289 A    
C6    C122  1.448224 S    
C16   C41   1.458327 S    
C72   C80   1.422226 A    
C84   N8    1.441045 S    
N5    O57   1.301542 A    
O2    Zn2   2.007135 S    
O44   Zn11  2.005099 S    
C22   C67   1.400730 A    
C20   C27   1.412124 A    
C96   C104  1.432113 A    
N21   O90   1.300479 A    
N4    O56   1.301385 A    
O6    C6    1.253751 A    
C109  C117  1.383736 A    
C74   C138  1.494374 S    
C83   C91   1.405858 A    
C37   C45   1.369027 A    
C10   C39   1.462228 S    
C119  C127  1.418606 A    
C117  C125  1.418712 A    
O20   C12   1.305416 A    
N22   O92   1.302239 A    
O21   C13   1.290028 A    
N20   O88   1.300645 A    
C56   C64   1.389272 A    
O23   C15   1.300532 A    
O24   C16   1.305400 A    
C34   C52   1.410681 A    
C101  C148  1.450565 S    
C7    C123  1.456840 S    
O17   Zn1   2.026060 S    
C60   C68   1.390381 A    
O34   Zn12  1.984587 S    
C103  C111  1.383609 A    
C105  C144  1.461492 S    
C99   C107  1.421812 A    
N17   O81   1.302280 A    
O39   Zn10  1.977148 S    
O3    C3    1.257630 A    
C107  C142  1.463194 S    
C72   C136  1.524409 S    
C35   C55   1.413449 A    
O36   Zn11  1.977150 S    
C86   H33   1.080479 S    
N8    O64   1.301376 A    
O43   Zn12  2.005098 S    
N23   O94   1.300529 A    
C112  C120  1.371966 A    
C28   C61   1.407311 A    
C115  C123  1.389381 A    
C64   H24   1.078794 S    
C116  C124  1.383761 A    
C31   C59   1.413195 A    
C78   N2    1.433942 S    
O7    C7    1.269558 A    
C102  C110  1.394886 A    
N6    O59   1.301221 A    
C75   C139  1.525581 S    
O40   C148  1.227351 A    
C113  N21   1.437493 S    
O34   C142  1.244279 A    
N14   O76   1.301091 A    
C32   C40   1.428538 A    
C19   C25   1.418931 A    
C24   C65   1.407206 A    
O38   C146  1.225151 A    
C42   C48   1.380650 A    
N18   O84   1.302236 A    
C96   N12   1.441330 S    
O12   Zn7   2.102890 S    
C79   C87   1.410624 A    
C121  C129  1.411714 A    
O13   Zn2   2.110695 S    
N10   O68   1.301020 A    
C75   C88   1.413525 A    
N12   O71   1.300903 A    
C70   C89   1.410206 A    
C21   C68   1.405193 A    
O25   C1    1.291505 A    
C18   C22   1.412275 A    
C74   C85   1.405816 A    
C89   H30   1.076919 S    
O10   C10   1.255707 A    
C3    C119  1.448755 S    
N11   O69   1.301174 A    
C56   H8    1.077343 S    
C1    C117  1.449091 S    
C36   C44   1.428374 A    
C9    C40   1.441330 S    
N7    O61   1.301554 A    
O14   C14   1.255581 A    
C11   C38   1.467661 S    
C126  C134  1.408439 A    
O36   C144  1.246020 A    
C30   C50   1.410574 A    
C75   C83   1.421680 A    
C76   C84   1.419049 A    
C55   H7    1.077728 S    
C127  H15   1.083586 S    
O5    C5    1.265282 A    
C57   C65   1.390723 A    
C125  H13   1.083589 S    
C59   C67   1.386888 A    
N16   O79   1.301235 A    
C102  C147  1.443944 S    
O10   Zn5   2.110695 S    
C128  H16   1.078177 S    
C129  H17   1.079944 S    
C106  C143  1.450798 S    
C25   C27   1.423090 A    
C71   C92   1.405074 A    
C67   H27   1.081707 S    
C132  H20   1.083580 S    
C72   C91   1.409820 A    
O37   Zn9   1.984586 S    
C111  C119  1.383089 A    
C93   C133  1.402411 A    
C120  C128  1.410716 A    
C81   N5    1.436390 S    
C20   C26   1.412582 A    
N9    O65   1.301116 A    
C71   C135  1.499349 S    
C34   C42   1.430866 A    
C69   C133  1.494257 S    
O35   Zn12  1.977148 S    
O19   C11   1.300666 A    
C35   C52   1.409994 A    
O43   C141  1.271849 A    
C114  N22   1.439134 S    
O25   Zn6   2.066080 S    
C34   C54   1.410182 A    
C45   H1    1.085241 S    
O27   Zn8   2.065931 S    
C32   C60   1.412252 A    
C68   H28   1.078924 S    
C115  N23   1.437618 S    
C131  H19   1.079470 S    
C61   H21   1.081276 S    
N19   O85   1.302301 A    
C76   C140  1.499706 S    
O32   Zn3   2.065931 S    
C40   C45   1.374048 A    
C82   C90   1.408575 A    
N15   O77   1.301855 A    
C110  C118  1.370996 A    
C98   N14   1.437332 S    
O15   Zn4   2.102890 S    
C41   C47   1.369518 A    
C85   H34   1.083650 S    
C20   C52   1.422522 A    
O22   C14   1.296336 A    
N1    O50   1.301170 A    
C58   C66   1.395388 A    
N13   O74   1.299855 A    
N2    O51   1.300520 A    
O18   Zn2   2.026060 S    
O3    Zn3   2.007673 S    
C98   C106  1.427757 A    
C71   C79   1.418682 A    
C91   H32   1.076675 S    
C109  N17   1.439254 S    
C69   C77   1.416273 A    
C70   C134  1.522908 S    
C30   C58   1.410556 A    
C27   C62   1.409955 A    
C80   C88   1.410251 A    
C55   C63   1.386992 A    
C81   C89   1.404726 A    
O48   Zn9   2.005099 S    
C88   H35   1.079844 S    
C57   H9    1.080752 S    
C84   C92   1.411075 A    
O45   C147  1.256259 A    
C35   C43   1.428561 A    
C14   C43   1.461586 S    
O28   C4    1.301242 A    
N17   O82   1.300415 A    
N21   O89   1.302122 A    
O29   C5    1.283516 A    
O41   Zn11  1.994213 S    
C97   C105  1.419467 A    
C98   C138  1.402764 A    
C39   C46   1.379474 A    
C66   H26   1.078576 S    
C60   H12   1.079130 S    
C26   C28   1.412381 A    
N23   O93   1.302126 A    
C100  C108  1.431943 A    
C83   N7    1.436235 S    
C30   C38   1.431255 A    
C130  C138  1.397362 A    
C44   C47   1.374071 A    
O15   C15   1.262741 A    
O16   C16   1.254666 A    
O1    C1    1.254160 A    
C31   C50   1.410556 A    
C33   C53   1.408119 A    
N4    O55   1.301652 A    
O4    Zn4   2.007673 S    
O5    Zn5   2.007135 S    
N11   O70   1.301246 A    
C36   C51   1.405176 A    
N3    O54   1.302130 A    
O14   Zn1   2.110695 S    
C113  C121  1.389135 A    
O42   C144  1.266926 A    
C93   N9    1.437260 S    
C15   C42   1.467657 S    
O26   C2    1.298202 A    
C48   H4    1.083993 S    
O11   C11   1.262676 A    
C58   H10   1.078942 S    
C93   C101  1.427566 A    
C38   C46   1.380755 A    
C73   C137  1.520260 S    
C17   C49   1.422737 A    
C19   C51   1.422745 A    
C110  N18   1.439485 S    
O28   Zn7   2.065931 S    
C96   C136  1.420862 A    
O17   C9    1.289999 A    
O29   Zn2   2.066080 S    
C99   C139  1.425660 A    
O45   Zn9   1.994213 S    
N6    O60   1.301421 A    
C132  C140  1.397452 A    
N13   O73   1.301881 A    
C131  C139  1.414029 A    
C92   H31   1.083586 S    
C104  C145  1.446163 S    
N5    O58   1.301431 A    
O40   Zn9   1.977150 S    
C108  C141  1.455044 S    
C95   C135  1.405654 A    
C87   H36   1.083555 S    
N19   O86   1.300346 A    
O46   C148  1.269737 A    
N12   O72   1.301118 A    
C13   C44   1.442051 S    
C32   C49   1.405428 A    
C53   H5    1.080778 S    
O26   Zn5   2.066080 S    
N22   O91   1.300367 A    
C17   C24   1.410534 A    
C73   C81   1.420248 A    
C18   C23   1.412683 A    
N20   O87   1.302245 A    
C59   H11   1.077669 S    
C2    C118  1.458024 S    
O35   C143  1.227454 A    
C23   C66   1.410016 A    
C94   N10   1.441610 S    
C18   C50   1.422912 A    
O33   C141  1.226240 A    
O20   Zn4   2.014785 S    
N7    O62   1.301445 A    
O21   Zn5   2.026060 S    
O44   C142  1.268437 A    
O37   C145  1.231662 A    
O31   C7    1.287296 A    
N16   O80   1.301166 A    
O32   C8    1.295045 A    
O46   Zn10  1.994215 S    
O48   C146  1.272108 A    
N8    O63   1.301959 A    
C5    C121  1.455599 S    
O19   Zn3   2.014785 S    
C116  N24   1.439124 S    
C104  C112  1.393979 A    
C82   N6    1.440892 S    
C103  C146  1.453941 S    
O1    Zn1   2.007135 S    
C70   C78   1.422202 A    
C97   C137  1.424060 A    
