data_mof_unit_62428.cif
_audit_creation_date              2012-12-10T18:56:31-0500
_audit_creation_method            fapswitch 2.2
_symmetry_space_group_name_H-M    P1
_symmetry_Int_Tables_number       1
_space_group_crystal_system       triclinic
_cell_length_a                    25.690673
_cell_length_b                    26.008166
_cell_length_c                    26.276644
_cell_angle_alpha                 109.266749
_cell_angle_beta                  110.868552
_cell_angle_gamma                 108.279264
_cell_volume                      13510.097958

loop_
_atom_site_label
_atom_site_type_symbol
_atom_type_description
_atom_site_fract_x
_atom_site_fract_y
_atom_site_fract_z
_atom_type_partial_charge
C1    C     C_R   0.413820 0.913766 0.000119 0.869202
C2    C     C_R   0.199206 0.647464 0.030547 -0.193655
C3    C     C_R   0.135768 0.635013 0.001329 -0.037874
C4    C     C_R   0.587513 0.999987 0.087551 0.873528
C5    C     C_R   0.118837 0.668813 0.972866 -0.195148
C6    C     C_R   0.165129 0.715016 0.973883 -0.175435
C7    C     C_R   0.228323 0.727048 0.002647 0.110213
C8    C     C_R   0.326725 0.067179 0.839207 -0.172938
C9    C     C_R   0.360728 0.056380 0.884301 -0.201191
C10   C     C_R   0.382397 0.013926 0.868176 -0.030712
C11   C     C_R   0.375141 0.986693 0.808596 -0.192735
C12   C     C_1   0.868806 0.999166 0.369646 -0.207470
C13   C     C_R   0.341105 0.997613 0.763475 -0.190778
C14   C     C_R   0.314106 0.034997 0.778190 0.115827
C15   C     C_R   0.207542 0.965843 0.686564 -0.162358
C16   C     C_R   0.586142 0.086244 0.999800 0.913366
C17   C     C_R   0.150112 0.957300 0.645310 -0.213594
C18   C     C_R   0.145560 0.009601 0.646987 -0.016896
C19   C     C_R   0.196637 0.070263 0.690640 -0.183736
C20   C     C_R   0.254010 0.078762 0.731231 -0.189260
C21   C     C_R   0.259438 0.026556 0.728763 0.115127
C22   C     C_R   0.691675 0.241693 0.027292 0.206621
C23   C     C_R   0.284290 0.835252 0.025919 -0.176582
C24   C     C_R   0.646503 0.195854 0.028068 -0.271003
C25   C     C_R   0.633146 0.133899 0.998585 -0.162911
C26   C     C_R   0.664193 0.117269 0.967110 -0.185432
C27   C     C_R   0.708603 0.161828 0.964663 0.421126
C28   C     C_R   0.417229 0.002209 0.914937 0.874360
C29   C     C_R   0.722931 0.224739 0.995676 -0.076340
C30   C     C_R   0.835415 0.290622 0.032653 -0.184676
C31   C     C_R   0.881880 0.336834 0.033897 -0.200152
C32   C     C_R   0.864114 0.365264 0.998835 -0.040374
C33   C     C_R   0.799619 0.347446 0.962857 -0.201410
C34   C     C_R   0.329574 0.880853 0.025322 -0.191159
C35   C     C_R   0.753211 0.301447 0.961982 -0.129313
C36   C     C_R   0.771282 0.273105 0.996730 0.131525
C37   C     C_R   0.007519 0.086262 0.593747 0.858189
C38   C     C_R   0.921231 0.999707 0.421512 0.873428
C39   C     C_R   0.010337 0.913758 0.423976 0.867458
C40   C     C_1   0.639187 0.999825 0.139445 -0.206109
C41   C     C_R   0.094464 0.002508 0.595760 0.871852
C42   C     C_R   0.998291 0.586650 0.085368 0.887025
C43   C     C_R   0.087207 0.586863 0.000366 0.887038
C44   C     C_R   0.001555 0.413141 0.914708 0.888502
C45   C     C_R   0.366566 0.866025 0.000910 -0.032701
C46   C     C_R   0.912778 0.413218 0.999702 0.891543
C47   C     C_R   0.981244 0.165220 0.721970 -0.175403
C48   C     C_R   0.981769 0.119371 0.676777 -0.191636
C49   C     C_R   0.006625 0.134114 0.640800 -0.030447
C50   C     C_R   0.030603 0.194854 0.650031 -0.192206
C51   C     C_R   0.029304 0.240463 0.694683 -0.178551
C52   C     C_1   0.681782 0.999642 0.182228 0.009672
C53   C     C_R   0.004804 0.225665 0.730738 0.109610
C54   C     C_R   0.974801 0.307120 0.760581 -0.173272
C55   C     C_R   0.973657 0.352685 0.805441 -0.193558
C56   C     C_R   0.358427 0.805468 0.977695 -0.190636
C57   C     C_R   0.002321 0.365205 0.867680 -0.038096
C58   C     C_R   0.031727 0.331660 0.884747 -0.193375
C59   C     C_R   0.032135 0.285565 0.839689 -0.175002
C60   C     C_R   0.003871 0.273476 0.777696 0.110605
C61   C     C_R   0.026465 0.834052 0.287666 -0.175277
C62   C     C_R   0.031160 0.880631 0.337031 -0.189186
C63   C     C_R   0.008186 0.865640 0.374119 -0.032656
C64   C     C_1   0.732504 0.999411 0.233164 -0.000532
C65   C     C_R   0.980874 0.803877 0.361746 -0.192052
C66   C     C_R   0.976908 0.757526 0.312901 -0.177522
C67   C     C_R   0.313693 0.760094 0.979087 -0.176256
C68   C     C_R   0.999572 0.772553 0.275771 0.109941
C69   C     C_R   0.024780 0.688474 0.240809 -0.175555
C70   C     C_R   0.024820 0.643450 0.194484 -0.191227
C71   C     C_R   0.997123 0.633544 0.133147 -0.037601
C72   C     C_R   0.969192 0.668917 0.118379 -0.196127
C73   C     C_R   0.969927 0.714685 0.165117 -0.173197
C74   C     C_R   0.997675 0.724348 0.226306 0.110224
C75   C     C_1   0.775123 0.999239 0.275936 -0.000730
C76   C     C_1   0.825952 0.999108 0.326870 0.009248
C77   C     C_3   0.758977 0.342029 0.121915 -0.768258
C78   C     C_R   0.276413 0.774921 0.002884 0.109754
C79   C     C_R   0.245362 0.693161 0.030801 -0.173965
H1    H     H_    0.255661 0.846969 0.044606 0.133876
H2    H     H_    0.653792 0.069267 0.943854 0.187798
H3    H     H_    0.335176 0.927384 0.043293 0.153737
H4    H     H_    0.849188 0.268580 0.059658 0.148492
H5    H     H_    0.931463 0.350006 0.061867 0.156935
H6    H     H_    0.785161 0.369094 0.935662 0.154119
H7    H     H_    0.703386 0.287679 0.934183 0.134094
H8    H     H_    0.961962 0.153553 0.749641 0.136355
H9    H     H_    0.963326 0.072707 0.670372 0.155626
H10   H     H_    0.049741 0.206901 0.622428 0.155194
H11   H     H_    0.047903 0.287341 0.701607 0.133998
H12   H     H_    0.367686 0.079184 0.930752 0.156578
H13   H     H_    0.952574 0.297627 0.712517 0.134567
H14   H     H_    0.386900 0.793380 0.959006 0.154783
H15   H     H_    0.950903 0.378376 0.791644 0.152956
H16   H     H_    0.053901 0.340736 0.932653 0.152415
H17   H     H_    0.054989 0.259801 0.853151 0.133229
H18   H     H_    0.044653 0.846014 0.259426 0.133936
H19   H     H_    0.051938 0.928041 0.345655 0.155308
H20   H     H_    0.962887 0.791487 0.389924 0.153327
H21   H     H_    0.956006 0.709945 0.303846 0.133285
H22   H     H_    0.046749 0.696055 0.288176 0.133378
H23   H     H_    0.393873 0.955589 0.796256 0.160342
H24   H     H_    0.046357 0.616311 0.206609 0.152949
H25   H     H_    0.947730 0.661774 0.071178 0.150324
H26   H     H_    0.307453 0.713309 0.960856 0.133870
H27   H     H_    0.948695 0.742271 0.153671 0.133494
H28   H     H_    0.294324 0.702541 0.053346 0.134178
H29   H     H_    0.212910 0.621572 0.052580 0.152178
H30   H     H_    0.070032 0.659832 0.950274 0.151865
H31   H     H_    0.151665 0.740892 0.951683 0.133347
H32   H     H_    0.305115 0.095691 0.850387 0.134406
H33   H     H_    0.665903 0.308984 0.055035 0.220024
H34   H     H_    0.331083 0.972886 0.715981 0.135707
H35   H     H_    0.768282 0.390998 0.141307 0.236267
H36   H     H_    0.802700 0.342004 0.123437 0.253935
H37   H     H_    0.748335 0.323586 0.151708 0.232095
H38   H     H_    0.759993 0.175073 0.925552 0.340872
H39   H     H_    0.211240 0.925456 0.686537 0.137129
H40   H     H_    0.110688 0.910507 0.610643 0.142327
H41   H     H_    0.192663 0.110765 0.691351 0.143461
H42   H     H_    0.293671 0.125624 0.765129 0.132762
H43   H     H_    0.622305 0.208926 0.052176 0.169908
N1    N     N_2   0.705382 0.304759 0.058108 -0.300336
O1    O     O_R   0.435210 0.897580 0.963710 -0.620179
O2    O     O_R   0.962510 0.565450 0.027970 -0.626177
O3    O     O_R   0.101760 0.565450 0.036270 -0.624213
O4    O     O_R   0.433860 0.971490 0.036290 -0.620548
O5    O     O_R   0.029180 0.565460 0.963690 -0.627902
O6    O     O_R   0.037490 0.434520 0.972000 -0.627576
O7    O     O_R   0.964910 0.434530 0.899420 -0.624837
O8    O     O_R   0.970820 0.434520 0.036280 -0.629031
O9    O     O_R   0.898240 0.434520 0.963700 -0.625063
O10   O     O_R   0.564960 0.963040 0.027990 -0.598016
O11   O     O_R   0.563610 0.036950 0.100570 -0.596450
O12   O     O_R   0.970940 0.028540 0.573320 -0.620612
O13   O     O_R   0.566140 0.028510 0.963710 -0.625193
O14   O     O_R   0.564790 0.102420 0.036290 -0.621219
O15   O     O_R   0.436390 0.963050 0.899430 -0.623757
O16   O     O_R   0.435040 0.036960 0.972010 -0.626893
O17   O     O_R   0.044860 0.102460 0.573320 -0.626313
O18   O     O_3   0.736134 0.141605 0.931380 -0.769705
O19   O     O_R   0.981770 0.037000 0.444750 -0.599454
O20   O     O_R   0.907850 0.963080 0.444760 -0.594514
O21   O     O_R   0.047250 0.971540 0.444760 -0.619085
O22   O     O_R   0.973330 0.897620 0.444760 -0.621229
O23   O     O_R   0.110330 0.036990 0.573320 -0.615070
O24   O     O_R   0.036420 0.963070 0.573330 -0.621696
O25   O     O_R   0.035090 0.565450 0.100560 -0.625539
Zn1   Zn    Zn3+2 0.500900 0.950650 0.951540 0.952988
Zn2   Zn    Zn3+2 0.499100 0.049350 0.048460 0.947258
Zn3   Zn    Zn3+2 0.058450 0.049390 0.509040 0.950604
Zn4   Zn    Zn3+2 0.959740 0.950680 0.509040 0.952522
Zn5   Zn    Zn3+2 0.048460 0.499980 0.048450 0.944970
Zn6   Zn    Zn3+2 0.951540 0.499990 0.951520 0.946118

loop_
_geom_bond_atom_site_label_1
_geom_bond_atom_site_label_2
_ccdc_geom_bond_type
C66   C68   A    
O1    Zn1   S    
C63   C65   A    
C22   C29   A    
C27   C29   A    
C38   O19   A    
C38   O20   A    
C35   C36   A    
C58   H16   S    
C42   O25   A    
C9    H12   S    
O13   Zn1   S    
C73   H27   S    
C22   N1    S    
C54   C60   A    
C67   C78   A    
C29   C36   S    
C3    C43   S    
C26   C27   A    
C14   C21   S    
C7    C79   A    
O21   Zn3   S    
O4    Zn2   S    
C46   O9    A    
C30   C31   A    
C35   H7    S    
C44   O7    A    
O12   Zn4   S    
O11   Zn2   S    
C18   C19   A    
C73   C74   A    
C66   H21   S    
C30   H4    S    
C33   H6    S    
C2    C79   A    
C42   O2    A    
C27   O18   S    
C62   H19   S    
C41   O23   A    
C16   O14   A    
C45   C56   A    
C8    C9    A    
C37   O17   A    
O9    Zn6   S    
C48   H9    S    
C70   C71   A    
C23   H1    S    
C77   H37   S    
C9    C10   A    
O5    Zn6   S    
C47   C53   A    
C59   C60   A    
C13   C14   A    
C6    H31   S    
C61   C62   A    
C28   O16   A    
C55   H15   S    
C43   O3    A    
C24   H43   S    
C53   C60   S    
C50   C51   A    
O15   Zn1   S    
C56   H14   S    
C79   H28   S    
C4    C40   S    
O8    Zn5   S    
O10   Zn1   S    
C24   C25   A    
C65   H20   S    
H33   N1    S    
C52   C64   S    
C18   C41   S    
C46   O8    A    
C70   H24   S    
C67   H26   S    
C72   H25   S    
C25   C26   A    
C40   C52   T    
C31   H5    S    
C51   C53   A    
C47   H8    S    
O19   Zn3   S    
H38   O18   S    
C75   C76   S    
C54   H13   S    
C62   C63   A    
C77   N1    S    
C37   C49   S    
C50   H10   S    
C47   C48   A    
C41   O24   A    
C44   C57   S    
C23   C34   A    
C39   O22   A    
C37   O12   A    
C17   C18   A    
C28   O15   A    
C69   C74   A    
O7    Zn6   S    
C34   C45   A    
C39   O21   A    
O17   Zn3   S    
C20   H42   S    
C7    C78   S    
C48   C49   A    
C19   H41   S    
C49   C50   A    
C26   H2    S    
C55   C57   A    
C22   C24   A    
O14   Zn2   S    
C8    H32   S    
C59   H17   S    
C77   H35   S    
C16   O13   A    
O2    Zn6   S    
C4    O11   A    
C10   C28   S    
C16   C25   S    
C15   C17   A    
C54   C55   A    
O20   Zn4   S    
C8    C14   A    
C32   C46   S    
C31   C32   A    
C61   H18   S    
C1    O4    A    
C72   C73   A    
C3    C5    A    
C43   O5    A    
C6    C7    A    
C69   H22   S    
C56   C67   A    
C39   C63   S    
O16   Zn2   S    
C15   H39   S    
C30   C36   A    
C32   C33   A    
C19   C20   A    
C12   C76   T    
C2    C3    A    
C44   O6    A    
C1    O1    A    
C71   C72   A    
C51   H11   S    
O6    Zn5   S    
C11   C13   A    
C61   C68   A    
C1    C45   S    
C57   C58   A    
C5    C6    A    
C5    H30   S    
C2    H29   S    
C42   C71   S    
C33   C35   A    
C64   C75   T    
O24   Zn4   S    
C11   H23   S    
C23   C78   A    
C12   C38   S    
C69   C70   A    
C58   C59   A    
O22   Zn4   S    
C10   C11   A    
C17   H40   S    
O23   Zn3   S    
O3    Zn5   S    
C15   C21   A    
C20   C21   A    
C65   C66   A    
O25   Zn5   S    
C34   H3    S    
C77   H36   S    
C68   C74   S    
C13   H34   S    
C4    O10   A    
