data_mof_unit_68310.cif
_audit_creation_date              2012-12-11T19:51:44-0500
_audit_creation_method            fapswitch 2.2
_symmetry_space_group_name_H-M    P1
_symmetry_Int_Tables_number       1
_space_group_crystal_system       triclinic
_cell_length_a                    16.503544
_cell_length_b                    27.996109
_cell_length_c                    8.453656
_cell_angle_alpha                 89.950662
_cell_angle_beta                  103.428183
_cell_angle_gamma                 89.781788
_cell_volume                      3799.07142393

loop_
_atom_site_label
_atom_site_type_symbol
_atom_type_description
_atom_site_fract_x
_atom_site_fract_y
_atom_site_fract_z
_atom_type_partial_charge
Ba1   Ba    Ba6+2 0.000400 0.534870 0.845190 1.639355
Ba2   Ba    Ba6+2 0.000400 0.465130 0.345190 1.642323
Ba3   Ba    Ba6+2 0.500400 0.034870 0.845190 1.639336
Ba4   Ba    Ba6+2 0.500400 0.965130 0.345190 1.642303
C1    C     C_3   0.013033 0.788164 0.645485 -0.072482
C2    C     C_3   0.021112 0.210480 0.140918 -0.065089
C3    C     C_3   0.513032 0.288164 0.645460 -0.072485
C4    C     C_3   0.521112 0.710480 0.140914 -0.065088
C5    C     C_R   0.145233 0.615016 0.411888 -0.257672
C6    C     C_R   0.144865 0.384278 0.907488 -0.255779
C7    C     C_R   0.645232 0.115016 0.411885 -0.257678
C8    C     C_R   0.644862 0.884277 0.907483 -0.255797
C9    C     C_2   0.747860 0.360317 0.912305 -0.124406
C10   C     C_2   0.751062 0.641725 0.420313 -0.116946
C11   C     C_2   0.247864 0.860316 0.912311 -0.124404
C12   C     C_2   0.251063 0.141725 0.420316 -0.116953
C13   C     C_2   0.815262 0.390418 0.912409 0.064441
C14   C     C_2   0.815856 0.609974 0.414482 0.063041
C15   C     C_2   0.315263 0.890418 0.912410 0.064446
C16   C     C_2   0.315856 0.109974 0.414483 0.063042
C17   C     C_2   0.843722 0.345651 0.682096 0.018350
C18   C     C_2   0.844136 0.654740 0.184708 0.017517
C19   C     C_2   0.343722 0.845651 0.682095 0.018352
C20   C     C_2   0.344134 0.154739 0.184707 0.017540
C21   C     C_3   0.788253 0.309124 0.716005 0.001756
C22   C     C_3   0.792568 0.692761 0.224110 -0.005667
C23   C     C_3   0.288255 0.809123 0.716008 0.001756
C24   C     C_3   0.292567 0.192761 0.224110 -0.005668
C25   C     C_3   0.720261 0.328050 0.780490 -0.051823
C26   C     C_3   0.724862 0.675886 0.293270 -0.028022
C27   C     C_3   0.220264 0.828049 0.780497 -0.051828
C28   C     C_3   0.224862 0.175886 0.293273 -0.028033
C29   C     C_2   0.754936 0.273917 0.582231 -0.060802
C30   C     C_2   0.759718 0.728527 0.091625 -0.060075
C31   C     C_2   0.254936 0.773918 0.582231 -0.060799
C32   C     C_2   0.259716 0.228526 0.091623 -0.060058
C33   C     C_2   0.257834 0.726508 0.612717 0.047651
C34   C     C_2   0.264703 0.275873 0.121689 0.037931
C35   C     C_2   0.757837 0.226507 0.612720 0.047646
C36   C     C_2   0.764705 0.775874 0.121693 0.037918
C37   C     C_R   0.251160 0.687871 0.338853 0.012523
C38   C     C_R   0.264263 0.316090 0.853682 0.016993
C39   C     C_R   0.751169 0.187868 0.338860 0.012508
C40   C     C_R   0.764270 0.816092 0.853692 0.016975
C41   C     C_R   0.218212 0.692218 0.485548 -0.054968
C42   C     C_R   0.226286 0.310225 0.993638 -0.053096
C43   C     C_R   0.718218 0.192216 0.485552 -0.054957
C44   C     C_R   0.726290 0.810226 0.993644 -0.053088
C45   C     C_3   0.023360 0.712529 0.113935 0.382518
C46   C     C_3   0.030003 0.290232 0.612114 0.388424
C47   C     C_3   0.523382 0.212519 0.113885 0.382537
C48   C     C_3   0.530007 0.790234 0.612107 0.388425
C49   C     C_R   0.233142 0.644768 0.237318 -0.161847
C50   C     C_R   0.244082 0.358528 0.749056 -0.156194
C51   C     C_R   0.733147 0.144766 0.237320 -0.161853
C52   C     C_R   0.744086 0.858530 0.749063 -0.156181
C53   C     C_R   0.186013 0.609487 0.275087 0.016809
C54   C     C_R   0.189584 0.391264 0.777012 0.016349
C55   C     C_R   0.686014 0.109487 0.275085 0.016822
C56   C     C_R   0.689584 0.891263 0.777010 0.016378
C57   C     C_R   0.159911 0.654679 0.514725 -0.025175
C58   C     C_R   0.162596 0.345800 0.015206 -0.020026
C59   C     C_R   0.659914 0.154678 0.514726 -0.025160
C60   C     C_R   0.662597 0.845800 0.015207 -0.020028
C61   C     C_3   0.056909 0.763198 0.133696 -0.373460
C62   C     C_3   0.069521 0.240837 0.633514 -0.373322
C63   C     C_3   0.556930 0.263188 0.133699 -0.373521
C64   C     C_3   0.569527 0.740839 0.633514 -0.373328
C65   C     C_3   0.731484 0.518711 0.907285 0.455466
C66   C     C_3   0.731343 0.482184 0.405501 0.418463
C67   C     C_3   0.231485 0.018711 0.907285 0.455467
C68   C     C_3   0.231343 0.982184 0.405499 0.418456
C69   C     C_3   0.638189 0.530045 0.832508 0.084871
C70   C     C_3   0.637774 0.472482 0.326384 0.063330
C71   C     C_3   0.138191 0.030045 0.832501 0.084872
C72   C     C_3   0.137774 0.972485 0.326373 0.063327
C73   C     C_3   0.311708 0.517172 0.332482 0.337042
C74   C     C_3   0.292098 0.499071 0.827795 0.329839
C75   C     C_3   0.811687 0.017155 0.332512 0.337014
C76   C     C_3   0.792082 0.999076 0.827812 0.329827
C77   C     C_3   0.383435 0.549926 0.315130 -0.395771
C78   C     C_3   0.367813 0.466583 0.889789 -0.409783
C79   C     C_3   0.883430 0.049913 0.315274 -0.395785
C80   C     C_3   0.867788 0.966587 0.889873 -0.409755
C81   C     C_3   0.027311 0.736816 0.593873 0.466053
C82   C     C_3   0.033796 0.262293 0.088703 0.420546
C83   C     C_3   0.527323 0.236817 0.593848 0.466045
C84   C     C_3   0.533798 0.762293 0.088698 0.420547
C85   C     C_2   0.863569 0.382315 0.787834 -0.280713
C86   C     C_2   0.863073 0.617474 0.288261 -0.283763
C87   C     C_2   0.363569 0.882315 0.787832 -0.280715
C88   C     C_2   0.363072 0.117474 0.288261 -0.283755
H1    H     H_    0.613904 0.500951 0.746964 0.038357
H2    H     H_    0.616403 0.502229 0.241062 0.100558
H3    H     H_    0.113907 0.000953 0.746951 0.038357
H4    H     H_    0.116409 0.002232 0.241047 0.100568
H5    H     H_    0.282088 0.531803 0.427682 0.038308
H6    H     H_    0.248534 0.495770 0.908439 0.087683
H7    H     H_    0.782048 0.031770 0.427705 0.038397
H8    H     H_    0.748501 0.995785 0.908421 0.087737
H9    H     H_    0.419723 0.533914 0.233102 0.123703
H10   H     H_    0.410934 0.468011 0.806764 0.112111
H11   H     H_    0.919671 0.033942 0.233090 0.123721
H12   H     H_    0.910910 0.967992 0.806847 0.112103
H13   H     H_    0.426020 0.555854 0.436092 0.081593
H14   H     H_    0.402093 0.477854 0.012864 0.095143
H15   H     H_    0.926053 0.055775 0.436238 0.081632
H16   H     H_    0.902070 0.977875 0.012926 0.095165
H17   H     H_    0.359961 0.585010 0.264799 0.084271
H18   H     H_    0.348017 0.429169 0.898766 0.078773
H19   H     H_    0.859977 0.085026 0.265191 0.084225
H20   H     H_    0.847980 0.929179 0.898926 0.078754
H21   H     H_    0.069803 0.738290 0.509338 -0.015158
H22   H     H_    0.078761 0.261640 0.009127 -0.014084
H23   H     H_    0.569829 0.238295 0.509342 -0.015137
H24   H     H_    0.578767 0.761639 0.009129 -0.014079
H25   H     H_    0.956563 0.789746 0.696132 0.111353
H26   H     H_    0.958752 0.206401 0.168266 0.109185
H27   H     H_    0.456554 0.289742 0.696083 0.111350
H28   H     H_    0.458752 0.706402 0.168260 0.109184
H29   H     H_    0.117562 0.763670 0.223904 0.063750
H30   H     H_    0.129916 0.242243 0.724342 0.063815
H31   H     H_    0.617621 0.263648 0.223793 0.063782
H32   H     H_    0.629926 0.742248 0.724329 0.063819
H33   H     H_    0.708700 0.366050 0.996929 0.070055
H34   H     H_    0.712809 0.636476 0.506791 0.072942
H35   H     H_    0.208705 0.866047 0.996938 0.070054
H36   H     H_    0.212811 0.136477 0.506796 0.072945
H37   H     H_    0.261744 0.641300 0.135102 0.104821
H38   H     H_    0.276614 0.363843 0.653087 0.092766
H39   H     H_    0.761756 0.141295 0.135114 0.104826
H40   H     H_    0.776621 0.863846 0.653098 0.092767
H41   H     H_    0.910341 0.408242 0.775204 0.068181
H42   H     H_    0.908351 0.590743 0.272900 0.068197
H43   H     H_    0.410340 0.908243 0.775201 0.068184
H44   H     H_    0.408351 0.090744 0.272901 0.068197
H45   H     H_    0.104523 0.586885 0.434337 0.081165
H46   H     H_    0.099566 0.410846 0.922982 0.076350
H47   H     H_    0.604520 0.086887 0.434330 0.081159
H48   H     H_    0.599561 0.910843 0.922973 0.076350
H49   H     H_    0.721550 0.287407 0.464492 0.057216
H50   H     H_    0.725432 0.715563 0.974109 0.054059
H51   H     H_    0.221550 0.787409 0.464494 0.057215
H52   H     H_    0.225430 0.215562 0.974108 0.054053
H53   H     H_    0.066346 0.799694 0.743350 0.080094
H54   H     H_    0.067336 0.201845 0.254770 0.106180
H55   H     H_    0.566337 0.299695 0.743343 0.080096
H56   H     H_    0.567335 0.701845 0.254767 0.106179
H57   H     H_    0.068536 0.689575 0.069604 0.081836
H58   H     H_    0.070716 0.314189 0.559948 0.086139
H59   H     H_    0.568541 0.189576 0.069459 0.081924
H60   H     H_    0.570716 0.814190 0.559927 0.086153
H61   H     H_    0.017868 0.699718 0.235428 -0.085652
H62   H     H_    0.026670 0.303518 0.734142 -0.086232
H63   H     H_    0.517929 0.199688 0.235379 -0.085650
H64   H     H_    0.526679 0.803523 0.734134 -0.086225
H65   H     H_    0.066214 0.776770 0.016021 0.125654
H66   H     H_    0.081005 0.228118 0.516716 0.127834
H67   H     H_    0.566160 0.276789 0.016004 0.125662
H68   H     H_    0.581002 0.728117 0.516715 0.127834
H69   H     H_    0.012464 0.786967 0.176619 0.124472
H70   H     H_    0.027793 0.215315 0.675745 0.107815
H71   H     H_    0.512520 0.286941 0.176794 0.124478
H72   H     H_    0.527803 0.715319 0.675765 0.107813
H73   H     H_    0.761039 0.509336 0.806992 0.057281
H74   H     H_    0.761732 0.491796 0.306544 0.068956
H75   H     H_    0.261041 0.009337 0.806994 0.057285
H76   H     H_    0.261735 0.991796 0.306546 0.068954
O1    O     O_2   0.163830 0.569270 0.980510 -0.449645
O2    O     O_2   0.163830 0.430730 0.480510 -0.430056
O3    O     O_2   0.663830 0.069270 0.980510 -0.449644
O4    O     O_2   0.663830 0.930730 0.480510 -0.430066
O5    O     O_3   0.738037 0.520001 0.516037 -0.685821
O6    O     O_3   0.737758 0.480221 0.015359 -0.683371
O7    O     O_3   0.238038 0.020001 0.516037 -0.685822
O8    O     O_3   0.237757 0.980221 0.015356 -0.683373
O9    O     O_3   0.946088 0.712470 0.000574 -0.584925
O10   O     O_3   0.950462 0.287473 0.506783 -0.584288
O11   O     O_3   0.446089 0.212472 0.000591 -0.584940
O12   O     O_3   0.450463 0.787473 0.506787 -0.584290
O13   O     O_3   0.904940 0.476110 0.001150 -0.502545
O14   O     O_3   0.904940 0.523890 0.501150 -0.501834
O15   O     O_3   0.404940 0.976110 0.001150 -0.502543
O16   O     O_3   0.404940 0.023890 0.501150 -0.501830
O17   O     O_3   0.095420 0.524330 0.188510 -0.462431
O18   O     O_3   0.095420 0.475670 0.688510 -0.475798
O19   O     O_3   0.595420 0.024330 0.188510 -0.462445
O20   O     O_3   0.595420 0.975670 0.688510 -0.475811
O21   O     O_3   0.028940 0.612400 0.656050 -0.459346
O22   O     O_3   0.028940 0.387600 0.156050 -0.457033
O23   O     O_3   0.528940 0.112400 0.656050 -0.459341
O24   O     O_3   0.528940 0.887600 0.156050 -0.457030
O25   O     O_2   0.169644 0.643911 0.841840 -0.487148
O26   O     O_2   0.170210 0.355635 0.342480 -0.483232
O27   O     O_2   0.669642 0.143913 0.841846 -0.487160
O28   O     O_2   0.670209 0.855634 0.342482 -0.483246
O29   O     O_3   0.254137 0.511582 0.181566 -0.631603
O30   O     O_3   0.253156 0.487647 0.666586 -0.630968
O31   O     O_3   0.754141 0.011586 0.181556 -0.631635
O32   O     O_3   0.753162 0.987644 0.666599 -0.630991
O33   O     O_3   0.063037 0.710215 0.734413 -0.596662
O34   O     O_3   0.064745 0.289545 0.229900 -0.592429
O35   O     O_3   0.563034 0.210215 0.734394 -0.596684
O36   O     O_3   0.564744 0.789545 0.229896 -0.592429
O37   O     O_2   0.837400 0.570350 0.710350 -0.441467
O38   O     O_2   0.837400 0.429650 0.210350 -0.442201
O39   O     O_2   0.337400 0.070350 0.710350 -0.441471
O40   O     O_2   0.337400 0.929650 0.210350 -0.442205
O41   O     O_3   0.972820 0.612580 0.035550 -0.487712
O42   O     O_3   0.972820 0.387420 0.535550 -0.492580
O43   O     O_3   0.472820 0.112580 0.035550 -0.487723
O44   O     O_3   0.472820 0.887420 0.535550 -0.492579
O45   O     O_2   0.835954 0.651231 0.848225 -0.466682
O46   O     O_2   0.838998 0.347532 0.345853 -0.463856
O47   O     O_2   0.335956 0.151233 0.848224 -0.466680
O48   O     O_2   0.339000 0.847532 0.345853 -0.463855
P1    P     P_3+3 0.171820 0.553000 0.158080 0.995907
P2    P     P_3+3 0.171820 0.447000 0.658080 0.990232
P3    P     P_3+3 0.671820 0.053000 0.158080 0.995872
P4    P     P_3+3 0.671820 0.947000 0.658080 0.990221
P5    P     P_3+3 0.829210 0.554130 0.532500 0.942814
P6    P     P_3+3 0.829210 0.445870 0.032500 0.940341
P7    P     P_3+3 0.329210 0.054130 0.532500 0.942814
P8    P     P_3+3 0.329210 0.945870 0.032500 0.940338
P9    P     P_3+3 0.897591 0.657717 0.015195 0.980768
P10   P     P_3+3 0.899044 0.341900 0.515235 0.980334
P11   P     P_3+3 0.397592 0.157718 0.015198 0.980770
P12   P     P_3+3 0.399045 0.841900 0.515236 0.980337
P13   P     P_3+3 0.107320 0.343643 0.182382 0.966284
P14   P     P_3+3 0.106007 0.656542 0.683401 0.955751
P15   P     P_3+3 0.607320 0.843643 0.182382 0.966271
P16   P     P_3+3 0.606008 0.156542 0.683400 0.955733
N1    N     N_3   0.947451 0.716292 0.511402 -0.509003
H77   H     H_    0.913168 0.708271 0.597704 0.206044
H78   H     H_    0.959303 0.684077 0.459468 0.128694
N2    N     N_3   0.954005 0.281700 0.998880 -0.523336
H79   H     H_    0.916114 0.288179 0.080179 0.203842
H80   H     H_    0.964911 0.314671 0.950778 0.133697
N3    N     N_3   0.447472 0.216292 0.511335 -0.509005
H81   H     H_    0.413177 0.208266 0.597611 0.206021
H82   H     H_    0.459336 0.184080 0.459394 0.128673
N4    N     N_3   0.454009 0.781699 0.998866 -0.523336
H83   H     H_    0.416115 0.788179 0.080159 0.203837
H84   H     H_    0.464917 0.814670 0.950765 0.133695
N5    N     N_3   0.589630 0.530698 0.957070 -0.493255
H85   H     H_    0.532921 0.548396 0.912826 0.178968
H86   H     H_    0.572645 0.495430 0.973708 0.168371
N6    N     N_3   0.584629 0.472630 0.442463 -0.506733
H87   H     H_    0.578975 0.507641 0.481032 0.188026
H88   H     H_    0.609941 0.450541 0.541309 0.172146
N7    N     N_3   0.089627 0.030695 0.957056 -0.493254
H89   H     H_    0.032917 0.048392 0.912806 0.178962
H90   H     H_    0.072644 0.995427 0.973691 0.168372
N8    N     N_3   0.084625 0.972637 0.442443 -0.506728
H91   H     H_    0.078978 0.007648 0.481017 0.188029
H92   H     H_    0.109930 0.950545 0.541288 0.172144
C89   C     C_3   0.626349 0.577531 0.738010 -0.382545
H93   H     H_    0.643254 0.608327 0.821831 0.143844
H94   H     H_    0.665118 0.578289 0.648180 0.142067
H95   H     H_    0.560311 0.581753 0.671168 0.088451
C90   C     C_3   0.623642 0.425456 0.231430 -0.360961
H96   H     H_    0.639827 0.394327 0.314566 0.129457
H97   H     H_    0.557070 0.422488 0.166783 0.106552
H98   H     H_    0.661555 0.423941 0.140338 0.138221
C91   C     C_3   0.126352 0.077533 0.738011 -0.382538
H99   H     H_    0.143256 0.108328 0.821838 0.143843
H100  H     H_    0.165123 0.078292 0.648185 0.142065
H101  H     H_    0.060316 0.081755 0.671165 0.088452
C92   C     C_3   0.123642 0.925458 0.231425 -0.360946
H102  H     H_    0.139802 0.894330 0.314570 0.129443
H103  H     H_    0.057075 0.922497 0.166736 0.106536
H104  H     H_    0.161575 0.923935 0.140369 0.138234
C93   C     C_3   0.347761 0.467915 0.388935 -0.287461
H105  H     H_    0.381776 0.452806 0.301261 0.095550
H106  H     H_    0.391356 0.470456 0.510269 0.077401
H107  H     H_    0.297257 0.442818 0.397011 0.142529
C94   C     C_3   0.320297 0.551098 0.830378 -0.302687
H108  H     H_    0.368499 0.555417 0.758953 0.075097
H109  H     H_    0.266536 0.574275 0.774844 0.125506
H110  H     H_    0.346066 0.563161 0.956963 0.084574
C95   C     C_3   0.847727 0.967890 0.388899 -0.287447
H111  H     H_    0.881802 0.952809 0.301276 0.095545
H112  H     H_    0.891261 0.970406 0.510309 0.077435
H113  H     H_    0.797208 0.942781 0.396778 0.142503
C96   C     C_3   0.820288 0.051102 0.830379 -0.302678
H114  H     H_    0.868510 0.055413 0.758995 0.075096
H115  H     H_    0.766535 0.074278 0.774793 0.125470
H116  H     H_    0.846034 0.063172 0.956966 0.084595
N9    N     N_3   0.003234 0.821009 0.508011 -0.530349
H117  H     H_    0.987208 0.854516 0.546394 0.176930
H118  H     H_    0.061268 0.825037 0.479678 0.168867
N10   N     N_3   0.030263 0.175439 0.018010 -0.518117
H119  H     H_    0.090398 0.177698 0.998541 0.170534
H120  H     H_    0.988580 0.183562 0.908486 0.176088
N11   N     N_3   0.503242 0.321011 0.507993 -0.530354
H121  H     H_    0.487205 0.354516 0.546373 0.176937
H122  H     H_    0.561281 0.325043 0.479687 0.168866
N12   N     N_3   0.530263 0.675438 0.018008 -0.518118
H123  H     H_    0.590398 0.677697 0.998537 0.170535
H124  H     H_    0.488580 0.683561 0.908484 0.176089
C97   C     C_3   0.305733 0.707334 0.773913 -0.344851
H125  H     H_    0.309020 0.667727 0.773481 0.110304
H126  H     H_    0.370138 0.720869 0.796473 0.121336
H127  H     H_    0.276610 0.719343 0.873088 0.135929
C98   C     C_3   0.314362 0.294900 0.281221 -0.329691
H128  H     H_    0.315372 0.334562 0.281521 0.115836
H129  H     H_    0.287810 0.282232 0.382975 0.133783
H130  H     H_    0.379484 0.282245 0.299145 0.152650
C99   C     C_3   0.805734 0.207335 0.773919 -0.344853
H131  H     H_    0.809023 0.167727 0.773492 0.110305
H132  H     H_    0.870139 0.220870 0.796483 0.121336
H133  H     H_    0.776608 0.219344 0.873091 0.135931
C100  C     C_3   0.814363 0.794900 0.281228 -0.329686
H134  H     H_    0.815376 0.834561 0.281530 0.115828
H135  H     H_    0.787808 0.782233 0.382979 0.133795
H136  H     H_    0.879484 0.782243 0.299157 0.152641
N13   N     N_3   0.771429 0.560340 0.994552 -0.468590
H137  H     H_    0.746547 0.565362 0.096366 0.134207
H138  H     H_    0.834733 0.552855 0.036105 0.185758
N14   N     N_3   0.770378 0.439652 0.490021 -0.471523
H139  H     H_    0.748477 0.435328 0.595494 0.109575
H140  H     H_    0.834289 0.445785 0.526813 0.195278
N15   N     N_3   0.271428 0.060339 0.994555 -0.468597
H141  H     H_    0.246546 0.065360 0.096369 0.134203
H142  H     H_    0.334733 0.052855 0.036110 0.185755
N16   N     N_3   0.270373 0.939652 0.490018 -0.471523
H143  H     H_    0.248468 0.935326 0.595487 0.109581
H144  H     H_    0.334285 0.945784 0.526818 0.195271

loop_
_geom_bond_atom_site_label_1
_geom_bond_atom_site_label_2
_ccdc_geom_bond_type
C51   C55   D    
O42   P10   S    
O6    P6    S    
C69   H1    S    
C71   H3    S    
C18   P9    S    
C97   H125  S    
C95   H113  S    
C16   C88   S    
C80   H20   S    
C42   C58   S    
C81   N1    S    
C75   H7    S    
C46   O10   S    
C86   H42   S    
C69   C89   S    
C69   N5    S    
C93   H107  S    
Ba1   P5    S    
C65   N13   S    
Ba4   O24   S    
N8    H92   S    
O15   P8    S    
C66   C70   S    
N4    H84   S    
C62   H30   S    
N16   H143  S    
Ba3   O16   S    
C82   O34   S    
C83   H23   S    
C9    H33   S    
C11   H35   S    
N5    H85   S    
O30   P2    S    
O25   P14   D    
C2    N10   S    
Ba4   O40   S    
C45   O9    S    
C64   H72   S    
C21   C25   A    
C23   C27   A    
N15   H141  S    
C73   C93   S    
C24   C28   A    
C13   C85   S    
Ba1   O13   S    
C17   C85   D    
C23   C31   S    
C74   C78   S    
C12   C16   A    
C72   C92   S    
C83   N3    S    
C57   P14   S    
C34   C98   S    
C4    N12   S    
C92   H103  S    
O32   P4    S    
N12   H123  S    
C33   C41   S    
C35   C43   S    
C71   C91   S    
C97   H127  S    
C45   H61   S    
C36   C44   S    
O14   P5    S    
C15   P8    S    
Ba2   O22   S    
C12   H36   S    
C63   H31   S    
C60   P15   S    
C46   C62   S    
C75   C95   S    
C67   N15   S    
C10   H34   S    
Ba3   O39   S    
N10   H120  S    
O21   P14   S    
C32   H52   S    
C66   N14   S    
C96   H115  S    
C72   H4    S    
C43   C59   S    
O36   P15   S    
C2    H54   S    
C70   C90   S    
C61   H69   S    
Ba2   P2    S    
C37   C41   S    
C63   H67   S    
C74   O30   S    
N15   H142  S    
C64   H68   S    
C39   C43   S    
C38   C50   S    
C40   C44   S    
O24   P15   S    
O39   P7    D    
N11   H122  S    
C77   H9    S    
O18   P2    S    
C47   H63   S    
O48   P12   D    
C79   H11   S    
C5    C57   A    
C6    C54   S    
C7    C59   A    
C90   H96   S    
C8    C60   A    
C100  H135  S    
C67   O8    S    
C89   H93   S    
C68   O7    S    
C14   P5    S    
C36   C100  S    
C98   H129  S    
C73   H5    S    
Ba2   O38   S    
C72   N8    S    
N1    H77   S    
O4    P4    D    
C1    C81   S    
C58   P13   S    
C67   H75   S    
C94   H108  S    
C68   H76   S    
C35   C99   S    
C47   O11   S    
C20   C88   D    
C3    H55   S    
C99   H132  S    
Ba3   O43   S    
C50   H38   S    
C77   H13   S    
C85   H41   S    
Ba1   O41   S    
O31   P3    S    
C95   H112  S    
C29   H49   S    
C82   N2    S    
C4    C84   S    
Ba2   O13   S    
N14   H140  S    
C70   N6    S    
N9    H117  S    
C78   H10   S    
N3    H82   S    
C47   C63   S    
C84   O36   S    
C91   H100  S    
C37   C49   S    
O34   P13   S    
C39   C51   S    
C22   C26   A    
C80   H12   S    
C49   H37   S    
Ba3   Ba4   S    
C17   C21   A    
Ba3   P7    S    
Ba4   O4    S    
C20   C24   A    
C90   H98   S    
C11   C27   A    
C12   C28   A    
C6    H46   S    
C2    C82   S    
C9    C13   A    
C89   H95   S    
C81   H21   S    
Ba2   O17   S    
C54   P2    S    
O38   P6    D    
C93   H106  S    
O27   P16   D    
O47   P11   D    
C78   H14   S    
Ba4   O15   S    
O11   P11   S    
C65   H73   S    
C34   C42   S    
O45   P9    D    
O9    P9    S    
C63   H71   S    
C94   H110  S    
N16   H144  S    
Ba3   O15   S    
O3    P3    D    
C21   C29   S    
Ba1   O21   S    
O16   P7    S    
O1    P1    D    
C70   H2    S    
N3    H81   S    
C76   C80   S    
O5    P5    S    
C19   P12   S    
N7    H89   S    
C88   H44   S    
C11   C15   A    
C17   P10   S    
O41   P9    S    
C9    C25   A    
C56   P4    S    
C84   N4    S    
O29   P1    S    
C44   C60   S    
C68   N16   S    
Ba2   P6    S    
C62   H70   S    
C38   C42   S    
N13   H138  S    
C7    H47   S    
C5    H45   S    
C3    C83   S    
N6    H88   S    
Ba4   P4    S    
C8    H48   S    
C65   C69   S    
C61   H29   S    
C20   P11   S    
O8    P8    S    
C81   O33   S    
C1    H53   S    
C97   H126  S    
C47   H59   S    
C92   H102  S    
O26   P13   D    
C6    C58   A    
N12   H124  S    
C7    C55   S    
C83   O35   S    
O20   P4    S    
C75   O31   S    
C14   C86   S    
C61   H65   S    
N11   H121  S    
C49   C53   D    
C99   H131  S    
O12   P12   S    
C52   C56   D    
C96   H114  S    
C3    H27   S    
C40   C52   S    
C73   C77   S    
C48   H60   S    
N4    H83   S    
C18   C86   D    
O7    P7    S    
C52   H40   S    
C45   C61   S    
Ba2   O2    S    
C77   H17   S    
C51   H39   S    
N5    H86   S    
C79   H19   S    
O40   P8    D    
C65   O6    S    
N6    H87   S    
C30   H50   S    
O13   P6    S    
C74   C94   S    
Ba1   O14   S    
O22   P13   S    
N8    H91   S    
C32   C34   D    
C4    H56   S    
C75   C79   S    
C100  H134  S    
O35   P16   S    
C53   P1    S    
C41   C57   S    
C80   H16   S    
C16   P7    S    
N2    H80   S    
C15   C87   S    
O44   P12   S    
C87   H43   S    
C24   C32   S    
Ba3   P3    S    
C98   H128  S    
C18   C22   A    
C92   H104  S    
Ba1   P1    S    
C73   O29   S    
C31   H51   S    
C10   C14   A    
C68   C72   S    
Ba3   O20   S    
C64   H32   S    
O19   P3    S    
Ba1   O18   S    
N2    H79   S    
C76   C96   S    
C29   C35   D    
O17   P1    S    
C30   C36   D    
C78   H18   S    
Ba4   O19   S    
N10   H119  S    
C31   C33   D    
C96   H116  S    
C66   H74   S    
N7    H90   S    
C33   C97   S    
C76   O32   S    
Ba1   Ba2   S    
Ba2   O14   S    
Ba1   O1    S    
C13   P6    S    
C22   C30   S    
O23   P16   S    
C74   H6    S    
C19   C23   A    
Ba1   O37   S    
C91   H99   S    
C48   C64   S    
O43   P11   S    
C76   H8    S    
C10   C26   A    
C66   O5    S    
Ba2   O42   S    
C90   H97   S    
C3    N11   S    
C100  H136  S    
C95   H111  S    
Ba4   P8    S    
C1    H25   S    
C89   H94   S    
C84   H24   S    
C48   O12   S    
Ba3   O23   S    
C46   H58   S    
O28   P15   D    
C98   H130  S    
C93   H105  S    
Ba4   O16   S    
N1    H78   S    
O33   P14   S    
C94   H109  S    
C19   C87   D    
C62   H66   S    
C4    H28   S    
C50   C54   D    
C99   H133  S    
C1    N9    S    
C48   H64   S    
Ba4   O44   S    
C45   H57   S    
C82   H22   S    
N14   H139  S    
C71   N7    S    
C55   P3    S    
C67   C71   S    
Ba3   O3    S    
C46   H62   S    
O37   P5    D    
N9    H118  S    
C79   H15   S    
C5    C53   S    
N13   H137  S    
O46   P10   D    
C91   H101  S    
O10   P10   S    
C8    C56   S    
C2    H26   S    
C59   P16   S    
O2    P2    D    
