data_mof_unit_53961.cif
_audit_creation_date              2012-12-10T21:26:01-0500
_audit_creation_method            fapswitch 2.2
_symmetry_space_group_name_H-M    P1
_symmetry_Int_Tables_number       1
_space_group_crystal_system       triclinic
_cell_length_a                    8.634585
_cell_length_b                    16.108051
_cell_length_c                    16.75417
_cell_angle_alpha                 87.151865
_cell_angle_beta                  90.896092
_cell_angle_gamma                 100.727692
_cell_volume                      2286.6730913

loop_
_atom_site_label
_atom_site_type_symbol
_atom_type_description
_atom_site_fract_x
_atom_site_fract_y
_atom_site_fract_z
_atom_type_partial_charge
C1    C     C_R   0.495172 0.488128 0.653053 0.909752
C2    C     C_R   0.504828 0.511872 0.346947 0.909752
C3    C     C_R   0.400136 0.754533 0.478111 -0.004806
C4    C     C_R   0.599863 0.245466 0.521889 -0.004804
C5    C     C_R   0.407132 0.842178 0.479365 -0.372074
C6    C     C_R   0.592867 0.157822 0.520635 -0.372075
C7    C     C_R   0.540038 0.894306 0.512393 0.236979
C8    C     C_R   0.459961 0.105694 0.487607 0.236983
C9    C     C_R   0.663670 0.855850 0.543194 0.432838
C10   C     C_R   0.336329 0.144150 0.456805 0.432843
C11   C     C_R   0.648035 0.766616 0.542898 -0.137015
C12   C     C_R   0.351965 0.233384 0.457102 -0.137026
C13   C     C_R   0.800044 0.521342 0.501905 0.884868
C14   C     C_R   0.199956 0.478658 0.498095 0.884868
C15   C     C_2   0.963936 0.531044 0.511731 0.187518
C16   C     C_2   0.036064 0.468956 0.488269 0.187520
C17   C     C_R   0.477340 0.478832 0.738992 -0.132200
C18   C     C_R   0.522660 0.521168 0.261008 -0.132201
C19   C     C_R   0.414294 0.539331 0.778319 -0.359109
C20   C     C_R   0.585706 0.460669 0.221681 -0.359110
C21   C     C_R   0.403966 0.534692 0.861445 0.456873
C22   C     C_R   0.596033 0.465308 0.138555 0.456873
C23   C     C_R   0.454385 0.466886 0.904287 0.203934
C24   C     C_R   0.545615 0.533114 0.095713 0.203934
C25   C     C_R   0.506356 0.402610 0.864832 0.410550
C26   C     C_R   0.493643 0.597389 0.135168 0.410549
C27   C     C_R   0.518652 0.409229 0.781565 -0.352614
C28   C     C_R   0.481348 0.590771 0.218435 -0.352615
H1    H     H_    0.627982 0.410460 0.255816 0.179300
H2    H     H_    0.372018 0.589540 0.744184 0.179300
H3    H     H_    0.563955 0.361535 0.750377 0.171437
H4    H     H_    0.436045 0.638465 0.249623 0.171437
H5    H     H_    0.700898 0.284625 0.548546 0.180004
H6    H     H_    0.299102 0.715374 0.451454 0.180004
H7    H     H_    0.690408 0.131426 0.545764 0.193578
H8    H     H_    0.309591 0.868574 0.454236 0.193578
H9    H     H_    0.738494 0.735514 0.569129 0.161495
H10   H     H_    0.261507 0.264487 0.430871 0.161493
N1    N     N_2   0.464517 0.465601 0.987938 -0.088631
N2    N     N_2   0.535482 0.534398 0.012061 -0.088631
N3    N     N_R   0.519180 0.718290 0.509780 -0.109955
N4    N     N_R   0.480820 0.281710 0.490220 -0.109952
N5    N     N_2   0.556053 0.984694 0.514951 -0.140667
N6    N     N_2   0.443946 0.015306 0.485049 -0.140666
O1    O     O_R   0.493140 0.422050 0.612640 -0.621386
O2    O     O_R   0.506860 0.577950 0.387360 -0.621386
O3    O     O_R   0.505450 0.562230 0.618920 -0.620802
O4    O     O_R   0.494550 0.437770 0.381080 -0.620803
O5    O     O_R   0.723530 0.446300 0.497600 -0.592805
O6    O     O_R   0.276470 0.553700 0.502400 -0.592805
O7    O     O_R   0.735850 0.586490 0.503880 -0.608006
O8    O     O_R   0.264150 0.413510 0.496120 -0.608006
Zn1   Zn    Zn3+2 0.491780 0.406400 0.495810 0.957117
Zn2   Zn    Zn3+2 0.508220 0.593600 0.504190 0.957117
O9    O     O_3   0.043637 0.605250 0.543670 -0.607584
C29   C     C_3   0.031556 0.597032 0.627682 -0.291731
H11   H     H_    0.082036 0.542246 0.652318 0.148718
H12   H     H_    0.907224 0.591242 0.647175 0.157498
H13   H     H_    0.100575 0.654909 0.653122 0.192560
O10   O     O_3   0.956363 0.394750 0.456330 -0.607583
C30   C     C_3   0.968444 0.402967 0.372318 -0.291739
H14   H     H_    0.092777 0.408757 0.352825 0.157498
H15   H     H_    0.917964 0.457753 0.347682 0.148720
H16   H     H_    0.899425 0.345090 0.346878 0.192558
O11   O     O_3   0.664707 0.408659 0.097590 -0.571697
C31   C     C_3   0.593140 0.324364 0.118448 -0.187415
H17   H     H_    0.620248 0.283264 0.071387 0.218896
H18   H     H_    0.462303 0.316101 0.121882 0.153139
H19   H     H_    0.642942 0.302207 0.175393 0.132940
O12   O     O_3   0.335292 0.591341 0.902409 -0.571698
C32   C     C_3   0.406859 0.675636 0.881552 -0.187413
H20   H     H_    0.537697 0.683899 0.878118 0.153140
H21   H     H_    0.379751 0.716736 0.928613 0.218896
H22   H     H_    0.357057 0.697793 0.824607 0.132942
O13   O     O_3   0.551113 0.336463 0.909367 -0.740846
H23   H     H_    0.585782 0.297146 0.872676 0.333002
O14   O     O_3   0.448886 0.663537 0.090632 -0.740846
H24   H     H_    0.414217 0.702854 0.127324 0.333001
O15   O     O_3   0.792526 0.906554 0.577866 -0.606486
C33   C     C_3   0.935466 0.888629 0.549596 -0.304803
H25   H     H_    0.932722 0.880451 0.483883 0.163298
H26   H     H_    0.966146 0.832234 0.582427 0.174357
H27   H     H_    0.031208 0.942916 0.561484 0.209990
O16   O     O_3   0.207474 0.093445 0.422133 -0.606488
C34   C     C_3   0.064530 0.111384 0.450386 -0.304811
H28   H     H_    0.033863 0.167771 0.417535 0.174358
H29   H     H_    0.067259 0.119582 0.516096 0.163299
H30   H     H_    0.968786 0.057094 0.438505 0.209981

loop_
_geom_bond_atom_site_label_1
_geom_bond_atom_site_label_2
_ccdc_geom_bond_type
C31   H18   S    
O9    C29   S    
C2    C18   S    
O13   H23   S    
O14   H24   S    
C6    H7    S    
O6    Zn2   S    
C22   C24   A    
C19   C21   A    
C24   C26   A    
N4    Zn1   S    
C9    O15   S    
C23   N1    S    
C31   H19   S    
C15   C16   D    
C5    H8    S    
C29   H11   S    
C11   H9    S    
C16   O10   S    
C30   H15   S    
C12   N4    A    
C24   N2    S    
C13   O7    A    
C14   O8    A    
O12   C32   S    
C7    N5    S    
C31   H17   S    
O1    Zn1   S    
C33   H27   S    
C20   H1    S    
C34   H29   S    
O4    Zn1   S    
C26   O14   S    
C27   H3    S    
C17   C27   A    
C28   H4    S    
C18   C28   A    
O16   C34   S    
C33   H26   S    
N1    N2    D    
C5    C7    A    
C1    O3    A    
C6    C8    A    
C3    H6    S    
C2    O4    A    
C34   H28   S    
C2    O2    A    
O10   C30   S    
C25   O13   S    
C15   O9    S    
C30   H16   S    
N5    N6    D    
C22   O11   S    
O2    Zn2   S    
C9    C11   A    
C10   C12   A    
O3    Zn2   S    
C13   O5    A    
C4    C6    A    
C20   C22   A    
C13   C15   S    
C14   C16   S    
O8    Zn1   S    
C32   H21   S    
C34   H30   S    
C7    C9    A    
C4    H5    S    
C3    N3    A    
C26   C28   A    
C8    N6    S    
C33   H25   S    
C3    C5    A    
C32   H22   S    
C25   C27   A    
C1    C17   S    
C29   H13   S    
C21   O12   S    
O7    Zn2   S    
C21   C23   A    
C32   H20   S    
C1    O1    A    
C14   O6    A    
C4    N4    A    
O5    Zn1   S    
C10   O16   S    
C17   C19   A    
C29   H12   S    
C11   N3    A    
C18   C20   A    
C23   C25   A    
C12   H10   S    
C30   H14   S    
N3    Zn2   S    
O15   C33   S    
C8    C10   A    
O11   C31   S    
C19   H2    S    
