data_mof_unit_65389.cif
_audit_creation_date              2012-12-10T16:56:08-0500
_audit_creation_method            fapswitch 2.2
_symmetry_space_group_name_H-M    P1
_symmetry_Int_Tables_number       1
_space_group_crystal_system       triclinic
_cell_length_a                    18.527009
_cell_length_b                    18.522527
_cell_length_c                    59.934513
_cell_angle_alpha                 90.000065
_cell_angle_beta                  90.00004
_cell_angle_gamma                 90.002146
_cell_volume                      20567.5484725

loop_
_atom_site_label
_atom_site_type_symbol
_atom_type_description
_atom_site_fract_x
_atom_site_fract_y
_atom_site_fract_z
_atom_type_partial_charge
C1    C     C_R   0.500000 0.000000 0.060698 0.780635
C2    C     C_R   0.934203 0.507343 0.809358 -0.043944
C3    C     C_R   0.044199 0.450628 0.597318 0.394269
C4    C     C_R   1.000000 0.500000 0.132200 0.114632
C5    C     C_R   0.500000 0.000000 0.132288 0.106626
C6    C     C_R   0.500000 1.000000 0.632200 0.114632
C7    C     C_R   1.000000 0.500000 0.632288 0.106622
C8    C     C_R   0.532225 0.057987 0.761860 0.052729
C9    C     C_R   0.933675 0.501945 0.761921 0.052692
C10   C     C_R   0.467775 0.942012 0.761860 0.052729
C11   C     C_R   0.066324 0.498053 0.761921 0.052692
C12   C     C_R   0.032222 0.557989 0.261860 0.052730
C13   C     C_R   0.471048 0.940432 0.809324 -0.043688
C14   C     C_R   0.433674 0.001913 0.261921 0.052694
C15   C     C_R   0.967778 0.442011 0.261860 0.052731
C16   C     C_R   0.566325 0.998088 0.261921 0.052694
C17   C     C_R   0.500000 0.999999 0.773669 0.079808
C18   C     C_R   0.999999 0.499999 0.773721 0.077507
C19   C     C_R   1.000000 0.500000 0.273669 0.079807
C20   C     C_R   0.500000 0.000001 0.273720 0.077504
C21   C     C_R   0.556686 0.118231 0.774055 -0.286586
C22   C     C_R   0.869145 0.509180 0.774154 -0.284016
C23   C     C_R   0.443314 0.881768 0.774055 -0.286585
C24   C     C_R   0.065795 0.492654 0.809358 -0.043944
C25   C     C_R   0.130854 0.490818 0.774155 -0.284016
C26   C     C_R   0.056679 0.618235 0.274055 -0.286585
C27   C     C_R   0.369140 0.009115 0.274154 -0.284015
C28   C     C_R   0.943320 0.381766 0.274055 -0.286585
C29   C     C_R   0.630859 0.990887 0.274154 -0.284015
C30   C     C_R   0.637266 0.860132 0.999591 0.710382
C31   C     C_R   0.137399 0.639736 0.000667 0.723129
C32   C     C_R   0.362734 0.139868 0.999591 0.710383
C33   C     C_R   0.862601 0.360264 0.000667 0.723129
C34   C     C_R   0.362739 0.860124 0.999588 0.698801
C35   C     C_R   0.028948 0.559569 0.309324 -0.043687
C36   C     C_R   0.862628 0.639760 0.000680 0.704937
C37   C     C_R   0.637261 0.139876 0.999588 0.698801
C38   C     C_R   0.137372 0.360240 0.000680 0.704936
C39   C     C_R   0.137266 0.360132 0.499591 0.710380
C40   C     C_R   0.637399 0.139736 0.500667 0.723129
C41   C     C_R   0.862734 0.639868 0.499591 0.710381
C42   C     C_R   0.362601 0.860264 0.500667 0.723128
C43   C     C_R   0.862739 0.360124 0.499588 0.698800
C44   C     C_R   0.362628 0.139760 0.500680 0.704933
C45   C     C_R   0.137261 0.639876 0.499588 0.698800
C46   C     C_R   0.434200 0.007312 0.309358 -0.043938
C47   C     C_R   0.637372 0.860240 0.500680 0.704934
C48   C     C_2   0.803593 0.252116 0.986875 -0.144806
C49   C     C_2   0.752292 0.808002 0.988797 -0.157681
C50   C     C_2   0.196407 0.747884 0.986876 -0.144808
C51   C     C_2   0.247709 0.191998 0.988797 -0.157681
C52   C     C_2   0.196293 0.251984 0.986930 -0.153963
C53   C     C_2   0.247792 0.807901 0.988742 -0.162180
C54   C     C_2   0.803707 0.748017 0.986930 -0.153962
C55   C     C_2   0.752207 0.192099 0.988742 -0.162181
C56   C     C_2   0.303593 0.752116 0.486875 -0.144806
C57   C     C_R   0.971051 0.440431 0.309324 -0.043687
C58   C     C_2   0.252291 0.308001 0.488797 -0.157682
C59   C     C_2   0.696407 0.247884 0.486876 -0.144804
C60   C     C_2   0.747709 0.691998 0.488797 -0.157682
C61   C     C_2   0.696293 0.751984 0.486930 -0.153963
C62   C     C_2   0.747792 0.307901 0.488742 -0.162181
C63   C     C_2   0.303707 0.248016 0.486930 -0.153964
C64   C     C_2   0.252207 0.692099 0.488742 -0.162181
C65   C     C_2   0.813624 0.299020 0.003691 0.391264
C66   C     C_2   0.685404 0.798058 0.996891 0.417687
C67   C     C_2   0.186376 0.700980 0.003691 0.391265
C68   C     C_R   0.565800 0.992689 0.309358 -0.043939
C69   C     C_2   0.314596 0.201942 0.996891 0.417687
C70   C     C_2   0.186309 0.298970 0.003727 0.396953
C71   C     C_2   0.314646 0.798015 0.996870 0.412662
C72   C     C_2   0.813691 0.701030 0.003727 0.396951
C73   C     C_2   0.685354 0.201985 0.996870 0.412661
C74   C     C_2   0.313624 0.799020 0.503691 0.391264
C75   C     C_2   0.185404 0.298058 0.496891 0.417687
C76   C     C_2   0.686376 0.200980 0.503691 0.391262
C77   C     C_2   0.814596 0.701942 0.496891 0.417687
C78   C     C_2   0.686309 0.798970 0.503726 0.396953
C79   C     C_R   0.553325 0.120802 0.797285 -0.003977
C80   C     C_2   0.814646 0.298015 0.496870 0.412664
C81   C     C_2   0.313691 0.201030 0.503726 0.396953
C82   C     C_2   0.185354 0.701985 0.496870 0.412662
C83   C     C_R   0.533942 0.054541 0.832804 0.539785
C84   C     C_R   0.937635 0.515185 0.832765 0.538612
C85   C     C_R   0.466058 0.945458 0.832804 0.539784
C86   C     C_R   0.062364 0.484811 0.832765 0.538611
C87   C     C_R   0.033939 0.554543 0.332804 0.539784
C88   C     C_R   0.437628 0.015157 0.332765 0.538616
C89   C     C_R   0.966060 0.445457 0.332804 0.539783
C90   C     C_R   0.868235 0.509643 0.797397 -0.003756
C91   C     C_R   0.562371 0.984843 0.332765 0.538614
C92   C     C_R   0.532636 0.943548 0.879703 -0.176734
C93   C     C_R   0.048540 0.543548 0.879721 -0.175554
C94   C     C_R   0.467364 0.056452 0.879703 -0.176735
C95   C     C_R   0.951460 0.456449 0.879721 -0.175552
C96   C     C_R   0.032639 0.443550 0.379703 -0.176734
C97   C     C_R   0.548525 0.043566 0.379721 -0.175551
C98   C     C_R   0.967361 0.556450 0.379703 -0.176733
C99   C     C_R   0.451474 0.956434 0.379721 -0.175551
C100  C     C_R   0.532145 0.941872 0.903062 -0.082797
C101  C     C_R   0.446675 0.879197 0.797285 -0.003977
C102  C     C_R   0.051005 0.542478 0.903037 -0.082906
C103  C     C_R   0.467855 0.058127 0.903062 -0.082796
C104  C     C_R   0.948995 0.457521 0.903037 -0.082907
C105  C     C_R   0.032148 0.441874 0.403062 -0.082794
C106  C     C_R   0.550992 0.042494 0.403037 -0.082905
C107  C     C_R   0.967852 0.558126 0.403062 -0.082795
C108  C     C_R   0.449008 0.957506 0.403037 -0.082905
C109  C     C_R   0.500000 1.000000 0.868005 0.307868
C110  C     C_R   1.000000 0.499999 0.868005 0.300088
C111  C     C_R   1.000000 0.500000 0.368005 0.307867
C112  C     C_R   1.000000 0.500000 0.060668 0.759968
C113  C     C_R   0.131764 0.490354 0.797397 -0.003755
C114  C     C_R   0.500000 0.000000 0.368005 0.300075
C115  C     C_2   0.435752 0.122939 0.913885 0.425775
C116  C     C_2   0.890249 0.415318 0.913792 0.439234
C117  C     C_2   0.564248 0.877061 0.913886 0.425777
C118  C     C_2   0.109752 0.584681 0.913791 0.439232
C119  C     C_2   0.935745 0.622935 0.413886 0.425781
C120  C     C_2   0.390272 0.915287 0.413791 0.439259
C121  C     C_2   0.064255 0.377065 0.413885 0.425778
C122  C     C_2   0.609727 0.084712 0.413791 0.439261
C123  C     C_2   0.570477 0.191403 0.807701 0.522482
C124  C     C_R   0.053317 0.620806 0.297285 -0.003977
C125  C     C_2   0.795949 0.506396 0.807991 0.519394
C126  C     C_2   0.429522 0.808596 0.807700 0.522481
C127  C     C_2   0.204050 0.493601 0.807991 0.519393
C128  C     C_2   0.070466 0.691408 0.307701 0.522483
C129  C     C_2   0.295945 0.006293 0.307991 0.519385
C130  C     C_2   0.929532 0.308593 0.307700 0.522485
C131  C     C_2   0.704055 0.993708 0.307991 0.519385
C132  C     C_R   0.368230 0.009578 0.297396 -0.003749
C133  C     C_R   0.946681 0.379195 0.297285 -0.003978
C134  C     C_R   0.631770 0.990424 0.297397 -0.003749
C135  C     C_R   0.500000 1.000000 0.915012 -0.059454
C136  C     C_R   0.000000 0.500000 0.914998 -0.066990
C137  C     C_R   1.000000 0.500000 0.415012 -0.059456
C138  C     C_R   0.500000 1.000000 0.414998 -0.066998
C139  C     C_R   1.000000 0.500000 0.085236 -0.243580
C140  C     C_R   1.000000 0.500000 0.560698 0.780647
C141  C     C_R   0.500000 0.000000 0.085301 -0.260244
C142  C     C_R   0.500000 1.000000 0.585236 -0.243578
C143  C     C_R   1.000000 0.500000 0.585301 -0.260258
C144  C     C_R   0.036624 0.555459 0.238175 0.050612
C145  C     C_R   0.433655 0.996154 0.238260 0.051242
C146  C     C_R   0.963375 0.444542 0.238175 0.050613
C147  C     C_R   0.566344 0.003848 0.238260 0.051241
C148  C     C_R   0.536628 0.055456 0.738175 0.050612
C149  C     C_R   0.933653 0.496186 0.738261 0.051239
C150  C     C_R   0.463373 0.944543 0.738175 0.050611
C151  C     C_R   0.500000 1.000000 0.560668 0.759970
C152  C     C_R   0.066346 0.503813 0.738261 0.051239
C153  C     C_R   1.000000 0.500000 0.226432 0.072528
C154  C     C_R   0.500000 0.000001 0.226532 0.071523
C155  C     C_R   0.500000 1.000000 0.726432 0.072528
C156  C     C_R   1.000000 0.499999 0.726533 0.071526
C157  C     C_R   0.076958 0.606390 0.225734 -0.205817
C158  C     C_R   0.369504 0.985744 0.225824 -0.206590
C159  C     C_R   0.923041 0.393610 0.225734 -0.205818
C160  C     C_R   0.630495 0.014258 0.225824 -0.206590
C161  C     C_R   0.576965 0.106385 0.725734 -0.205818
C162  C     C_R   0.500000 1.000000 0.797434 -0.085142
C163  C     C_R   0.869498 0.485807 0.725824 -0.206592
C164  C     C_R   0.423035 0.893614 0.725734 -0.205818
C165  C     C_R   0.130502 0.514192 0.725825 -0.206592
C166  C     C_R   0.077606 0.605235 0.202540 -0.126118
C167  C     C_R   0.370384 0.983244 0.202659 -0.127438
C168  C     C_R   0.922393 0.394765 0.202540 -0.126118
C169  C     C_R   0.629616 0.016757 0.202659 -0.127438
C170  C     C_R   0.577613 0.105230 0.702540 -0.126118
C171  C     C_R   0.870376 0.483306 0.702659 -0.127440
C172  C     C_R   0.422387 0.894769 0.702540 -0.126118
C173  C     C_R   1.000000 0.499999 0.797465 -0.085358
C174  C     C_R   0.129623 0.516693 0.702659 -0.127440
C175  C     C_R   0.038626 0.552984 0.190818 -0.034733
C176  C     C_R   0.435046 0.991406 0.190956 -0.031757
C177  C     C_R   0.961374 0.447017 0.190818 -0.034733
C178  C     C_R   0.564953 0.008595 0.190956 -0.031756
C179  C     C_R   0.538629 0.052981 0.690818 -0.034734
C180  C     C_R   0.935042 0.491437 0.690956 -0.031756
C181  C     C_R   0.461371 0.947018 0.690818 -0.034734
C182  C     C_R   0.064957 0.508563 0.690956 -0.031756
C183  C     C_R   0.500000 0.000000 0.939559 0.975332
C184  C     C_R   1.000000 0.500000 0.297434 -0.085142
C185  C     C_R   0.000000 0.500000 0.939552 0.960510
C186  C     C_R   1.000000 0.500000 0.439559 0.975326
C187  C     C_R   0.500000 1.000000 0.439552 0.960470
C188  C     C_R   1.000000 0.500000 0.202703 -0.048975
C189  C     C_R   0.500000 0.000001 0.202827 -0.049735
C190  C     C_R   0.500000 0.999999 0.702703 -0.048975
C191  C     C_R   1.000000 0.500000 0.702827 -0.049734
C192  C     C_R   0.961977 0.448069 0.167374 0.534821
C193  C     C_R   0.563631 0.009673 0.167541 0.532949
C194  C     C_R   0.038023 0.551932 0.167374 0.534821
C195  C     C_R   0.500000 0.000001 0.297464 -0.085362
C196  C     C_R   0.436369 0.990328 0.167541 0.532949
C197  C     C_R   0.461974 0.948070 0.667373 0.534821
C198  C     C_R   0.063635 0.509644 0.667542 0.532947
C199  C     C_R   0.538026 0.051929 0.667373 0.534821
C200  C     C_R   0.936364 0.490356 0.667542 0.532947
C201  C     C_R   0.963025 0.553737 0.120527 -0.090861
C202  C     C_R   0.458442 0.050278 0.120566 -0.090705
C203  C     C_R   0.036975 0.446263 0.120527 -0.090860
C204  C     C_R   0.541558 0.949723 0.120567 -0.090706
C205  C     C_R   0.463027 0.053738 0.620527 -0.090861
C206  C     C_R   0.528952 0.059567 0.809324 -0.043687
C207  C     C_R   0.958458 0.550291 0.620567 -0.090710
C208  C     C_R   0.536973 0.946262 0.620527 -0.090860
C209  C     C_R   0.041542 0.449710 0.620567 -0.090710
C210  C     C_R   0.963246 0.555258 0.097234 0.398324
C211  C     C_R   0.455787 0.049360 0.097317 0.394276
C212  C     C_R   0.036754 0.444742 0.097234 0.398323
C213  C     C_R   0.544213 0.950640 0.097318 0.394276
C214  C     C_R   0.463248 0.055259 0.597234 0.398324
C215  C     C_R   0.955801 0.549373 0.597318 0.394270
C216  C     C_R   0.536752 0.944741 0.597234 0.398324
H1    H     H_    0.834276 0.256790 0.971494 0.134218
H2    H     H_    0.269789 0.360835 0.483076 0.121810
H3    H     H_    0.665723 0.243210 0.471494 0.134221
H4    H     H_    0.730211 0.639165 0.483076 0.121810
H5    H     H_    0.665565 0.756580 0.471556 0.129135
H6    H     H_    0.730283 0.360714 0.483008 0.122427
H7    H     H_    0.334435 0.243420 0.471556 0.129135
H8    H     H_    0.269717 0.639286 0.483007 0.122428
H9    H     H_    0.574290 0.166767 0.765725 0.133201
H10   H     H_    0.817618 0.514365 0.765960 0.131646
H11   H     H_    0.425710 0.833232 0.765725 0.133201
H12   H     H_    0.769789 0.860835 0.983076 0.121811
H13   H     H_    0.182381 0.485633 0.765961 0.131646
H14   H     H_    0.074280 0.666772 0.265725 0.133200
H15   H     H_    0.317610 0.014273 0.265960 0.131642
H16   H     H_    0.925719 0.333228 0.265725 0.133200
H17   H     H_    0.682390 0.985728 0.265960 0.131642
H18   H     H_    0.442482 0.100018 0.870387 0.155117
H19   H     H_    0.913883 0.423039 0.870462 0.162081
H20   H     H_    0.557518 0.899981 0.870387 0.155117
H21   H     H_    0.086116 0.576958 0.870462 0.162081
H22   H     H_    0.942476 0.600015 0.370387 0.155117
H23   H     H_    0.165723 0.743210 0.971494 0.134219
H24   H     H_    0.413909 0.923012 0.370461 0.162092
H25   H     H_    0.057524 0.399985 0.370387 0.155117
H26   H     H_    0.586091 0.076988 0.370461 0.162092
H27   H     H_    0.934689 0.595456 0.129683 0.184830
H28   H     H_    0.426069 0.089138 0.129644 0.193278
H29   H     H_    0.065311 0.404544 0.129683 0.184830
H30   H     H_    0.573931 0.910863 0.129644 0.193278
H31   H     H_    0.434693 0.095458 0.629683 0.184830
H32   H     H_    0.926097 0.589161 0.629644 0.193285
H33   H     H_    0.565307 0.904541 0.629682 0.184830
H34   H     H_    0.230211 0.139165 0.983076 0.121811
H35   H     H_    0.073903 0.410839 0.629644 0.193285
H36   H     H_    0.109112 0.645632 0.193818 0.194631
H37   H     H_    0.319791 0.975133 0.193945 0.194725
H38   H     H_    0.890888 0.354369 0.193818 0.194631
H39   H     H_    0.680208 0.024869 0.193945 0.194725
H40   H     H_    0.609121 0.145625 0.693818 0.194632
H41   H     H_    0.819780 0.475220 0.693945 0.194726
H42   H     H_    0.390880 0.854374 0.693818 0.194632
H43   H     H_    0.180219 0.524780 0.693945 0.194726
H44   H     H_    0.110420 0.646879 0.233470 0.147951
H45   H     H_    0.165565 0.256580 0.971556 0.129137
H46   H     H_    0.317645 0.977051 0.233488 0.147670
H47   H     H_    0.889579 0.353122 0.233469 0.147951
H48   H     H_    0.682354 0.022950 0.233488 0.147670
H49   H     H_    0.610429 0.146871 0.733470 0.147952
H50   H     H_    0.817635 0.477140 0.733488 0.147674
H51   H     H_    0.389571 0.853128 0.733469 0.147952
H52   H     H_    0.182365 0.522859 0.733489 0.147674
H53   H     H_    0.798189 0.323024 0.035061 0.350086
H54   H     H_    0.609374 0.730588 0.005546 0.352078
H55   H     H_    0.201812 0.676976 0.035061 0.350087
H56   H     H_    0.230283 0.860714 0.983008 0.122428
H57   H     H_    0.390626 0.269412 0.005546 0.352078
H58   H     H_    0.201717 0.323046 0.035092 0.355778
H59   H     H_    0.390675 0.730594 0.005563 0.351108
H60   H     H_    0.798283 0.676954 0.035092 0.355778
H61   H     H_    0.609325 0.269406 0.005563 0.351108
H62   H     H_    0.298190 0.823023 0.535061 0.350085
H63   H     H_    0.109374 0.230588 0.505546 0.352079
H64   H     H_    0.701812 0.176976 0.535061 0.350087
H65   H     H_    0.890626 0.769412 0.505546 0.352079
H66   H     H_    0.701716 0.823045 0.535092 0.355778
H67   H     H_    0.834435 0.743421 0.971556 0.129137
H68   H     H_    0.890675 0.230594 0.505563 0.351108
H69   H     H_    0.298284 0.176955 0.535092 0.355778
H70   H     H_    0.109325 0.769406 0.505563 0.351108
H71   H     H_    0.401354 0.158593 0.904204 0.083735
H72   H     H_    0.865370 0.370960 0.904784 0.076191
H73   H     H_    0.598646 0.841407 0.904204 0.083734
H74   H     H_    0.134633 0.629035 0.904783 0.076194
H75   H     H_    0.901343 0.658586 0.404204 0.083731
H76   H     H_    0.365413 0.870917 0.404785 0.076178
H77   H     H_    0.098657 0.341414 0.404204 0.083731
H78   H     H_    0.769717 0.139286 0.983007 0.122428
H79   H     H_    0.634587 0.129083 0.404785 0.076177
H80   H     H_    0.614398 0.223860 0.801130 0.042994
H81   H     H_    0.751972 0.538391 0.801246 0.043659
H82   H     H_    0.385601 0.776140 0.801130 0.042995
H83   H     H_    0.248027 0.461607 0.801246 0.043659
H84   H     H_    0.114385 0.723867 0.301130 0.042997
H85   H     H_    0.251949 0.038262 0.301245 0.043661
H86   H     H_    0.885614 0.276134 0.301130 0.042995
H87   H     H_    0.748050 0.961740 0.301245 0.043661
H88   H     H_    0.942965 0.616221 0.071345 0.335181
H89   H     H_    0.334275 0.756790 0.471494 0.134222
H90   H     H_    0.392787 0.076051 0.072734 0.344666
H91   H     H_    0.057035 0.383779 0.071345 0.335182
H92   H     H_    0.607213 0.923949 0.072734 0.344666
H93   H     H_    0.442967 0.116222 0.571345 0.335182
H94   H     H_    0.892799 0.576073 0.572736 0.344671
H95   H     H_    0.557033 0.883778 0.571345 0.335181
H96   H     H_    0.107200 0.423926 0.572736 0.344672
N1    N     N_R   0.500000 1.000000 0.843973 -0.357973
N2    N     N_R   1.000000 0.499998 0.843968 -0.356158
N3    N     N_R   1.000000 0.500000 0.343973 -0.357974
N4    N     N_R   0.500000 0.000000 0.343968 -0.356157
N5    N     N_R   1.000000 0.500000 0.156166 -0.335386
N6    N     N_R   0.500000 0.000001 0.156290 -0.332262
N7    N     N_R   0.500000 1.000000 0.656166 -0.335386
N8    N     N_R   1.000000 0.500000 0.656290 -0.332259
O1    O     O_3   0.500000 0.000000 0.000110 -0.496215
O2    O     O_R   0.439940 0.000000 0.550050 -0.628142
O3    O     O_2   0.716520 0.036017 0.323133 -0.511950
O4    O     O_3   0.927969 0.612293 0.087121 -0.725834
O5    O     O_3   0.408343 0.096574 0.087192 -0.708825
O6    O     O_3   0.072031 0.387707 0.087121 -0.725835
O7    O     O_3   0.591657 0.903426 0.087192 -0.708825
O8    O     O_3   0.427973 0.112295 0.587121 -0.725836
O9    O     O_3   0.908370 0.596598 0.587192 -0.708815
O10   O     O_3   0.572027 0.887705 0.587121 -0.725836
O11   O     O_3   0.091631 0.403402 0.587192 -0.708816
O12   O     O_R   1.000000 0.439940 0.550050 -0.614213
O13   O     O_R   0.560060 0.000000 0.550050 -0.628143
O14   O     O_R   0.559990 0.000000 0.950170 -0.615888
O15   O     O_R   0.000000 0.559990 0.950170 -0.614563
O16   O     O_R   0.440010 0.000000 0.950170 -0.615888
O17   O     O_R   0.000000 0.440010 0.950170 -0.614569
O18   O     O_R   0.059990 0.500000 0.450170 -0.615888
O19   O     O_R   0.500000 0.059990 0.450170 -0.614568
O20   O     O_R   0.940010 0.500000 0.450170 -0.615889
O21   O     O_3   1.000000 0.500000 0.000110 -0.496298
O22   O     O_R   0.500000 0.940010 0.450170 -0.614568
O23   O     O_R   0.584430 0.855390 0.013200 -0.631202
O24   O     O_R   0.144610 0.584430 0.013200 -0.622904
O25   O     O_R   0.415570 0.144610 0.013200 -0.631203
O26   O     O_R   0.855390 0.415570 0.013200 -0.622903
O27   O     O_R   0.415570 0.855390 0.013200 -0.628426
O28   O     O_R   0.855390 0.584430 0.013200 -0.620427
O29   O     O_R   0.584430 0.144610 0.013200 -0.628427
O30   O     O_R   0.144610 0.415570 0.013200 -0.620427
O31   O     O_R   0.084430 0.355390 0.513200 -0.631203
O32   O     O_3   1.000000 0.500000 0.500110 -0.496215
O33   O     O_R   0.644610 0.084430 0.513200 -0.622904
O34   O     O_R   0.915570 0.644610 0.513200 -0.631203
O35   O     O_R   0.355390 0.915570 0.513200 -0.622903
O36   O     O_R   0.915570 0.355390 0.513200 -0.628425
O37   O     O_R   0.355390 0.084430 0.513200 -0.620427
O38   O     O_R   0.084430 0.644610 0.513200 -0.628426
O39   O     O_R   0.644610 0.915570 0.513200 -0.620427
O40   O     O_R   0.355260 0.084530 0.987020 -0.643952
O41   O     O_R   0.915470 0.355260 0.987020 -0.645157
O42   O     O_R   0.644740 0.915470 0.987020 -0.643952
O43   O     O_3   0.500000 0.000000 0.500110 -0.496297
O44   O     O_R   0.084530 0.644740 0.987020 -0.645155
O45   O     O_R   0.644740 0.084530 0.987020 -0.655812
O46   O     O_R   0.084530 0.355260 0.987020 -0.660369
O47   O     O_R   0.355260 0.915470 0.987020 -0.655813
O48   O     O_R   0.915470 0.644740 0.987020 -0.660369
O49   O     O_R   0.855260 0.584530 0.487020 -0.643952
O50   O     O_R   0.415470 0.855260 0.487020 -0.645153
O51   O     O_R   0.144740 0.415470 0.487020 -0.643952
O52   O     O_R   0.584530 0.144740 0.487020 -0.645153
O53   O     O_R   0.144740 0.584530 0.487020 -0.655812
O54   O     O_R   0.500000 0.060060 0.050050 -0.614216
O55   O     O_R   0.584530 0.855260 0.487020 -0.660371
O56   O     O_R   0.855260 0.415470 0.487020 -0.655813
O57   O     O_R   0.415470 0.144740 0.487020 -0.660371
O58   O     O_2   0.574250 0.102031 0.844444 -0.508119
O59   O     O_2   0.880258 0.540045 0.844277 -0.509876
O60   O     O_2   0.425750 0.897968 0.844444 -0.508118
O61   O     O_2   0.119741 0.459952 0.844277 -0.509876
O62   O     O_2   0.074244 0.602036 0.344444 -0.508115
O63   O     O_2   0.380239 0.039991 0.344276 -0.509877
O64   O     O_2   0.925756 0.397964 0.344444 -0.508114
O65   O     O_R   0.939940 0.500000 0.050050 -0.628141
O66   O     O_2   0.619761 0.960009 0.344276 -0.509876
O67   O     O_2   0.075469 0.602117 0.155861 -0.539288
O68   O     O_2   0.374605 0.979080 0.156114 -0.544755
O69   O     O_2   0.924531 0.397884 0.155861 -0.539287
O70   O     O_2   0.625395 0.020921 0.156114 -0.544755
O71   O     O_2   0.575475 0.102112 0.655861 -0.539288
O72   O     O_2   0.874595 0.479136 0.656114 -0.544761
O73   O     O_2   0.424526 0.897887 0.655861 -0.539287
O74   O     O_2   0.125405 0.520864 0.656115 -0.544760
O75   O     O_3   0.780992 0.286687 0.024162 -0.702132
O76   O     O_R   0.500000 0.939940 0.050050 -0.614216
O77   O     O_3   0.661055 0.728748 0.001352 -0.689579
O78   O     O_3   0.219008 0.713313 0.024162 -0.702132
O79   O     O_3   0.338945 0.271252 0.001352 -0.689580
O80   O     O_3   0.218961 0.286713 0.024199 -0.696101
O81   O     O_3   0.339017 0.728721 0.001342 -0.689661
O82   O     O_3   0.781038 0.713287 0.024199 -0.696101
O83   O     O_3   0.660983 0.271279 0.001343 -0.689661
O84   O     O_3   0.280992 0.786686 0.524162 -0.702132
O85   O     O_3   0.161055 0.228748 0.501352 -0.689579
O86   O     O_3   0.719008 0.213313 0.524162 -0.702132
O87   O     O_R   0.060060 0.500000 0.050050 -0.628142
O88   O     O_3   0.838945 0.771252 0.501352 -0.689579
O89   O     O_3   0.718961 0.786713 0.524199 -0.696103
O90   O     O_3   0.839017 0.228721 0.501342 -0.689660
O91   O     O_3   0.281039 0.213287 0.524199 -0.696103
O92   O     O_3   0.160983 0.771279 0.501343 -0.689660
O93   O     O_2   0.448845 0.139096 0.933208 -0.577741
O94   O     O_2   0.866365 0.431313 0.932118 -0.564566
O95   O     O_2   0.551154 0.860904 0.933208 -0.577742
O96   O     O_2   0.133633 0.568689 0.932118 -0.564569
O97   O     O_2   0.948840 0.639095 0.433208 -0.577739
O98   O     O_R   1.000000 0.560060 0.550050 -0.614213
O99   O     O_2   0.366375 0.931284 0.432115 -0.564554
O100  O     O_2   0.051159 0.360905 0.433208 -0.577737
O101  O     O_2   0.633625 0.068716 0.432115 -0.564554
O102  O     O_2   0.532596 0.216340 0.822485 -0.508830
O103  O     O_2   0.783460 0.464091 0.823133 -0.511942
O104  O     O_2   0.467404 0.783659 0.822484 -0.508830
O105  O     O_2   0.216538 0.535906 0.823133 -0.511942
O106  O     O_2   0.032583 0.716343 0.322485 -0.508829
O107  O     O_2   0.283479 0.963983 0.323133 -0.511950
O108  O     O_2   0.967416 0.283658 0.322484 -0.508829
Zn1   Zn    Zn3+2 0.585740 0.000000 0.981400 1.031133
Zn2   Zn    Zn3+2 0.085840 0.500000 0.018820 1.021822
Zn3   Zn    Zn3+2 0.500000 0.085840 0.018820 1.028220
Zn4   Zn    Zn3+2 0.914160 0.500000 0.018820 1.021823
Zn5   Zn    Zn3+2 1.000000 0.414160 0.518820 1.028222
Zn6   Zn    Zn3+2 0.585840 0.000000 0.518820 1.021820
Zn7   Zn    Zn3+2 1.000000 0.585840 0.518820 1.028222
Zn8   Zn    Zn3+2 0.414160 0.000000 0.518820 1.021820
Zn9   Zn    Zn3+2 1.000000 0.585740 0.981400 1.030172
Zn10  Zn    Zn3+2 0.414260 0.000000 0.981400 1.031133
Zn11  Zn    Zn3+2 1.000000 0.414260 0.981400 1.030169
Zn12  Zn    Zn3+2 0.085740 0.500000 0.481400 1.031132
Zn13  Zn    Zn3+2 0.500000 0.085740 0.481400 1.030162
Zn14  Zn    Zn3+2 0.914260 0.500000 0.481400 1.031132
Zn15  Zn    Zn3+2 0.500000 0.914260 0.481400 1.030162
Zn16  Zn    Zn3+2 0.500000 0.914160 0.018820 1.028220

loop_
_geom_bond_atom_site_label_1
_geom_bond_atom_site_label_2
_ccdc_geom_bond_type
C116  O94   D    
O38   Zn7   S    
O43   Zn8   S    
C108  C120  S    
O20   Zn14  S    
C141  C211  A    
C5    C204  A    
C152  C165  A    
O53   Zn12  S    
C37   O29   A    
O28   Zn4   S    
C31   C67   S    
C183  O16   A    
C9    C149  A    
H61   O83   S    
C35   C124  A    
C71   O81   S    
C83   C206  A    
C92   C109  A    
C157  H44   S    
C147  C160  A    
O43   Zn15  S    
O21   Zn4   S    
C119  H75   S    
C2    C90   A    
C6    C205  A    
C55   H78   S    
C175  C188  A    
C104  C116  S    
C152  C156  A    
C115  H71   S    
O14   Zn1   S    
O65   Zn4   S    
C48   C65   D    
C69   O79   S    
C70   O80   S    
C81   O91   S    
C100  C135  A    
C93   C110  A    
H54   O77   S    
O21   Zn11  S    
C57   C133  A    
O32   Zn12  S    
C168  H38   S    
C151  O2    A    
C158  C167  A    
C128  H84   S    
C48   H1    S    
C186  O18   A    
C83   O58   S    
C164  H51   S    
C187  O22   A    
C50   C53   S    
C28   C133  A    
O76   Zn16  S    
C3    C143  A    
C44   C81   S    
C178  C189  A    
C94   H18   S    
C67   O78   S    
C92   H20   S    
C87   O62   S    
C166  H36   S    
C40   C76   S    
C142  C151  S    
C128  O106  D    
C52   H45   S    
C181  C190  A    
C16   C20   A    
C39   O31   A    
C21   C79   A    
C49   H12   S    
C29   H17   S    
O98   Zn7   S    
C73   O83   S    
C99   H24   S    
C74   O84   S    
C154  C189  A    
C205  C214  A    
C88   O63   S    
C16   C147  A    
O43   Zn6   S    
O17   Zn11  S    
C53   C71   D    
C174  H43   S    
C85   O60   S    
C143  C215  A    
C137  C186  S    
C183  O14   A    
C197  O73   S    
C87   N3    A    
O1    Zn1   S    
C94   C103  A    
C123  O102  D    
C205  H31   S    
O23   Zn16  S    
C38   O46   A    
O43   Zn13  S    
C94   C109  A    
C8    C17   A    
H57   O79   S    
H58   O80   S    
C43   C80   S    
H92   O7    S    
C151  O13   A    
C86   O61   S    
C34   O47   A    
C176  C189  A    
C23   C101  A    
O2    Zn8   S    
O49   Zn14  S    
C68   C134  A    
C68   C195  A    
C47   O39   A    
O57   Zn13  S    
O15   Zn9   S    
C13   C85   A    
C40   O33   A    
O19   Zn13  S    
C100  C117  S    
C51   C69   D    
C216  O10   S    
H93   O8    S    
O27   Zn16  S    
C11   C18   A    
C167  H37   S    
C121  H77   S    
C193  O70   S    
C140  C143  S    
C135  C183  S    
C202  C211  A    
C181  C197  A    
C174  C182  A    
C99   C114  A    
C4    C201  A    
C99   C108  A    
H59   O81   S    
C177  C188  A    
H53   O75   S    
C62   C80   D    
C50   H23   S    
H90   O5    S    
C56   H89   S    
C46   C132  A    
C11   C25   A    
O26   Zn4   S    
C12   C19   A    
C31   O24   A    
C97   H26   S    
H95   O10   S    
C35   C87   A    
C172  C181  A    
C161  H49   S    
C158  H46   S    
C56   C64   S    
C80   O90   S    
C148  C155  A    
C39   C75   S    
C50   C67   D    
C28   H16   S    
C6    C208  A    
H69   O91   S    
H70   O92   S    
H63   O85   S    
C125  O103  D    
C42   O35   A    
O1    Zn3   S    
H68   O90   S    
C27   C132  A    
C119  O97   D    
C72   O82   S    
O36   Zn5   S    
O31   Zn5   S    
C8    C21   A    
C102  C136  A    
C1    O54   A    
C96   C111  A    
C49   C66   D    
C63   H7    S    
C114  N4    S    
C7    C207  A    
C192  O69   S    
C4    C203  A    
C54   C72   D    
C165  C174  A    
O41   Zn11  S    
O50   Zn15  S    
C12   C26   A    
C89   O64   S    
C180  C200  A    
C117  O95   D    
H55   O78   S    
C31   O44   A    
C118  O96   D    
C160  C169  A    
C106  C122  S    
C192  N5    A    
C91   O66   S    
C89   N3    A    
C115  O93   D    
C145  C154  A    
O30   Zn2   S    
O54   Zn3   S    
C150  C155  A    
C163  H50   S    
H60   O82   S    
C164  C172  A    
C44   O57   A    
C54   H67   S    
C83   N1    A    
C104  C136  A    
C120  O99   D    
C117  H73   S    
C84   N2    A    
C213  O7    S    
H62   O84   S    
C180  C191  A    
O56   Zn14  S    
C19   C184  A    
C15   C146  A    
C91   N4    A    
C22   H10   S    
C139  C212  A    
C150  C164  A    
O52   Zn13  S    
C210  O4    S    
O13   Zn6   S    
C43   O56   A    
C82   O92   S    
C30   O23   A    
C47   O55   A    
C142  C216  A    
O35   Zn8   S    
C30   O42   A    
C58   H2    S    
O33   Zn6   S    
O42   Zn1   S    
C140  O12   A    
C203  C212  A    
C204  H30   S    
C96   H25   S    
C127  H83   S    
C55   C73   D    
C156  C191  A    
C9    C18   A    
C159  H47   S    
C177  C192  A    
C129  H85   S    
C47   C78   S    
C199  N7    A    
C97   C114  A    
C121  O100  D    
C24   C86   A    
C59   C76   D    
C200  N8    A    
C57   C184  A    
C130  H86   S    
C36   C72   S    
C3    C209  A    
C48   C55   S    
C93   H21   S    
C96   C105  A    
C38   C70   S    
C185  O17   A    
C169  H39   S    
C2    C84   A    
C131  C134  S    
C38   O30   A    
O51   Zn12  S    
C13   C162  A    
C8    C148  A    
C15   C19   A    
C14   C145  A    
C25   H13   S    
C166  C175  A    
C1    O76   A    
C57   C89   A    
H65   O88   S    
C60   H4    S    
C2    C173  A    
C85   N1    A    
O45   Zn1   S    
C168  C177  A    
O18   Zn12  S    
O24   Zn2   S    
C64   H8    S    
C51   H34   S    
C129  O107  D    
C32   O25   A    
C165  H52   S    
C44   O37   A    
C78   O89   S    
O16   Zn10  S    
C14   C27   A    
C163  C171  A    
C20   C195  A    
C124  C128  S    
C129  C132  S    
C29   C134  A    
O22   Zn15  S    
O87   Zn2   S    
C162  C206  A    
C40   O52   A    
C26   C124  A    
C24   C173  A    
C107  C119  S    
C7    C209  A    
C187  O19   A    
C5    N6    S    
C198  O74   S    
O1    Zn10  S    
C139  C210  A    
C7    N8    S    
C42   C74   S    
C56   C74   D    
C45   O38   A    
C14   C20   A    
C171  H41   S    
C193  N6    A    
C142  C214  A    
O12   Zn5   S    
C41   O34   A    
C35   C184  A    
O47   Zn10  S    
C98   C107  A    
C51   C52   S    
C214  O8    S    
C60   C61   S    
C107  C137  A    
C103  C115  S    
C155  C190  A    
C25   C113  A    
C125  H81   S    
C203  H29   S    
C53   H56   S    
C197  N7    A    
C207  C215  A    
C22   C90   A    
C198  N8    A    
C126  H82   S    
C97   C106  A    
O46   Zn11  S    
C194  O67   S    
C130  C133  S    
C182  C191  A    
C120  H76   S    
C140  O98   A    
C131  H87   S    
C34   O27   A    
C109  N1    S    
C42   O50   A    
C95   C110  A    
C93   C102  A    
C32   O40   A    
O48   Zn9   S    
C98   H22   S    
C153  C188  A    
C112  O65   A    
C3    O11   S    
C170  C179  A    
C37   O45   A    
C170  H40   S    
H96   O11   S    
C10   C150  A    
C108  C138  A    
C145  C158  A    
C15   C28   A    
C146  C153  A    
C179  C199  A    
C77   O88   S    
C90   C125  S    
C208  H33   S    
C61   H5    S    
C1    C141  S    
C122  O101  D    
C118  H74   S    
C4    N5    S    
C215  O9    S    
C131  O3    D    
C6    N7    S    
O40   Zn10  S    
C136  C185  S    
C45   C82   S    
C182  C198  A    
C76   O86   S    
C207  H32   S    
C112  O87   A    
C33   C65   S    
C46   C195  A    
O44   Zn9   S    
C63   C81   D    
C148  C161  A    
C149  C156  A    
C39   O51   A    
C41   C77   S    
C9    C22   A    
C106  C138  A    
C10   C17   A    
C49   C54   S    
C26   H14   S    
C88   N4    A    
C68   C91   A    
C159  C168  A    
C45   O53   A    
C144  C153  A    
C147  C154  A    
C103  C135  A    
C41   O49   A    
C101  C126  S    
C149  C163  A    
O32   Zn5   S    
C127  O105  D    
C185  O15   A    
C175  C194  A    
C102  C118  S    
C62   H6    S    
O1    Zn16  S    
C202  H28   S    
C24   C113  A    
C208  C216  A    
C112  C139  S    
C95   H19   S    
C75   O85   S    
C123  H80   S    
C58   C75   D    
C86   N2    A    
C46   C88   A    
C60   C77   D    
C65   O75   S    
O32   Zn14  S    
C17   C162  A    
C141  C213  A    
C5    C202  A    
C146  C159  A    
C212  O6    S    
C16   C29   A    
C79   C123  S    
C204  C213  A    
O29   Zn3   S    
C12   C144  A    
H94   O9    S    
C111  N3    S    
C196  N6    A    
C61   C78   D    
O21   Zn2   S    
C105  C121  S    
C66   O77   S    
C176  C196  A    
C84   O59   S    
C64   C82   D    
C30   C66   S    
H64   O86   S    
C209  H35   S    
C161  C170  A    
C27   H15   S    
H91   O6    S    
C126  O104  D    
C171  C180  A    
H88   O4    S    
O25   Zn3   S    
C13   C101  A    
C194  N5    A    
C201  C210  A    
C95   C104  A    
C92   C100  A    
C160  H48   S    
C58   C63   S    
C37   C73   S    
C59   C62   S    
O21   Zn9   S    
C98   C111  A    
C130  O108  D    
C157  C166  A    
C36   O48   A    
C23   H11   S    
C32   C69   S    
C113  C127  S    
C186  O20   A    
C10   C23   A    
C211  O5    S    
C79   C206  A    
C21   H9    S    
C201  H27   S    
O39   Zn6   S    
C36   O28   A    
C105  C137  A    
C138  C187  S    
C144  C157  A    
O37   Zn8   S    
C59   H3    S    
C179  C190  A    
C116  H72   S    
O32   Zn7   S    
C199  O71   S    
O55   Zn15  S    
C200  O72   S    
C52   C70   D    
C169  C178  A    
C18   C173  A    
C11   C152  A    
C33   O41   A    
C43   O36   A    
C196  O68   S    
C110  N2    S    
H66   O89   S    
C122  H79   S    
O34   Zn7   S    
C33   O26   A    
C172  H42   S    
C34   C71   S    
C178  C193  A    
C167  C176  A    
