data_mof_unit_62555.cif
_audit_creation_date              2012-12-10T18:59:14-0500
_audit_creation_method            fapswitch 2.2
_symmetry_space_group_name_H-M    P1
_symmetry_Int_Tables_number       1
_space_group_crystal_system       triclinic
_cell_length_a                    43.991383
_cell_length_b                    30.242323
_cell_length_c                    30.250931
_cell_angle_alpha                 90.135149
_cell_angle_beta                  133.582036
_cell_angle_gamma                 90.168271
_cell_volume                      29152.9801213

loop_
_atom_site_label
_atom_site_type_symbol
_atom_type_description
_atom_site_fract_x
_atom_site_fract_y
_atom_site_fract_z
_atom_type_partial_charge
C1    C     C_R   0.499284 0.000034 0.585505 0.921663
C2    C     C_3   0.725217 0.050391 0.720863 -0.455471
C3    C     C_R   0.482633 0.295932 0.017456 -0.233411
C4    C     C_R   0.018313 0.842466 0.982195 0.433904
C5    C     C_R   0.982982 0.842005 0.018809 0.437614
C6    C     C_R   0.518314 0.342466 0.982197 0.433902
C7    C     C_R   0.482982 0.342005 0.018808 0.437610
C8    C     C_R   0.000432 0.865447 0.000300 -0.281780
C9    C     C_R   0.500432 0.365447 0.000300 -0.281778
C10   C     C_R   0.001064 0.773518 0.000772 0.123421
C11   C     C_R   0.501064 0.273518 0.000772 0.123422
C12   C     C_R   0.525429 0.202960 0.056276 0.390544
C13   C     C_3   0.774811 0.452872 0.257571 -0.455670
C14   C     C_R   0.476553 0.202668 0.944864 0.390083
C15   C     C_R   0.025430 0.702960 0.056276 0.390543
C16   C     C_R   0.976552 0.702668 0.944863 0.390082
C17   C     C_R   0.523837 0.156848 0.055901 0.349967
C18   C     C_R   0.477504 0.156536 0.944893 0.349188
C19   C     C_R   0.023838 0.656848 0.055901 0.349967
C20   C     C_R   0.977503 0.656536 0.944892 0.349189
C21   C     C_R   0.500459 0.133901 0.000297 -0.419642
C22   C     C_R   0.000459 0.633901 0.000297 -0.419643
C23   C     C_3   0.274354 0.034262 0.244303 -0.531080
C24   C     C_3   0.225214 0.550373 0.720625 -0.455479
C25   C     C_3   0.725616 0.976069 0.685575 -0.537955
C26   C     C_3   0.774354 0.534261 0.244301 -0.531079
C27   C     C_3   0.225618 0.475884 0.685696 -0.537948
C28   C     C_R   0.501113 0.225612 0.000652 -0.246647
C29   C     C_R   0.001113 0.725612 0.000651 -0.246647
C30   C     C_R   0.976283 0.203020 0.942583 -0.233131
C31   C     C_R   0.021043 0.204611 0.052287 -0.225784
C32   C     C_R   0.476317 0.703023 0.942593 -0.233147
C33   C     C_R   0.521019 0.704612 0.052284 -0.225786
C34   C     C_R   0.974995 0.157021 0.942557 0.160360
C35   C     C_1   0.162984 0.997752 0.163735 -0.046908
C36   C     C_R   0.020989 0.158675 0.053684 0.146580
C37   C     C_R   0.475027 0.657024 0.942563 0.160385
C38   C     C_R   0.520963 0.658676 0.053679 0.146595
C39   C     C_R   0.998322 0.134585 0.998665 -0.114951
C40   C     C_R   0.498324 0.634586 0.998664 -0.114993
C41   C     C_R   0.998889 0.226427 0.997110 0.191229
C42   C     C_R   0.498894 0.726429 0.997114 0.191199
C43   C     C_R   0.475444 0.796878 0.005970 0.095333
C44   C     C_R   0.521801 0.797330 0.987706 0.093075
C45   C     C_R   0.975453 0.296877 0.005989 0.095331
C46   C     C_1   0.837057 0.002269 0.837365 -0.041933
C47   C     C_R   0.021785 0.297328 0.987679 0.093078
C48   C     C_R   0.477321 0.843045 0.009536 0.398345
C49   C     C_R   0.520910 0.843552 0.986403 0.399613
C50   C     C_R   0.977332 0.343045 0.009556 0.398344
C51   C     C_R   0.020896 0.343550 0.986381 0.399611
C52   C     C_R   0.499474 0.866053 0.998726 -0.335666
C53   C     C_R   0.999474 0.366052 0.998726 -0.335655
C54   C     C_R   0.498493 0.774359 0.996477 -0.114761
C55   C     C_R   0.998488 0.274358 0.996472 -0.114777
C56   C     C_3   0.226047 0.036109 0.199507 -0.501126
C57   C     C_1   0.662984 0.497752 0.163735 -0.046906
C58   C     C_3   0.773951 0.973326 0.736787 -0.497324
C59   C     C_3   0.726047 0.536108 0.199506 -0.501125
C60   C     C_3   0.273953 0.473159 0.736925 -0.497327
C61   C     C_1   0.125496 0.999070 0.125832 -0.192681
C62   C     C_1   0.874535 0.001055 0.874472 -0.197133
C63   C     C_1   0.625496 0.499070 0.125832 -0.192681
C64   C     C_1   0.374535 0.501060 0.874473 -0.197118
C65   C     C_3   0.291255 0.997942 0.292340 0.127649
C66   C     C_3   0.708800 0.001992 0.709086 0.128477
C67   C     C_3   0.791255 0.497942 0.292340 0.127649
C68   C     C_1   0.337057 0.502277 0.837366 -0.041951
C69   C     C_3   0.208799 0.501997 0.709080 0.128462
C70   C     C_3   0.225020 0.004256 0.274431 -0.533640
C71   C     C_3   0.775157 0.982211 0.819959 -0.532864
C72   C     C_3   0.725020 0.504258 0.274430 -0.533642
C73   C     C_3   0.275156 0.482427 0.820052 -0.532841
C74   C     C_3   0.208656 0.996361 0.209853 0.150700
C75   C     C_3   0.791402 0.003511 0.792336 0.150197
C76   C     C_3   0.708655 0.496361 0.209852 0.150700
C77   C     C_3   0.291402 0.503522 0.792332 0.150166
C78   C     C_3   0.283064 0.947752 0.381821 -0.280605
C79   C     C_1   0.336979 0.998842 0.337598 0.008787
C80   C     C_3   0.717095 0.022463 0.825295 -0.244338
C81   C     C_3   0.783063 0.447755 0.381822 -0.280614
C82   C     C_3   0.217079 0.522982 0.825170 -0.244217
C83   C     C_3   0.207841 0.960030 0.116138 -0.379574
C84   C     C_3   0.792516 0.064739 0.715101 -0.418772
C85   C     C_3   0.707841 0.460028 0.116139 -0.379567
C86   C     C_3   0.292527 0.564385 0.714826 -0.418702
C87   C     C_3   0.516338 0.103450 0.746953 -0.339955
C88   C     C_3   0.485719 0.103272 0.255567 -0.341320
C89   C     C_3   0.016341 0.603450 0.746955 -0.339971
C90   C     C_1   0.663058 0.001179 0.662816 0.008248
C91   C     C_3   0.985720 0.603272 0.255568 -0.341314
C92   C     C_3   0.409537 0.951275 0.529030 -0.714790
C93   C     C_3   0.589066 0.949619 0.469174 -0.768929
C94   C     C_3   0.909535 0.451277 0.529028 -0.714788
C95   C     C_3   0.089066 0.449618 0.469174 -0.768935
C96   C     C_3   0.582384 0.941417 0.852683 -0.335700
C97   C     C_3   0.416633 0.941095 0.145730 -0.344058
C98   C     C_3   0.082381 0.441413 0.852680 -0.335644
C99   C     C_3   0.916633 0.441096 0.145731 -0.344053
C100  C     C_3   0.016160 0.859012 0.906576 -0.244464
C101  C     C_1   0.836979 0.498842 0.337597 0.008788
C102  C     C_3   0.985308 0.858757 0.094619 -0.249402
C103  C     C_3   0.516164 0.359011 0.906580 -0.244463
C104  C     C_3   0.485304 0.358757 0.094615 -0.249403
C105  C     C_3   0.589870 0.231292 0.135754 -0.256224
C106  C     C_3   0.412297 0.230379 0.865199 -0.251759
C107  C     C_3   0.089872 0.731293 0.135751 -0.256220
C108  C     C_3   0.912295 0.730379 0.865200 -0.251752
C109  C     C_3   0.521311 0.127718 0.122313 -0.240409
C110  C     C_3   0.479741 0.126813 0.878312 -0.239558
C111  C     C_3   0.021315 0.627718 0.122316 -0.240402
C112  C     C_R   0.500688 0.999944 0.414452 0.914429
C113  C     C_1   0.163058 0.501179 0.662811 0.008231
C114  C     C_3   0.979737 0.626813 0.878309 -0.239559
C115  C     C_3   0.909352 0.119242 0.863385 -0.740649
C116  C     C_3   0.025206 0.135393 0.133758 -0.733991
C117  C     C_3   0.409400 0.619241 0.863334 -0.740733
C118  C     C_3   0.525112 0.635394 0.133688 -0.733962
C119  C     C_3   0.409054 0.761828 0.955601 -0.739334
C120  C     C_3   0.588017 0.763307 0.036876 -0.740895
C121  C     C_3   0.909067 0.261837 0.955657 -0.739269
C122  C     C_3   0.087995 0.263310 0.036809 -0.740888
C123  C     C_3   0.482634 0.876069 0.082207 -0.324109
C124  C     C_1   0.374484 0.999444 0.374764 -0.176684
C125  C     C_3   0.516007 0.877773 0.914937 -0.321287
C126  C     C_3   0.982669 0.376070 0.082250 -0.324134
C127  C     C_3   0.015972 0.377773 0.914894 -0.321312
C128  C     C_3   0.181366 0.891900 0.195562 -0.234470
C129  C     C_3   0.818645 0.099788 0.862441 -0.247677
C130  C     C_3   0.681365 0.391901 0.195565 -0.234469
C131  C     C_3   0.318632 0.599990 0.861990 -0.247857
C132  C     C_1   0.625542 0.000569 0.625259 -0.173030
C133  C     C_1   0.874483 0.499444 0.374764 -0.176685
C134  C     C_1   0.125542 0.500569 0.625256 -0.173033
C135  C     C_R   0.519603 0.033973 0.722553 0.620378
C136  C     C_R   0.480967 0.033799 0.278068 0.619985
C137  C     C_R   0.019604 0.533972 0.722554 0.620390
C138  C     C_R   0.980967 0.533799 0.278068 0.619985
C139  C     C_R   0.519541 0.033335 0.676560 -0.353240
C140  C     C_R   0.999284 0.500035 0.585505 0.921675
C141  C     C_R   0.481057 0.033256 0.324087 -0.361652
C142  C     C_R   0.019542 0.533334 0.676561 -0.353204
C143  C     C_R   0.981058 0.533256 0.324087 -0.361649
C144  C     C_R   0.497533 0.000238 0.631631 -0.135968
C145  C     C_R   0.502316 0.999937 0.368173 -0.138483
C146  C     C_R   0.997533 0.500239 0.631631 -0.135977
C147  C     C_R   0.002317 0.499937 0.368173 -0.138483
C148  C     C_R   0.474555 0.967685 0.631753 0.225480
C149  C     C_R   0.524425 0.966985 0.367044 0.231917
C150  C     C_R   0.974554 0.467685 0.631752 0.225475
C151  C     C_R   0.000688 0.499944 0.414452 0.914431
C152  C     C_R   0.024425 0.466985 0.367044 0.231920
C153  C     C_R   0.475783 0.967684 0.678982 -0.351885
C154  C     C_R   0.523174 0.966934 0.319796 -0.357573
C155  C     C_R   0.975782 0.467685 0.678981 -0.351889
C156  C     C_R   0.023174 0.466934 0.319796 -0.357573
C157  C     C_R   0.418927 0.999860 0.418900 0.890921
C158  C     C_R   0.581081 0.000142 0.580986 0.895502
C159  C     C_R   0.918927 0.499860 0.418900 0.890922
C160  C     C_R   0.081081 0.500142 0.580985 0.895516
C161  C     C_R   0.498540 0.000244 0.724404 -0.007312
C162  C     C_3   0.225828 0.949384 0.211359 1.001998
C163  C     C_R   0.501232 0.999778 0.275316 -0.006349
C164  C     C_R   0.998539 0.500244 0.724404 -0.007315
C165  C     C_R   0.001232 0.499778 0.275317 -0.006348
C166  C     C_R   0.461783 0.004795 0.758547 -0.287334
C167  C     C_R   0.538160 0.004369 0.241460 -0.288313
C168  C     C_R   0.961784 0.504796 0.758547 -0.287333
C169  C     C_R   0.038160 0.504369 0.241460 -0.288311
C170  C     C_R   0.461951 0.004903 0.804475 -0.207413
C171  C     C_R   0.538050 0.004611 0.195590 -0.207463
C172  C     C_R   0.961951 0.504904 0.804475 -0.207425
C173  C     C_3   0.774202 0.052981 0.773700 1.008447
C174  C     C_R   0.038050 0.504611 0.195590 -0.207474
C175  C     C_R   0.499795 0.999653 0.865333 -0.118995
C176  C     C_R   0.500163 0.999456 0.134610 -0.118109
C177  C     C_R   0.999795 0.499653 0.865333 -0.118999
C178  C     C_R   0.000163 0.499456 0.134610 -0.118115
C179  C     C_R   0.537432 0.993776 0.879868 -0.318595
C180  C     C_R   0.462426 0.993518 0.119881 -0.317382
C181  C     C_R   0.037431 0.493775 0.879868 -0.318576
C182  C     C_R   0.962426 0.493519 0.119881 -0.317364
C183  C     C_R   0.537286 0.992650 0.833740 0.611167
C184  C     C_3   0.725828 0.449384 0.211360 1.001998
C185  C     C_R   0.462501 0.992292 0.165926 0.611913
C186  C     C_R   0.037286 0.492649 0.833740 0.611151
C187  C     C_R   0.962501 0.492292 0.165926 0.611907
C188  C     C_R   0.499351 0.999233 0.773113 0.043265
C189  C     C_R   0.500489 0.998790 0.226687 0.044866
C190  C     C_R   0.999351 0.499233 0.773113 0.043265
C191  C     C_R   0.000489 0.498790 0.226688 0.044865
C192  C     C_R   0.000087 0.913725 0.000043 0.965488
C193  C     C_R   0.500087 0.413725 0.000043 0.965490
C194  C     C_R   0.081068 0.000123 0.081152 0.906715
C195  C     C_3   0.274198 0.552984 0.773460 1.008478
C196  C     C_R   0.918943 0.000072 0.918884 0.899044
C197  C     C_R   0.581068 0.500123 0.081152 0.906703
C198  C     C_R   0.418943 0.500073 0.918884 0.899013
C199  C     C_R   0.999732 0.086458 0.999833 0.908923
C200  C     C_R   0.499732 0.586458 0.999833 0.908853
C201  C     C_3   0.274124 0.008317 0.322660 0.433379
C202  C     C_3   0.726093 0.978551 0.768841 0.427150
C203  C     C_3   0.774124 0.508318 0.322660 0.433382
C204  C     C_3   0.226092 0.478755 0.768947 0.427151
C205  C     C_R   0.500128 0.086219 0.000112 1.031661
C206  C     C_3   0.274811 0.952872 0.257570 -0.455669
C207  C     C_R   0.000128 0.586219 0.000112 1.031656
C208  C     C_R   0.499952 0.000034 0.913491 0.890371
C209  C     C_R   0.500045 0.999983 0.086501 0.891142
C210  C     C_R   0.999952 0.500035 0.913491 0.890384
C211  C     C_R   0.000045 0.499983 0.086501 0.891158
C212  C     C_R   0.499866 0.913753 0.999705 0.995218
C213  C     C_R   0.999866 0.413753 0.999705 0.995244
C214  C     C_R   0.019263 0.796397 0.983971 -0.232478
C215  C     C_R   0.982634 0.795932 0.017457 -0.233410
C216  C     C_R   0.519265 0.296397 0.983974 -0.232480
H1    H     H_    0.211724 0.035524 0.274518 0.156610
H2    H     H_    0.464061 0.058617 0.324849 0.183324
H3    H     H_    0.968573 0.629042 0.219765 0.201181
H4    H     H_    0.447246 0.905704 0.598306 0.216379
H5    H     H_    0.389451 0.959695 0.537712 0.229867
H6    H     H_    0.393612 0.925130 0.493300 0.234940
H7    H     H_    0.413382 0.980942 0.511680 0.238133
H8    H     H_    0.550104 0.904593 0.398609 0.218230
H9    H     H_    0.609262 0.957758 0.460570 0.224137
H10   H     H_    0.604387 0.923231 0.504104 0.236683
H11   H     H_    0.586027 0.979327 0.487501 0.231287
H12   H     H_    0.947244 0.405706 0.598304 0.216374
H13   H     H_    0.037153 0.558418 0.676479 0.183224
H14   H     H_    0.889450 0.459698 0.537710 0.229865
H15   H     H_    0.893610 0.425133 0.493298 0.234939
H16   H     H_    0.913382 0.480945 0.511679 0.238133
H17   H     H_    0.050103 0.404593 0.398609 0.218228
H18   H     H_    0.109262 0.457757 0.460570 0.224135
H19   H     H_    0.104386 0.423230 0.504103 0.236682
H20   H     H_    0.086027 0.479326 0.487501 0.231291
H21   H     H_    0.556689 0.923944 0.808889 0.156221
H22   H     H_    0.587164 0.926306 0.890602 0.156159
H23   H     H_    0.611684 0.936766 0.862854 0.210091
H24   H     H_    0.964061 0.558617 0.324849 0.183324
H25   H     H_    0.442055 0.923473 0.189122 0.156295
H26   H     H_    0.411660 0.926130 0.107482 0.158075
H27   H     H_    0.387248 0.936456 0.135406 0.206678
H28   H     H_    0.056685 0.423941 0.808884 0.156202
H29   H     H_    0.087160 0.426302 0.890597 0.156158
H30   H     H_    0.111681 0.436760 0.862852 0.210109
H31   H     H_    0.942056 0.423474 0.189124 0.156294
H32   H     H_    0.911661 0.426129 0.107485 0.158088
H33   H     H_    0.887248 0.436456 0.135406 0.206677
H34   H     H_    0.982247 0.866918 0.876444 0.156334
H35   H     H_    0.458819 0.942451 0.680210 0.159292
H36   H     H_    0.020011 0.824820 0.897593 0.153417
H37   H     H_    0.029224 0.881914 0.894529 0.179535
H38   H     H_    0.019046 0.867784 0.124389 0.155954
H39   H     H_    0.982152 0.824451 0.104174 0.153760
H40   H     H_    0.971987 0.881232 0.106592 0.180039
H41   H     H_    0.482250 0.366914 0.876445 0.156329
H42   H     H_    0.520019 0.324819 0.897600 0.153418
H43   H     H_    0.529227 0.381915 0.894533 0.179537
H44   H     H_    0.519043 0.367781 0.124387 0.155953
H45   H     H_    0.482146 0.324451 0.104168 0.153759
H46   H     H_    0.539515 0.941452 0.317845 0.159404
H47   H     H_    0.471983 0.381232 0.106588 0.180041
H48   H     H_    0.608462 0.250243 0.179066 0.176155
H49   H     H_    0.590264 0.250444 0.104768 0.144764
H50   H     H_    0.605463 0.198802 0.146601 0.187407
H51   H     H_    0.393968 0.249216 0.822122 0.177551
H52   H     H_    0.411783 0.249483 0.896178 0.145912
H53   H     H_    0.396507 0.197766 0.853838 0.187377
H54   H     H_    0.108464 0.750243 0.179064 0.176156
H55   H     H_    0.090265 0.750444 0.104764 0.144763
H56   H     H_    0.105464 0.698802 0.146598 0.187408
H57   H     H_    0.958817 0.442453 0.680208 0.159290
H58   H     H_    0.893965 0.749215 0.822124 0.177552
H59   H     H_    0.911782 0.749482 0.896181 0.145914
H60   H     H_    0.896505 0.697765 0.853841 0.187378
H61   H     H_    0.492953 0.107575 0.085838 0.133423
H62   H     H_    0.512034 0.159799 0.128118 0.175599
H63   H     H_    0.539551 0.109222 0.165643 0.182901
H64   H     H_    0.461317 0.108062 0.834869 0.183376
H65   H     H_    0.507892 0.106798 0.914678 0.133638
H66   H     H_    0.489349 0.158775 0.872706 0.175806
H67   H     H_    0.992957 0.607575 0.085842 0.133420
H68   H     H_    0.039515 0.441452 0.317845 0.159403
H69   H     H_    0.012039 0.659799 0.128122 0.175599
H70   H     H_    0.039556 0.609222 0.165646 0.182902
H71   H     H_    0.961313 0.608062 0.834866 0.183377
H72   H     H_    0.007888 0.606798 0.914674 0.133637
H73   H     H_    0.989344 0.658775 0.872702 0.175806
H74   H     H_    0.946229 0.149443 0.852793 0.219757
H75   H     H_    0.889769 0.148316 0.852335 0.228500
H76   H     H_    0.913789 0.098601 0.897745 0.222082
H77   H     H_    0.892558 0.099041 0.821384 0.244437
H78   H     H_    0.075479 0.148804 0.143196 0.213920
H79   H     H_    0.432491 0.009575 0.711685 0.165352
H80   H     H_    0.022537 0.169260 0.145126 0.218927
H81   H     H_    0.044367 0.115005 0.175698 0.227176
H82   H     H_    0.993427 0.120254 0.099415 0.255400
H83   H     H_    0.446317 0.649454 0.852824 0.219768
H84   H     H_    0.389808 0.648311 0.852266 0.228364
H85   H     H_    0.413813 0.598590 0.897667 0.222052
H86   H     H_    0.392628 0.599046 0.821333 0.244571
H87   H     H_    0.575421 0.648806 0.143213 0.213917
H88   H     H_    0.522430 0.669261 0.145039 0.218925
H89   H     H_    0.544252 0.615007 0.175628 0.227168
H90   H     H_    0.567487 0.009083 0.288438 0.163083
H91   H     H_    0.493336 0.620254 0.099316 0.255395
H92   H     H_    0.450790 0.786203 0.043914 0.247689
H93   H     H_    0.393043 0.741029 0.964694 0.225453
H94   H     H_    0.410244 0.742882 0.925351 0.238589
H95   H     H_    0.390558 0.792450 0.932055 0.252455
H96   H     H_    0.545833 0.787357 0.948830 0.247613
H97   H     H_    0.603822 0.742877 0.027207 0.228237
H98   H     H_    0.587133 0.744199 0.067267 0.235254
H99   H     H_    0.606521 0.794179 0.060528 0.253550
H100  H     H_    0.950830 0.286201 0.043976 0.247677
H101  H     H_    0.932491 0.509578 0.711686 0.165351
H102  H     H_    0.893066 0.241038 0.964767 0.225455
H103  H     H_    0.910237 0.242895 0.925385 0.238591
H104  H     H_    0.890572 0.292462 0.932128 0.252459
H105  H     H_    0.045786 0.287351 0.948761 0.247602
H106  H     H_    0.103788 0.242878 0.027123 0.228235
H107  H     H_    0.087128 0.244206 0.067222 0.235246
H108  H     H_    0.106499 0.294184 0.060448 0.253560
H109  H     H_    0.464419 0.892534 0.090477 0.189264
H110  H     H_    0.507713 0.899465 0.096776 0.155713
H111  H     H_    0.496944 0.845876 0.110958 0.140244
H112  H     H_    0.788489 0.948451 0.837088 0.162801
H113  H     H_    0.067487 0.509082 0.288438 0.163084
H114  H     H_    0.534388 0.894819 0.907259 0.189030
H115  H     H_    0.491167 0.900880 0.901237 0.155494
H116  H     H_    0.501370 0.847881 0.885081 0.140561
H117  H     H_    0.964464 0.392534 0.090536 0.189269
H118  H     H_    0.007744 0.399467 0.096804 0.155729
H119  H     H_    0.996986 0.345877 0.111000 0.140251
H120  H     H_    0.034344 0.394817 0.907201 0.189034
H121  H     H_    0.991137 0.400883 0.901211 0.155509
H122  H     H_    0.001325 0.347883 0.885036 0.140564
H123  H     H_    0.187667 0.864834 0.177936 0.205273
H124  H     H_    0.432587 0.009565 0.792412 0.178201
H125  H     H_    0.153829 0.911276 0.157096 0.181138
H126  H     H_    0.173223 0.876437 0.219507 0.154271
H127  H     H_    0.812622 0.132398 0.840883 0.202688
H128  H     H_    0.846243 0.084023 0.874531 0.171360
H129  H     H_    0.826492 0.105814 0.905535 0.162518
H130  H     H_    0.687667 0.364833 0.177939 0.205272
H131  H     H_    0.653828 0.411276 0.157098 0.181139
H132  H     H_    0.673222 0.376439 0.219509 0.154270
H133  H     H_    0.312624 0.632521 0.840278 0.202732
H134  H     H_    0.346235 0.584138 0.874189 0.171346
H135  H     H_    0.567490 0.009301 0.207798 0.177285
H136  H     H_    0.326458 0.606194 0.905038 0.162535
H137  H     H_    0.932588 0.509567 0.792412 0.178201
H138  H     H_    0.067490 0.509301 0.207798 0.177286
H139  H     H_    0.566874 0.989559 0.926728 0.185655
H140  H     H_    0.432948 0.989371 0.072922 0.185367
H141  H     H_    0.066874 0.489556 0.926727 0.185661
H142  H     H_    0.932948 0.489372 0.072922 0.185371
H143  H     H_    0.280172 0.044331 0.333636 0.112379
H144  H     H_    0.711724 0.535526 0.274517 0.156610
H145  H     H_    0.720075 0.942645 0.757100 0.116580
H146  H     H_    0.780172 0.544333 0.333635 0.112379
H147  H     H_    0.220077 0.442824 0.757375 0.116594
H148  H     H_    0.034493 0.778353 0.972805 0.160335
H149  H     H_    0.967620 0.777511 0.028773 0.160115
H150  H     H_    0.534495 0.278353 0.972808 0.160336
H151  H     H_    0.467618 0.277511 0.028770 0.160113
H152  H     H_    0.958589 0.220656 0.899947 0.134206
H153  H     H_    0.038534 0.223391 0.094303 0.137328
H154  H     H_    0.458645 0.720660 0.899963 0.134223
H155  H     H_    0.288489 0.448686 0.837341 0.162814
H156  H     H_    0.538490 0.723391 0.094296 0.137338
H157  H     H_    0.283920 0.027749 0.219146 0.202403
H158  H     H_    0.715989 0.992217 0.644564 0.198072
H159  H     H_    0.783920 0.527747 0.219145 0.202403
H160  H     H_    0.215993 0.491884 0.644609 0.198075
H161  H     H_    0.287907 0.067114 0.266848 0.191772
H162  H     H_    0.712072 0.942039 0.671123 0.190108
H163  H     H_    0.787907 0.567113 0.266846 0.191773
H164  H     H_    0.212077 0.441850 0.671406 0.190123
H165  H     H_    0.217459 0.067592 0.207704 0.197573
H166  H     H_    0.213011 0.978237 0.284776 0.216260
H167  H     H_    0.782576 0.938389 0.752391 0.198533
H168  H     H_    0.717459 0.567592 0.207702 0.197574
H169  H     H_    0.282581 0.438256 0.752694 0.198553
H170  H     H_    0.211739 0.039175 0.152039 0.189347
H171  H     H_    0.788192 0.979839 0.718391 0.187985
H172  H     H_    0.711739 0.539173 0.152037 0.189348
H173  H     H_    0.288196 0.479521 0.718500 0.187978
H174  H     H_    0.289941 0.925118 0.290529 0.177677
H175  H     H_    0.710040 0.072026 0.730606 0.178268
H176  H     H_    0.789941 0.425118 0.290532 0.177676
H177  H     H_    0.787193 0.000771 0.860955 0.217384
H178  H     H_    0.210031 0.572128 0.730250 0.178245
H179  H     H_    0.285620 0.948617 0.233740 0.162943
H180  H     H_    0.714453 0.064180 0.678028 0.161744
H181  H     H_    0.785620 0.448615 0.233741 0.162944
H182  H     H_    0.214456 0.564005 0.677725 0.161725
H183  H     H_    0.275100 0.924630 0.346941 0.207222
H184  H     H_    0.256472 0.952241 0.378389 0.166888
H185  H     H_    0.308583 0.932041 0.426583 0.173272
H186  H     H_    0.724709 0.052246 0.813647 0.200576
H187  H     H_    0.743864 0.011955 0.872991 0.164535
H188  H     H_    0.713011 0.478239 0.284776 0.216261
H189  H     H_    0.691567 0.031918 0.822711 0.188587
H190  H     H_    0.775099 0.424633 0.346942 0.207223
H191  H     H_    0.756472 0.452246 0.378391 0.166889
H192  H     H_    0.808582 0.432044 0.426584 0.173271
H193  H     H_    0.224675 0.552674 0.813358 0.200534
H194  H     H_    0.243855 0.512592 0.872923 0.164537
H195  H     H_    0.191548 0.532535 0.822540 0.188553
H196  H     H_    0.237457 0.978561 0.140847 0.159566
H197  H     H_    0.179993 0.981757 0.089994 0.185550
H198  H     H_    0.203559 0.939387 0.081819 0.208473
H199  H     H_    0.287189 0.501122 0.860959 0.217376
H200  H     H_    0.762928 0.048444 0.675163 0.166918
H201  H     H_    0.820367 0.043373 0.738680 0.183004
H202  H     H_    0.797057 0.093014 0.696838 0.205723
H203  H     H_    0.737457 0.478558 0.140847 0.159565
H204  H     H_    0.679993 0.481754 0.089994 0.185550
H205  H     H_    0.703559 0.439383 0.081821 0.208472
H206  H     H_    0.262942 0.548039 0.674961 0.166881
H207  H     H_    0.320380 0.543001 0.738513 0.183060
H208  H     H_    0.297069 0.592553 0.696434 0.205717
H209  H     H_    0.487677 0.095291 0.737702 0.158047
H210  H     H_    0.537152 0.058420 0.676478 0.183221
H211  H     H_    0.507576 0.117863 0.705649 0.160901
H212  H     H_    0.534087 0.129075 0.783374 0.201154
H213  H     H_    0.514321 0.094867 0.264890 0.157487
H214  H     H_    0.494588 0.117616 0.297096 0.160473
H215  H     H_    0.468572 0.129041 0.219764 0.201181
H216  H     H_    0.987679 0.595292 0.737703 0.158049
H217  H     H_    0.007581 0.617863 0.705653 0.160898
H218  H     H_    0.034091 0.629073 0.783377 0.201155
H219  H     H_    0.014322 0.594867 0.264891 0.157489
H220  H     H_    0.994589 0.617616 0.297097 0.160475
N1    N     N_2   0.449865 0.935383 0.584373 -0.293658
N2    N     N_2   0.546012 0.773738 0.980202 -0.286784
N3    N     N_2   0.950922 0.272826 0.012706 -0.285460
N4    N     N_2   0.045981 0.273735 0.980150 -0.286777
N5    N     N_2   0.548301 0.934336 0.413455 -0.280852
N6    N     N_2   0.949864 0.435385 0.584371 -0.293661
N7    N     N_2   0.048301 0.434336 0.413455 -0.280853
N8    N     N_2   0.949408 0.133638 0.885974 -0.288334
N9    N     N_2   0.045117 0.136921 0.110758 -0.291747
N10   N     N_2   0.449470 0.633644 0.885981 -0.288264
N11   N     N_2   0.545061 0.636923 0.110747 -0.291713
N12   N     N_2   0.450901 0.772825 0.012663 -0.285457
O1    O     O_R   0.500000 0.963030 0.565470 -0.592403
O2    O     O_R   0.465320 0.999980 0.030770 -0.623397
O3    O     O_R   0.034680 0.499980 0.969230 -0.622979
O4    O     O_R   0.965320 0.499980 0.030770 -0.623391
O5    O     O_R   0.465320 0.934500 0.965310 -0.601264
O6    O     O_R   0.534680 0.934500 0.034690 -0.601805
O7    O     O_R   0.965320 0.434500 0.965310 -0.601285
O8    O     O_R   0.034680 0.434500 0.034690 -0.601827
O9    O     O_R   0.499990 0.036970 0.565490 -0.632044
O10   O     O_R   0.500010 0.036970 0.434510 -0.633841
O11   O     O_R   0.999990 0.536970 0.565490 -0.632042
O12   O     O_R   0.500000 0.963030 0.434530 -0.593893
O13   O     O_R   0.000010 0.536970 0.434510 -0.633840
O14   O     O_R   0.438570 0.963030 0.438570 -0.613977
O15   O     O_R   0.561430 0.963030 0.561430 -0.611450
O16   O     O_R   0.938570 0.463030 0.438570 -0.613976
O17   O     O_R   0.061430 0.463030 0.561430 -0.611494
O18   O     O_R   0.438570 0.036970 0.438590 -0.618679
O19   O     O_R   0.561430 0.036970 0.561410 -0.619102
O20   O     O_R   0.938570 0.536970 0.438590 -0.618680
O21   O     O_R   0.061430 0.536970 0.561410 -0.619075
O22   O     O_R   1.000000 0.934650 0.036980 -0.591579
O23   O     O_R   0.000000 0.463030 0.565470 -0.592413
O24   O     O_R   0.000000 0.934650 0.963020 -0.591372
O25   O     O_R   0.500000 0.434650 0.036980 -0.591580
O26   O     O_R   0.500000 0.434650 0.963020 -0.591371
O27   O     O_R   0.061420 0.000140 0.098400 -0.622834
O28   O     O_R   0.938580 0.000140 0.901600 -0.621613
O29   O     O_R   0.561420 0.500140 0.098400 -0.622840
O30   O     O_R   0.438580 0.500140 0.901600 -0.621630
O31   O     O_R   0.061430 0.000120 0.024480 -0.610996
O32   O     O_R   0.938570 0.000120 0.975520 -0.613148
O33   O     O_R   0.561430 0.500120 0.024480 -0.610992
O34   O     O_R   0.000000 0.463030 0.434530 -0.593893
O35   O     O_R   0.438570 0.500120 0.975520 -0.613120
O36   O     O_R   0.999990 0.065630 0.036960 -0.609389
O37   O     O_R   0.000010 0.065630 0.963040 -0.601899
O38   O     O_R   0.499990 0.565630 0.036960 -0.609351
O39   O     O_R   0.500010 0.565630 0.963040 -0.601868
O40   O     O_R   0.465320 0.065470 0.965350 -0.601160
O41   O     O_R   0.534680 0.065470 0.034650 -0.601311
O42   O     O_R   0.965320 0.565470 0.965350 -0.601157
O43   O     O_R   0.034680 0.565470 0.034650 -0.601308
O44   O     O_3   0.297888 0.988913 0.381386 -0.611006
O45   O     O_R   0.465320 0.999980 0.899860 -0.630258
O46   O     O_3   0.702484 0.987084 0.784385 -0.607155
O47   O     O_3   0.797888 0.488915 0.381385 -0.611005
O48   O     O_3   0.202483 0.487467 0.784449 -0.607148
O49   O     O_3   0.208856 0.931610 0.153878 -0.627315
O50   O     O_3   0.791157 0.081597 0.757080 -0.629638
O51   O     O_3   0.708856 0.431608 0.153879 -0.627316
O52   O     O_3   0.291158 0.581444 0.756717 -0.629640
O53   O     O_3   0.542172 0.066158 0.767532 -0.574331
O54   O     O_3   0.459129 0.066203 0.233906 -0.574837
O55   O     O_3   0.042174 0.566157 0.767534 -0.574321
O56   O     O_R   0.534680 0.999980 0.100140 -0.630461
O57   O     O_3   0.959129 0.566203 0.233907 -0.574838
O58   O     O_3   0.574453 0.987095 0.848176 -0.576079
O59   O     O_3   0.425239 0.986762 0.151322 -0.576741
O60   O     O_3   0.074452 0.487092 0.848175 -0.576059
O61   O     O_3   0.925239 0.486762 0.151322 -0.576743
O62   O     O_3   0.038470 0.865251 0.968794 -0.589101
O63   O     O_3   0.962661 0.864233 0.032232 -0.588694
O64   O     O_3   0.538472 0.365252 0.968797 -0.589100
O65   O     O_3   0.462659 0.364233 0.032229 -0.588697
O66   O     O_3   0.548705 0.225964 0.110769 -0.584854
O67   O     O_R   0.965320 0.499980 0.899860 -0.630263
O68   O     O_3   0.453548 0.225397 0.890549 -0.585533
O69   O     O_3   0.048708 0.725964 0.110769 -0.584854
O70   O     O_3   0.953545 0.725397 0.890548 -0.585534
O71   O     O_3   0.546813 0.134240 0.110330 -0.571339
O72   O     O_3   0.454296 0.133615 0.890318 -0.571972
O73   O     O_3   0.046816 0.634240 0.110330 -0.571338
O74   O     O_3   0.954294 0.633615 0.890318 -0.571970
O75   O     O_3   0.455132 0.865629 0.019492 -0.582760
O76   O     O_3   0.543409 0.866627 0.977254 -0.583349
O77   O     O_3   0.955155 0.365630 0.019533 -0.582771
O78   O     O_R   0.034680 0.499980 0.100140 -0.630466
O79   O     O_3   0.043384 0.366625 0.977212 -0.583361
O80   O     O_3   0.217809 0.918240 0.237976 -0.685393
O81   O     O_3   0.782156 0.072949 0.823876 -0.681436
O82   O     O_3   0.717808 0.418240 0.237978 -0.685394
O83   O     O_3   0.282141 0.573148 0.823534 -0.681420
O84   O     O_R   0.534680 0.999980 0.969230 -0.622984
Zn1   Zn    Zn3+2 0.500000 0.950630 0.500000 0.981968
Zn2   Zn    Zn3+2 0.546310 0.999980 0.046300 0.987286
Zn3   Zn    Zn3+2 0.953690 0.499980 0.953700 0.987725
Zn4   Zn    Zn3+2 0.046310 0.499980 0.046300 0.987280
Zn5   Zn    Zn3+2 0.000000 0.450630 0.500000 0.981933
Zn6   Zn    Zn3+2 0.500000 0.049370 0.500000 0.952549
Zn7   Zn    Zn3+2 0.000000 0.549370 0.500000 0.952561
Zn8   Zn    Zn3+2 0.000000 0.000140 0.049370 0.967067
Zn9   Zn    Zn3+2 1.000000 0.000140 0.950630 0.975426
Zn10  Zn    Zn3+2 0.500000 0.500140 0.049370 0.967094
Zn11  Zn    Zn3+2 0.500000 0.500140 0.950630 0.975428
Zn12  Zn    Zn3+2 0.453690 0.999980 0.953700 0.987731

loop_
_geom_bond_atom_site_label_1
_geom_bond_atom_site_label_2
_ccdc_geom_bond_type
C172  C177  A    
C15   O69   S    
C64   C198  S    
C185  O59   S    
C18   C21   A    
C96   H21   S    
C142  C146  A    
C50   O77   S    
C62   C196  S    
C128  H125  S    
C91   H220  S    
C109  H62   S    
C136  O54   S    
O25   Zn10  S    
C110  H65   S    
C89   H218  S    
C151  O13   A    
C135  C139  A    
C153  H35   S    
C106  H51   S    
C46   C62   T    
C138  C165  A    
C166  C188  A    
C82   H195  S    
C57   C76   S    
C24   C69   S    
C138  C143  A    
C85   H203  S    
O20   Zn7   S    
C9    C193  S    
C10   C215  A    
C44   N2    S    
O26   Zn11  S    
C167  H90   S    
O17   Zn5   S    
C198  O35   A    
C45   N3    S    
C102  H39   S    
C49   O76   S    
C212  O6    A    
C146  C150  A    
C157  O14   A    
C152  C156  A    
H83   N10   S    
C129  H127  S    
C169  C174  A    
C26   C59   S    
C73   H199  S    
C98   H28   S    
C141  C145  A    
C11   C216  A    
C5    O63   S    
H100  N3    S    
O3    Zn4   S    
C71   H112  S    
C98   O60   S    
C166  H79   S    
C50   C53   A    
C4    C214  A    
C98   H29   S    
C38   N11   S    
O21   Zn7   S    
C150  N6    S    
C167  C171  A    
C24   C195  S    
C60   H173  S    
C31   H153  S    
C17   C21   A    
C63   C197  S    
C153  C161  A    
C194  O31   A    
C120  H98   S    
C186  C190  A    
C116  N9    S    
C136  C141  A    
C141  H2    S    
C135  O53   S    
C43   C54   A    
C96   O58   S    
C16   C20   A    
C13   C184  S    
H17   N7    S    
C23   H161  S    
C178  C182  A    
C72   C203  S    
C198  O30   A    
C101  C133  T    
C92   N1    S    
C137  O55   S    
C96   H23   S    
C148  C153  A    
C85   O51   S    
C139  H210  S    
C172  H137  S    
C68   C77   S    
C78   H185  S    
C107  H56   S    
C82   H193  S    
C186  O60   S    
C180  H140  S    
C5    C8    A    
C200  O39   A    
C13   H181  S    
C109  O71   S    
C25   H162  S    
C3    C7    A    
C33   C38   A    
C16   O70   S    
C77   C195  S    
C58   H167  S    
C131  H133  S    
C183  C188  A    
C206  H179  S    
C128  O80   S    
C114  H72   S    
C84   H202  S    
H96   N2    S    
C45   C50   A    
C8    C192  S    
C204  H147  S    
H4    N1    S    
O84   Zn2   S    
C67   C203  S    
C36   N9    S    
C93   H9    S    
C157  O18   A    
C26   H159  S    
O14   Zn1   S    
C140  O11   A    
C115  H76   S    
C52   C212  S    
C73   C77   S    
C31   C36   A    
C125  H115  S    
C72   H144  S    
C24   H178  S    
C59   H168  S    
O45   Zn12  S    
C213  O7    A    
C159  O20   A    
C81   O47   S    
C121  H103  S    
C134  C160  S    
C137  C142  A    
C18   O72   S    
C65   C79   S    
C99   H33   S    
C108  H59   S    
C6    C9    A    
C168  C190  A    
C107  O69   S    
C56   H165  S    
C34   N8    S    
C69   C113  S    
C126  H118  S    
C33   C42   A    
C156  C165  A    
C37   C40   A    
C152  N7    S    
C125  O76   S    
C130  H131  S    
C7    O65   S    
C105  H49   S    
C5    C215  A    
C201  H143  S    
C112  C145  S    
H92   N12   S    
C4    C8    A    
C69   C204  S    
C97   H26   S    
C86   H207  S    
C47   N4    S    
O8    Zn4   S    
C119  H94   S    
C117  H86   S    
C178  C211  S    
H12   N6    S    
O23   Zn5   S    
C30   C41   A    
C83   O49   S    
C73   H155  S    
C122  H107  S    
C2    H180  S    
C205  O41   A    
O37   Zn9   S    
O27   Zn8   S    
C78   H183  S    
C107  H54   S    
C135  C161  A    
C83   H198  S    
O40   Zn12  S    
C164  C190  S    
C87   H212  S    
C46   C75   S    
C57   C63   T    
C111  H69   S    
C167  C189  A    
C117  N10   S    
C30   C34   A    
C95   N7    S    
C34   C39   A    
C151  O34   A    
C3    C11   A    
C86   O52   S    
O35   Zn10  S    
C74   C162  S    
C205  O40   A    
C84   O50   S    
O24   Zn9   S    
H8    N5    S    
C207  O42   A    
C181  H141  S    
O28   Zn9   S    
C51   C53   A    
C177  C210  S    
C12   C17   A    
C147  C151  S    
C202  O46   S    
C105  O66   S    
C93   H11   S    
C161  C188  S    
O6    Zn2   S    
C48   C52   A    
C138  O57   S    
C216  H150  S    
C118  H91   S    
C159  O16   A    
C35   C61   T    
O19   Zn6   S    
C32   C37   A    
H74   N8    S    
C162  O80   S    
C158  O15   A    
C116  H81   S    
C166  C170  A    
C150  C155  A    
C114  O74   S    
C103  H42   S    
C95   H20   S    
C169  C191  A    
C99   H31   S    
C81   H190  S    
C67   C101  S    
C102  O63   S    
C80   O46   S    
O22   Zn8   S    
C53   C213  S    
O42   Zn3   S    
C31   C41   A    
C111  H67   S    
C80   H187  S    
C25   C66   S    
C128  H126  S    
C2    C66   S    
C91   H219  S    
O9    Zn6   S    
C109  H61   S    
C181  C186  A    
C185  C189  A    
C110  H66   S    
C89   H217  S    
C130  O82   S    
C79   C124  T    
C123  H110  S    
C106  H52   S    
C121  N3    S    
C70   H166  S    
C122  N4    S    
C90   C132  T    
O4    Zn3   S    
C106  O68   S    
C103  O64   S    
O32   Zn8   S    
C200  O38   A    
C100  O62   S    
C192  O22   A    
C196  O28   A    
C111  H70   S    
C127  H121  S    
C102  H40   S    
C128  H123  S    
C193  O26   A    
C66   C202  S    
C44   C54   A    
C176  C180  A    
C6    C216  A    
C45   C55   A    
C106  H53   S    
C122  H108  S    
C211  O4    A    
C14   O68   S    
C83   H196  S    
C48   O75   S    
C72   H188  S    
C59   C76   S    
C182  H142  S    
C88   H213  S    
H105  N4    S    
C71   C202  S    
C1    O1    A    
C35   C74   S    
C215  H149  S    
C115  H77   S    
C118  N11   S    
C58   H171  S    
O16   Zn5   S    
C66   C90   S    
C202  H145  S    
C15   C19   A    
C94   H14   S    
C12   C28   A    
C92   H5    S    
C38   C40   A    
C98   H30   S    
C108  H58   S    
C27   C60   S    
C2    C173  S    
C195  O83   S    
C13   H176  S    
C26   H163  S    
C169  H113  S    
C118  H89   S    
C176  C209  S    
C104  H44   S    
C158  O19   A    
C41   C55   S    
C33   H156  S    
C39   C199  S    
C208  O45   A    
C95   H18   S    
C81   H192  S    
C174  C178  A    
C144  C148  A    
C170  C175  A    
C85   H205  S    
C174  H138  S    
C199  O37   A    
C99   O61   S    
C119  H95   S    
C162  C206  S    
C115  N8    S    
C206  H174  S    
C96   H22   S    
C175  C208  S    
C160  O21   A    
C109  H63   S    
C184  O51   S    
C15   C29   A    
C110  H64   S    
C104  O65   S    
C36   C39   A    
O1    Zn1   S    
C70   H1    S    
C56   C74   S    
C168  H101  S    
C6    O64   S    
C82   H194  S    
C208  O84   A    
C78   O44   S    
C140  C146  S    
C156  H68   S    
C85   H204  S    
C10   C214  A    
C47   C51   A    
C40   C200  S    
C32   H154  S    
C107  H55   S    
C192  O24   A    
C132  C158  S    
C84   H201  S    
C82   O48   S    
C102  H38   S    
C171  H135  S    
C149  C154  A    
C131  H136  S    
C154  H46   S    
C51   O79   S    
C212  O5    A    
C137  C164  A    
C126  O77   S    
C129  O81   S    
C209  O56   A    
C112  O10   A    
C49   C52   A    
C124  C157  S    
O38   Zn10  S    
C129  H128  S    
O2    Zn12  S    
C207  O43   A    
C163  C189  S    
C24   H182  S    
C88   H215  S    
C20   C22   A    
C197  O29   A    
C113  C134  T    
C115  H75   S    
C125  H114  S    
C104  H45   S    
O43   Zn4   S    
C100  H37   S    
C64   C68   T    
C170  H124  S    
O10   Zn6   S    
C171  C176  A    
C121  H102  S    
C116  H80   S    
C94   H16   S    
C103  H43   S    
C143  H24   S    
C92   H7    S    
C148  N1    S    
C108  H60   S    
O56   Zn2   S    
C108  O70   S    
C187  O61   S    
C199  O36   A    
C110  O72   S    
C19   O73   S    
C126  H119  S    
C120  H97   S    
C80   H186  S    
O34   Zn5   S    
C127  O79   S    
C42   C54   S    
C130  H132  S    
C10   C29   S    
C23   C65   S    
C120  N2    S    
O12   Zn1   S    
C105  H48   S    
C123  H111  S    
C165  C191  S    
C22   C207  S    
C147  C152  A    
C184  O82   S    
O29   Zn10  S    
C56   H170  S    
C97   H25   S    
C168  C172  A    
C86   H208  S    
C119  N12   S    
C111  O73   S    
C119  H93   S    
C117  H85   S    
C1    C144  S    
C32   C42   A    
C23   H157  S    
C133  C159  S    
C210  O67   A    
C145  C149  A    
C93   N5    S    
C58   C75   S    
C136  C163  A    
C44   C49   A    
C17   O71   S    
C78   H184  S    
C75   C173  S    
C14   C18   A    
O67   Zn3   S    
C83   H197  S    
C155  H57   S    
C87   H211  S    
C23   C56   S    
C162  O49   S    
C143  C147  A    
O41   Zn2   S    
C117  H84   S    
C196  O32   A    
C173  O81   S    
C26   C67   S    
O33   Zn11  S    
C43   N12   S    
C131  H134  S    
C100  H34   S    
C91   O57   S    
C177  C181  A    
C114  H71   S    
C112  O12   A    
C21   C205  S    
C203  H146  S    
O78   Zn4   S    
C70   C74   S    
C197  O33   A    
O31   Zn9   S    
C93   H10   S    
O7    Zn3   S    
C94   N6    S    
C60   H169  S    
C127  H120  S    
C125  H116  S    
C194  O27   A    
C104  H47   S    
C43   C48   A    
C127  H122  S    
C187  C191  A    
C2    H175  S    
C204  O48   S    
O15   Zn1   S    
O36   Zn8   S    
C70   C201  S    
C183  O58   S    
C116  H82   S    
C131  O83   S    
O13   Zn7   S    
H87   N11   S    
C103  H41   S    
O39   Zn11  S    
C210  O3    A    
C95   H19   S    
C94   H15   S    
C179  C183  A    
C73   C204  S    
C60   C77   S    
C126  H117  S    
C88   O54   S    
O18   Zn6   S    
C120  H99   S    
C123  O75   S    
C154  C163  A    
C19   C22   A    
C71   H177  S    
C130  H130  S    
C142  H13   S    
C175  C179  A    
C65   C206  S    
C89   H216  S    
C105  H50   S    
C123  H109  S    
C149  N5    S    
O30   Zn11  S    
O11   Zn7   S    
C97   H27   S    
C139  C144  A    
C86   H206  S    
C4    O62   S    
C27   H164  S    
H78   N9    S    
C1    O9    A    
C25   H158  S    
C84   H200  S    
C118  H88   S    
C72   C76   S    
C97   O59   S    
C195  O52   S    
C27   H160  S    
C193  O25   A    
C160  O17   A    
C122  H106  S    
C179  H139  S    
C11   C28   S    
C25   C58   S    
C87   H209  S    
O5    Zn12  S    
C88   H214  S    
C16   C29   A    
C47   C55   A    
C13   C67   S    
C7    C9    A    
C114  H73   S    
C213  O8    A    
C140  O23   A    
C173  O50   S    
C3    H151  S    
C100  H36   S    
C27   C69   S    
C211  O78   A    
C155  C164  A    
C203  O47   S    
C92   H6    S    
C37   N10   S    
C99   H32   S    
C81   H191  S    
C71   C75   S    
C12   O66   S    
C121  H104  S    
C87   O53   S    
C182  C187  A    
C91   H3    S    
C80   H189  S    
C59   H172  S    
C180  C185  A    
C65   C201  S    
C20   O74   S    
C201  O44   S    
C129  H129  S    
C14   C28   A    
C209  O2    A    
C76   C184  S    
C61   C194  S    
C214  H148  S    
C89   O55   S    
C30   H152  S    
