data_mof_unit_25462.cif
_audit_creation_date              2013-03-05T15:42:25-0500
_audit_creation_method            fapswitch 2.2
_symmetry_space_group_name_H-M    P1
_symmetry_Int_Tables_number       1
_space_group_crystal_system       triclinic
_cell_length_a                    10.949944
_cell_length_b                    11.091064
_cell_length_c                    18.779737
_cell_angle_alpha                 90.013201
_cell_angle_beta                  89.923414
_cell_angle_gamma                 59.651863
_cell_volume                      1968.20519922

loop_
_atom_site_label
_atom_site_type_symbol
_atom_site_description
_atom_site_fract_x
_atom_site_fract_y
_atom_site_fract_z
_atom_type_partial_charge
O1    O     O_R   0.507340 0.255690 0.581430 -0.506528
O2    O     O_R   0.280360 0.527380 0.578910 -0.512986
C1    C     C_R   0.236798 0.645163 0.609839 0.525836
O3    O     O_R   0.260600 0.739610 0.584580 -0.530169
O4    O     O_R   0.532370 0.695050 0.573830 -0.480028
C2    C     C_R   0.650209 0.616147 0.603515 0.616406
O5    O     O_R   0.744850 0.503430 0.576380 -0.528858
O6    O     O_R   0.699080 0.276500 0.571950 -0.527113
C3    C     C_R   0.633163 0.221637 0.600272 0.553655
O7    O     O_R   0.498860 0.256520 0.419860 -0.508444
O8    O     O_R   0.272490 0.528150 0.429140 -0.497812
C4    C     C_R   0.219097 0.653036 0.401913 0.510788
O9    O     O_R   0.252110 0.740440 0.423010 -0.526609
O10   O     O_R   0.524510 0.695820 0.424050 -0.485350
C5    C     C_R   0.617230 0.589290 0.385517 0.553607
O11   O     O_R   0.736370 0.504260 0.414810 -0.491052
O12   O     O_R   0.691220 0.277270 0.422180 -0.536345
C6    C     C_R   0.618199 0.222423 0.397010 0.531029
Cr1   Cr    Cr6+3 0.392940 0.397950 0.502230 1.043169
Cr2   Cr    Cr6+3 0.398400 0.708500 0.501260 1.048548
Cr3   Cr    Cr6+3 0.708640 0.393530 0.496460 1.016385
O13   O     O_3   0.499990 0.499990 0.499980 -0.280288
C7    C     C_3   0.541041 0.773007 0.791498 -0.253294
H1    H     H_    0.506859 0.880888 0.807961 0.127622
H2    H     H_    0.466563 0.745890 0.817442 0.128661
C8    C     C_3   0.529520 0.767616 0.710269 -0.233996
H3    H     H_    0.435782 0.757924 0.697697 0.135820
H4    H     H_    0.511072 0.867220 0.686537 0.157554
H5    H     H_    0.779441 0.799571 0.779379 0.115868
C9    C     C_3   0.801868 0.691281 0.770727 -0.229928
C10   C     C_3   0.722167 0.519410 0.800271 -0.251225
C11   C     C_3   0.694719 0.667873 0.815098 0.048452
C12   C     C_3   0.666761 0.641035 0.679096 0.071664
C13   C     C_3   0.795581 0.661747 0.690952 -0.092400
C14   C     C_3   0.693743 0.507880 0.721218 -0.256166
H6    H     H_    0.911987 0.621102 0.789713 0.139526
H7    H     H_    0.893422 0.561736 0.677434 0.103750
H8    H     H_    0.520829 0.096270 0.673587 0.158352
C15   C     C_R   0.718081 0.091826 0.812987 -0.005879
C16   C     C_R   0.814361 0.122060 0.777375 -0.013121
C17   C     C_R   0.808361 0.133038 0.701956 0.006147
C18   C     C_R   0.604865 0.101575 0.701022 -0.118804
C19   C     C_R   0.619352 0.076684 0.772683 -0.167248
C20   C     C_R   0.917753 0.139026 0.813161 -0.091636
C21   C     C_R   0.030412 0.134715 0.776289 0.002730
C22   C     C_R   0.031397 0.132389 0.702094 -0.179134
C23   C     C_R   0.920834 0.133320 0.665142 -0.115449
C24   C     C_R   0.690433 0.141402 0.665965 0.020407
H9    H     H_    0.917499 0.151619 0.869691 0.196379
H10   H     H_    0.549626 0.047214 0.797035 0.122973
H11   H     H_    0.120229 0.124387 0.672624 0.102311
H12   H     H_    0.930045 0.124385 0.607853 0.151051
H13   H     H_    0.170449 0.861911 0.692908 0.152324
C25   C     C_R   0.183183 0.670977 0.834921 -0.011003
C26   C     C_R   0.216030 0.545660 0.800998 0.014380
C27   C     C_R   0.206447 0.542281 0.725666 0.010790
C28   C     C_R   0.175353 0.775142 0.721247 -0.174741
C29   C     C_R   0.172599 0.780781 0.794354 -0.164795
C30   C     C_R   0.262153 0.422918 0.840615 -0.073793
C31   C     C_R   0.288401 0.301095 0.807169 -0.094276
C32   C     C_R   0.259182 0.301918 0.734961 -0.130682
C33   C     C_R   0.214972 0.422156 0.694774 -0.091327
C34   C     C_R   0.192179 0.657638 0.685076 -0.019206
H14   H     H_    0.283862 0.419115 0.897066 0.131109
H15   H     H_    0.157308 0.874122 0.819637 0.169974
H16   H     H_    0.330117 0.206894 0.838305 0.156686
H17   H     H_    0.274037 0.208504 0.709118 0.085755
H18   H     H_    0.186323 0.418712 0.640230 0.146289
H19   H     H_    0.519750 0.836309 0.319827 0.137005
C35   C     C_R   0.643580 0.664264 0.163622 -0.004808
C36   C     C_R   0.696870 0.525924 0.186895 0.023758
C37   C     C_R   0.707453 0.498214 0.260803 0.050105
C38   C     C_R   0.570598 0.748396 0.283884 -0.120982
C39   C     C_R   0.585587 0.773624 0.213030 -0.148205
C40   C     C_R   0.759299 0.413168 0.138254 -0.092980
C41   C     C_R   0.864458 0.283053 0.161077 -0.111105
C42   C     C_R   0.892742 0.260036 0.233143 -0.127937
C43   C     C_R   0.806355 0.360522 0.282623 -0.047209
C44   C     C_R   0.630506 0.611553 0.309166 0.032496
H20   H     H_    0.553925 0.879404 0.197152 0.138056
H21   H     H_    0.924369 0.200386 0.123077 0.140851
H22   H     H_    0.974364 0.159618 0.251275 0.112498
H23   H     H_    0.829252 0.328197 0.336987 0.181974
H24   H     H_    0.869051 0.052500 0.328970 0.113406
C45   C     C_R   0.662335 0.134235 0.181224 0.009889
C46   C     C_R   0.528454 0.196465 0.213218 0.006661
C47   C     C_R   0.522219 0.174452 0.286219 0.001985
C48   C     C_R   0.774985 0.084509 0.297346 -0.172423
C49   C     C_R   0.784913 0.066127 0.224099 -0.141839
C50   C     C_R   0.402047 0.268750 0.173729 -0.101754
C51   C     C_R   0.274516 0.296640 0.203390 -0.151948
C52   C     C_R   0.270721 0.254911 0.272539 -0.097764
C53   C     C_R   0.395077 0.184482 0.312955 0.045920
C54   C     C_R   0.642373 0.149477 0.328539 -0.010658
H25   H     H_    0.401356 0.301431 0.119366 0.137199
H26   H     H_    0.889459 0.006405 0.200800 0.158813
H27   H     H_    0.179415 0.344846 0.171433 0.134788
H28   H     H_    0.171256 0.271471 0.293107 0.189819
C55   C     C_R   0.147311 0.667136 0.184207 -0.033349
C56   C     C_R   0.213056 0.734680 0.214829 0.016907
C57   C     C_R   0.184729 0.771443 0.286330 0.020359
C58   C     C_R   0.091745 0.615065 0.302120 -0.016016
C59   C     C_R   0.082054 0.612401 0.227958 -0.119047
C60   C     C_R   0.278367 0.792316 0.172949 -0.070077
C61   C     C_R   0.277147 0.911702 0.195991 -0.123926
C62   C     C_R   0.229967 0.961325 0.264091 -0.148358
C63   C     C_R   0.183721 0.893388 0.309039 -0.080121
C64   C     C_R   0.152730 0.688060 0.331511 -0.041654
H29   H     H_    0.314718 0.755379 0.119322 0.124356
H30   H     H_    0.017969 0.573848 0.204461 0.179455
H31   H     H_    0.226580 0.053681 0.282231 0.141941
H32   H     H_    0.139433 0.942650 0.359706 0.159213
O14   O     O_R   0.089570 0.825450 0.930590 -0.514377
O15   O     O_R   0.818700 0.054260 0.929860 -0.514606
C65   C     C_R   0.725095 0.052280 0.888475 0.546071
O16   O     O_R   0.606310 0.077010 0.915520 -0.523943
O17   O     O_R   0.646730 0.806540 0.917560 -0.518111
C66   C     C_R   0.719153 0.685091 0.890359 0.535399
O18   O     O_R   0.837290 0.593240 0.915240 -0.514007
O19   O     O_R   0.065320 0.635310 0.931580 -0.506313
C67   C     C_R   0.119735 0.705976 0.906293 0.520160
O20   O     O_R   0.068470 0.828620 0.091850 -0.522777
O21   O     O_R   0.799150 0.057200 0.079350 -0.511912
C68   C     C_R   0.677780 0.100725 0.105885 0.537902
O22   O     O_R   0.585220 0.080180 0.076770 -0.520570
O23   O     O_R   0.627170 0.809480 0.067050 -0.506299
C69   C     C_R   0.693140 0.689088 0.096016 0.530638
O24   O     O_R   0.816200 0.596410 0.076500 -0.516752
O25   O     O_R   0.045770 0.638240 0.081070 -0.510661
C70   C     C_R   0.093401 0.708016 0.112500 0.523922
Cr4   Cr    Cr6+3 0.937880 0.938320 0.007620 1.018900
Cr5   Cr    Cr6+3 0.625560 0.937220 0.994510 1.020206
Cr6   Cr    Cr6+3 0.938080 0.625010 0.001190 1.021302
O26   O     O_3   0.833840 0.833520 0.001110 -0.262608
H33   H     H_    0.786710 0.412905 0.699287 0.158937
C71   C     C_2   0.157408 0.108861 0.815694 0.186150
H34   H     H_    0.258274 0.061888 0.788358 0.072673
O27   O     O_2   0.152684 0.132340 0.879510 -0.533123
H35   H     H_    0.738137 0.428600 0.081664 0.126893
C72   C     C_2   0.395412 0.104864 0.376855 0.240861
H36   H     H_    0.495183 0.026692 0.400018 0.127597
O28   O     O_2   0.285168 0.126480 0.404599 -0.538375
C73   C     C_2   0.022921 0.558606 0.348444 0.245863
H37   H     H_    0.023930 0.567932 0.405897 0.137866
O29   O     O_2   0.960460 0.504122 0.322895 -0.531378
H38   H     H_    0.312074 0.965966 0.161032 0.125947
C74   C     C_2   0.799658 0.772647 0.645470 0.188157
H39   H     H_    0.885492 0.793589 0.652878 0.112784
O30   O     O_2   0.710067 0.838517 0.600405 -0.515177
H40   H     H_    0.833859 0.440312 0.812978 0.164757
H41   H     H_    0.652652 0.496608 0.834055 0.119562
H42   H     H_    0.600713 0.493171 0.716173 0.126836

loop_
_geom_bond_atom_site_label_1
_geom_bond_atom_site_label_2
_geom_bond_distance
_ccdc_geom_bond_type
C35   C69   1.459983 S    
C20   H9    1.070546 S    
C55   C59   1.411088 A    
C26   C27   1.420619 A    
C57   C63   1.412760 A    
O23   C69   1.275684 A    
C26   C30   1.403063 A    
C13   H7    1.113963 S    
O15   Cr4   1.949185 S    
C74   H39   1.085168 S    
Cr4   O26   2.000557 S    
O15   C65   1.296128 A    
C28   C29   1.373933 A    
C52   H28   1.079749 S    
O21   C68   1.263884 A    
O4    Cr2   1.953431 S    
C21   C22   1.393526 A    
O19   C67   1.290794 A    
C4    O9    1.257659 A    
O8    Cr1   1.946808 S    
C30   H14   1.082918 S    
O18   Cr6   2.084475 S    
C59   H30   1.083475 S    
C74   O30   1.220916 D    
C72   O28   1.221469 D    
H8    C18   1.082420 S    
C37   C44   1.429038 A    
C45   C46   1.400540 A    
C60   H29   1.083735 S    
C62   C63   1.386163 A    
C5    O11   1.285635 A    
C47   C54   1.440139 A    
C56   C60   1.413975 A    
C45   C68   1.450566 S    
O19   Cr6   1.954279 S    
C38   C39   1.386276 A    
C7    C8    1.534489 S    
O17   Cr5   1.975193 S    
C66   O18   1.264792 A    
C52   C53   1.403089 A    
C37   C43   1.415330 A    
C8    C12   1.561212 S    
C22   C23   1.391756 A    
C43   H23   1.069452 S    
C5    C44   1.474419 S    
C10   C11   1.542292 S    
O6    C3    1.271637 A    
C35   C39   1.398197 A    
C7    H1    1.101942 S    
C58   C64   1.397533 A    
C35   C36   1.407832 A    
O9    Cr2   2.069795 S    
C57   C64   1.423014 A    
C31   H16   1.077442 S    
C30   C31   1.381817 A    
C39   H20   1.083954 S    
Cr3   O13   1.972809 S    
C14   H42   1.114206 S    
C32   C33   1.389758 A    
C60   C61   1.386566 A    
O12   C6    1.313464 A    
C62   H31   1.062113 S    
C17   C23   1.412928 A    
C48   C54   1.382445 A    
O1    Cr1   2.068750 S    
C9    C13   1.542505 S    
O10   Cr2   1.956377 S    
C50   H25   1.082194 S    
Cr1   O13   1.999267 S    
O1    C3    1.281255 A    
C72   H36   1.085708 S    
C71   O27   1.221827 D    
C46   C50   1.410758 A    
C14   H33   1.109334 S    
C15   C16   1.423602 A    
C4    C64   1.464441 S    
C10   H40   1.113110 S    
C45   C49   1.413903 A    
C46   C47   1.400171 A    
C15   C19   1.398366 A    
C42   C43   1.390043 A    
O11   Cr3   2.080412 S    
C22   H11   1.082417 S    
O12   Cr3   1.973168 S    
C1    O3    1.290744 A    
C31   C32   1.392660 A    
C40   C41   1.383704 A    
H5    C9    1.109492 S    
C10   H41   1.113195 S    
C13   C74   1.516682 S    
C32   H17   1.079204 S    
C29   H15   1.072201 S    
C55   C56   1.398603 A    
O16   Cr5   2.078557 S    
O23   Cr5   1.959356 S    
O7    Cr1   2.086684 S    
C12   C13   1.555742 S    
C38   C44   1.397986 A    
C27   C34   1.428709 A    
C63   H32   1.081589 S    
C18   C24   1.386781 A    
C51   H27   1.081502 S    
H19   C38   1.080029 S    
C2    O5    1.259221 A    
O25   Cr6   1.960075 S    
C16   C17   1.420351 A    
C25   C67   1.467856 S    
Cr2   O13   1.996612 S    
C15   C65   1.474617 S    
C8    H3    1.110393 S    
Cr6   O26   1.995891 S    
C6    C54   1.469794 S    
C10   C14   1.535778 S    
C18   C19   1.367116 A    
C69   O24   1.267088 A    
O20   Cr4   2.067873 S    
C51   C52   1.386314 A    
C20   C21   1.393441 A    
O25   C70   1.275863 A    
C25   C29   1.391058 A    
C73   O29   1.217182 D    
C25   C26   1.400309 A    
C21   C71   1.470891 S    
H13   C28   1.077192 S    
O14   Cr4   2.076121 S    
C55   C70   1.448931 S    
O21   Cr4   1.957147 S    
O2    Cr1   1.964723 S    
H24   C48   1.082535 S    
C28   C34   1.396590 A    
C11   C66   1.469096 S    
C71   H34   1.082460 S    
O6    Cr3   1.960437 S    
C41   H21   1.082083 S    
O8    C4    1.305614 A    
C19   H10   1.072471 S    
C23   H12   1.080309 S    
C1    C34   1.477820 S    
C61   C62   1.384191 A    
C8    H4    1.111206 S    
C2    C12   1.474707 S    
C9    H6    1.113466 S    
C7    C11   1.551518 S    
C49   H26   1.083050 S    
O2    C1    1.280886 A    
C36   C37   1.413857 A    
C53   C72   1.488978 S    
O5    Cr3   2.093966 S    
O17   C66   1.274131 A    
C9    C11   1.563207 S    
C41   C42   1.383512 A    
O22   Cr5   2.094027 S    
C50   C51   1.384710 A    
O4    C2    1.265961 A    
C42   H22   1.072513 S    
O7    C6    1.238473 A    
C61   H38   1.082401 S    
C47   C53   1.429791 A    
C56   C57   1.391516 A    
C12   C14   1.566624 S    
C17   C24   1.419240 A    
C27   C33   1.412145 A    
C33   H18   1.077994 S    
C7    H2    1.113460 S    
C58   C59   1.398374 A    
O3    Cr2   2.076427 S    
C16   C20   1.409280 A    
O14   C67   1.276797 A    
C48   C49   1.386577 A    
C3    C24   1.464864 S    
Cr5   O26   1.972249 S    
C58   C73   1.480618 S    
O10   C5    1.317537 A    
C40   H35   1.083082 S    
C65   O16   1.289443 A    
O24   Cr6   2.074828 S    
O20   C70   1.282839 A    
C73   H37   1.084483 S    
C68   O22   1.270004 A    
C36   C40   1.414081 A    
