data_mof_unit_12446.cif
_audit_creation_date              2012-12-10T18:44:10-0500
_audit_creation_method            fapswitch 2.2
_symmetry_space_group_name_H-M    P1
_symmetry_Int_Tables_number       1
_space_group_crystal_system       triclinic
_cell_length_a                    18.129025
_cell_length_b                    18.107545
_cell_length_c                    22.085676
_cell_angle_alpha                 114.188476
_cell_angle_beta                  114.073728
_cell_angle_gamma                 90.078627
_cell_volume                      5913.44665611

loop_
_atom_site_label
_atom_site_type_symbol
_atom_type_description
_atom_site_fract_x
_atom_site_fract_y
_atom_site_fract_z
_atom_type_partial_charge
C1    C     C_R   0.349631 0.349721 0.699404 0.809869
C2    C     C_R   0.650426 0.650314 0.300599 0.804495
C3    C     C_3   0.562950 0.538331 0.567128 0.412632
C4    C     C_3   0.436349 0.462432 0.432730 0.413339
C5    C     C_3   0.998474 0.055017 0.975598 0.381405
C6    C     C_3   0.010049 0.939037 0.023206 0.311556
C7    C     C_3   0.961263 0.051061 0.026110 0.256749
C8    C     C_3   0.046579 0.943911 0.972288 0.302888
C9    C     C_1   0.111755 0.108593 0.221440 -0.154047
C10   C     C_1   0.888941 0.888917 0.778441 -0.132590
C11   C     C_3   0.080272 0.037411 0.022056 0.306021
C12   C     C_3   0.928320 0.957207 0.977373 0.265632
C13   C     C_3   0.043580 0.033818 0.073796 -0.247640
C14   C     C_3   0.964580 0.961409 0.925922 -0.175139
C15   C     C_1   0.080736 0.074201 0.154807 0.095362
C16   C     C_1   0.922588 0.921786 0.845044 0.160509
C17   C     C_3   0.037726 0.503297 0.566249 0.301978
C18   C     C_3   0.961455 0.497243 0.430468 0.309125
C19   C     C_3   0.944089 0.478073 0.516157 0.350757
C20   C     C_3   0.055974 0.522450 0.480459 0.287307
C21   C     C_3   0.949206 0.552149 0.499445 -0.344517
C22   C     C_3   0.051005 0.448095 0.497922 -0.386729
C23   C     C_R   0.150475 0.149939 0.300659 0.820169
C24   C     C_R   0.849562 0.849645 0.699291 0.811498
C25   C     C_3   0.043924 0.576760 0.549287 0.336698
C26   C     C_3   0.956361 0.423405 0.447578 0.365932
C27   C     C_3   0.570181 0.552792 0.023468 0.324918
C28   C     C_3   0.431121 0.448629 0.976588 0.324095
C29   C     C_3   0.551399 0.458515 0.974956 0.323123
C30   C     C_3   0.449890 0.542888 0.025083 0.324655
C31   C     C_1   0.388986 0.389489 0.778657 -0.122220
C32   C     C_1   0.611525 0.610789 0.221356 -0.115900
C33   C     C_3   0.482285 0.558629 0.975888 0.325215
C34   C     C_3   0.518978 0.442768 0.024125 0.324743
C35   C     C_3   0.462961 0.463802 0.926304 -0.220411
C36   C     C_3   0.538311 0.537557 0.073719 -0.221392
C37   C     C_1   0.422198 0.423061 0.845323 0.165846
C38   C     C_1   0.578732 0.577741 0.154695 0.167548
C39   C     C_3   0.073149 0.013483 0.554585 0.597954
C40   C     C_3   0.926054 0.988080 0.446403 0.607850
C41   C     C_3   0.025812 0.928143 0.489002 -0.337708
C42   C     C_3   0.973663 0.073441 0.512031 -0.333407
C43   C     C_3   0.948197 0.949139 0.499737 -0.064819
C44   C     C_3   0.051267 0.052272 0.501205 -0.064284
C45   C     C_R   0.391299 0.108007 0.499552 0.947406
C46   C     C_R   0.608276 0.891390 0.499962 0.952631
C47   C     C_3   0.996200 0.034048 0.566249 -0.329101
C48   C     C_3   0.002901 0.967434 0.434562 -0.327605
C49   C     C_3   0.522299 0.056258 0.569049 0.315585
C50   C     C_3   0.477010 0.940840 0.428425 0.323133
C51   C     C_3   0.575576 0.041024 0.527662 0.311405
C52   C     C_3   0.422553 0.955427 0.469659 0.224724
C53   C     C_3   0.550517 0.947487 0.499467 -0.292474
C54   C     C_3   0.447908 0.050482 0.498597 -0.357236
C55   C     C_3   0.496033 0.962843 0.540641 0.271542
C56   C     C_3   0.502285 0.034737 0.457109 0.310264
C57   C     C_R   0.108434 0.391574 0.499312 0.960666
C58   C     C_R   0.891676 0.608550 0.499951 0.965062
C59   C     C_R   0.108402 0.108860 0.500589 0.828737
C60   C     C_R   0.891463 0.891646 0.499801 0.823942
C61   C     C_R   0.391382 0.391803 0.499901 0.900154
C62   C     C_R   0.608351 0.608326 0.499916 0.892302
C63   C     C_3   0.472615 0.543669 0.548961 0.507505
C64   C     C_3   0.526628 0.456916 0.450686 0.501450
C65   C     C_3   0.459267 0.557169 0.480826 -0.486885
C66   C     C_3   0.540190 0.443462 0.519055 -0.509902
C67   C     C_3   0.550730 0.551247 0.499261 -0.197861
C68   C     C_3   0.448585 0.449314 0.500478 -0.199617
H1    H     H_    0.427764 0.603298 0.464560 0.173823
H2    H     H_    0.571237 0.396927 0.534858 0.169975
H3    H     H_    0.046667 0.868662 0.480733 0.153070
H4    H     H_    0.954263 0.133647 0.521294 0.153964
H5    H     H_    0.993370 0.059537 0.620153 0.160424
H6    H     H_    0.005389 0.942140 0.380521 0.158423
O1    O     O_3   0.250010 0.250010 0.500010 -0.508480
O2    O     O_3   0.749990 0.749990 0.499990 -0.525335
O3    O     O_R   0.376520 0.141930 0.456900 -0.672238
O4    O     O_R   0.623480 0.858070 0.543100 -0.627005
O5    O     O_R   0.184990 0.419580 0.543110 -0.604889
O6    O     O_R   0.815010 0.580420 0.456890 -0.592129
O7    O     O_R   0.332220 0.270690 0.664420 -0.625191
O8    O     O_R   0.667780 0.729310 0.335580 -0.623916
O9    O     O_R   0.106290 0.167820 0.335630 -0.639767
O10   O     O_R   0.893710 0.832180 0.664370 -0.629951
O11   O     O_R   0.332200 0.393690 0.664400 -0.630297
O12   O     O_R   0.667800 0.606310 0.335600 -0.626530
O13   O     O_R   0.229300 0.167820 0.335610 -0.652710
O14   O     O_R   0.770700 0.832180 0.664390 -0.631593
O15   O     O_R   0.358130 0.123520 0.543120 -0.605982
O16   O     O_R   0.641870 0.876480 0.456880 -0.604278
O17   O     O_R   0.080390 0.314990 0.456920 -0.646043
O18   O     O_R   0.919610 0.685010 0.543080 -0.624145
O19   O     O_R   0.185040 0.123520 0.543150 -0.598556
O20   O     O_R   0.814960 0.876480 0.456850 -0.596525
O21   O     O_R   0.358080 0.419590 0.543080 -0.603816
O22   O     O_R   0.641920 0.580410 0.456920 -0.601416
O23   O     O_R   0.080420 0.141920 0.456950 -0.662059
O24   O     O_R   0.919580 0.858080 0.543050 -0.661993
O25   O     O_R   0.376490 0.315000 0.456880 -0.648838
O26   O     O_R   0.623510 0.685000 0.543120 -0.639200
Zn1   Zn    Zn3+2 0.307090 0.219220 0.438420 0.948042
Zn2   Zn    Zn3+2 0.692910 0.780780 0.561580 0.992516
Zn3   Zn    Zn3+2 0.280820 0.192930 0.561610 1.021511
Zn4   Zn    Zn3+2 0.719180 0.807070 0.438390 1.024428
Zn5   Zn    Zn3+2 0.131340 0.219220 0.438450 0.964479
Zn6   Zn    Zn3+2 0.868660 0.780780 0.561550 0.987357
Zn7   Zn    Zn3+2 0.280790 0.368660 0.561580 1.028677
Zn8   Zn    Zn3+2 0.719210 0.631340 0.438420 1.041491
O27   O     O_3   0.599430 0.411357 0.943014 -0.601805
C69   C     C_3   0.679667 0.424036 0.998787 -0.269846
H7    H     H_    0.680216 0.424127 0.049387 0.190712
H8    H     H_    0.718018 0.482378 0.014020 0.193797
H9    H     H_    0.709054 0.372800 0.976344 0.168240
O28   O     O_3   0.402010 0.590086 0.057200 -0.601146
C70   C     C_3   0.321695 0.577437 0.001586 -0.274305
H10   H     H_    0.283671 0.518546 0.985622 0.195096
H11   H     H_    0.321098 0.578568 0.951395 0.190682
H12   H     H_    0.291968 0.627996 0.024557 0.167130
O29   O     O_3   0.644833 0.608115 0.053439 -0.600310
C71   C     C_3   0.654414 0.616785 0.996219 -0.267076
H13   H     H_    0.617691 0.660614 0.980735 0.194804
H14   H     H_    0.637997 0.556963 0.945961 0.189228
H15   H     H_    0.720143 0.643248 0.017192 0.173147
O30   O     O_3   0.356484 0.393350 0.946698 -0.601941
C72   C     C_3   0.346926 0.384881 0.004004 -0.265771
H16   H     H_    0.364107 0.444639 0.054511 0.189115
H17   H     H_    0.383042 0.340473 0.019036 0.195218
H18   H     H_    0.281040 0.359264 0.983311 0.172022
O31   O     O_3   0.539966 0.386729 0.054964 -0.597869
C73   C     C_3   0.523586 0.305996 0.998142 -0.265516
H19   H     H_    0.573322 0.297221 0.980460 0.195270
H20   H     H_    0.462922 0.290051 0.949065 0.189062
H21   H     H_    0.522387 0.261456 0.020507 0.171181
O32   O     O_3   0.461253 0.614642 0.945020 -0.600048
C74   C     C_3   0.477676 0.695409 0.001817 -0.269100
H22   H     H_    0.538224 0.711286 0.051000 0.191679
H23   H     H_    0.427801 0.704318 0.019333 0.200588
H24   H     H_    0.479190 0.739924 0.979494 0.168523
O33   O     O_3   0.152854 0.031936 0.613019 -0.625208
C75   C     C_3   0.156366 0.980882 0.647903 0.074142
H25   H     H_    0.170242 0.921089 0.616960 0.146199
H26   H     H_    0.097682 0.968038 0.650362 0.151403
C76   C     C_3   0.224734 0.023902 0.727572 -0.320848
H27   H     H_    0.283986 0.039199 0.727435 0.236506
H28   H     H_    0.209612 0.082688 0.758708 0.231988
C77   C     C_3   0.234523 0.969560 0.766928 -0.939910
H29   H     H_    0.176815 0.956706 0.770408 0.280924
H30   H     H_    0.285583 0.001898 0.824087 0.265700
H31   H     H_    0.249194 0.910100 0.736623 0.263346
O34   O     O_3   0.845610 0.969303 0.388687 -0.622153
C78   C     C_3   0.837174 0.023945 0.356387 0.085511
H32   H     H_    0.805417 0.986434 0.295113 0.164548
H33   H     H_    0.896981 0.058752 0.369590 0.140737
C79   C     C_3   0.783528 0.084077 0.379467 -0.359879
H34   H     H_    0.721666 0.048698 0.360323 0.237952
H35   H     H_    0.812130 0.119214 0.440864 0.214641
C80   C     C_3   0.773494 0.145090 0.346689 -0.944117
H36   H     H_    0.834524 0.183054 0.367439 0.293975
H37   H     H_    0.733358 0.186878 0.363596 0.265985
H38   H     H_    0.744626 0.111598 0.285113 0.262374
O35   O     O_3   0.658960 0.078434 0.557477 -0.645290
C81   C     C_3   0.666764 0.162086 0.570796 0.175487
H39   H     H_    0.710693 0.200867 0.629975 0.122007
H40   H     H_    0.608178 0.185640 0.561510 0.157652
C82   C     C_3   0.703087 0.173879 0.523107 -0.299659
H41   H     H_    0.766602 0.161413 0.540624 0.205043
H42   H     H_    0.665417 0.129428 0.463876 0.263235
C83   C     C_3   0.705982 0.261495 0.530711 -1.005463
H43   H     H_    0.643358 0.275876 0.515758 0.269297
H44   H     H_    0.728586 0.266901 0.492687 0.265156
H45   H     H_    0.748078 0.306798 0.588627 0.260991
O36   O     O_3   0.339594 0.916420 0.439557 -0.647313
C84   C     C_3   0.335283 0.834638 0.431365 0.131031
H46   H     H_    0.345032 0.834957 0.484295 0.162483
H47   H     H_    0.382120 0.804089 0.415143 0.149988
C85   C     C_3   0.249249 0.783406 0.372683 -0.359282
H48   H     H_    0.202599 0.811003 0.390710 0.230762
H49   H     H_    0.235903 0.784211 0.319217 0.220023
C86   C     C_3   0.242140 0.694018 0.360965 -0.994619
H50   H     H_    0.286263 0.664261 0.340352 0.267210
H51   H     H_    0.178608 0.658764 0.319297 0.267593
H52   H     H_    0.255293 0.691781 0.413849 0.262430
O37   O     O_3   0.540786 0.119288 0.640421 -0.604221
C87   C     C_3   0.616239 0.116049 0.693281 -0.277688
H53   H     H_    0.668715 0.149689 0.695094 0.178005
H54   H     H_    0.624641 0.051930 0.683499 0.183704
H55   H     H_    0.617894 0.147791 0.748875 0.180289
O38   O     O_3   0.466928 0.879305 0.358863 -0.593731
C88   C     C_3   0.383343 0.850117 0.305983 -0.294513
H56   H     H_    0.378841 0.840406 0.251563 0.188154
H57   H     H_    0.341550 0.892401 0.318316 0.170046
H58   H     H_    0.361222 0.788920 0.299330 0.175745
O39   O     O_3   0.498717 0.919861 0.582079 -0.632820
C89   C     C_3   0.453497 0.951264 0.622863 0.130709
H59   H     H_    0.393071 0.961776 0.589155 0.173392
H60   H     H_    0.489412 0.010576 0.672525 0.179202
C90   C     C_3   0.438468 0.889030 0.648975 -0.374433
H61   H     H_    0.406925 0.827733 0.600337 0.212777
H62   H     H_    0.498626 0.882493 0.686629 0.233118
C91   C     C_3   0.385276 0.915750 0.689560 -0.982813
H63   H     H_    0.415084 0.977207 0.738442 0.272730
H64   H     H_    0.377162 0.869997 0.708946 0.263293
H65   H     H_    0.323598 0.918689 0.651368 0.273637
O40   O     O_3   0.513379 0.080386 0.421537 -0.648734
C92   C     C_3   0.446964 0.056945 0.350892 0.181598
H66   H     H_    0.428240 0.114284 0.348029 0.165478
H67   H     H_    0.391104 0.018296 0.339889 0.127968
C93   C     C_3   0.475998 0.014182 0.291295 -0.334345
H68   H     H_    0.527649 0.057267 0.300636 0.216605
H69   H     H_    0.499401 0.958993 0.295392 0.272893
C94   C     C_3   0.406546 0.987750 0.213513 -1.022661
H70   H     H_    0.353177 0.946353 0.203418 0.260441
H71   H     H_    0.429050 0.954215 0.171808 0.278231
H72   H     H_    0.386157 0.042611 0.206505 0.267444
O41   O     O_3   0.442379 0.584034 0.601213 -0.586200
C95   C     C_3   0.463378 0.670156 0.628327 -0.272535
H73   H     H_    0.429225 0.688940 0.584072 0.157905
H74   H     H_    0.530985 0.692118 0.652262 0.192749
H75   H     H_    0.444909 0.701136 0.673343 0.180773
O42   O     O_3   0.555909 0.416662 0.397698 -0.581870
C96   C     C_3   0.541081 0.330951 0.374940 -0.284557
H76   H     H_    0.477075 0.306336 0.361212 0.172008
H77   H     H_    0.586317 0.316249 0.418309 0.180655
H78   H     H_    0.549646 0.298904 0.324101 0.187733
O43   O     O_3   0.631431 0.584015 0.636887 -0.635694
C97   C     C_3   0.632388 0.553892 0.686811 0.094136
H79   H     H_    0.651110 0.492858 0.672250 0.139820
H80   H     H_    0.570896 0.547219 0.686109 0.175579
C98   C     C_3   0.694897 0.614881 0.765396 -0.308471
H81   H     H_    0.757289 0.620530 0.767954 0.227382
H82   H     H_    0.678104 0.676733 0.779442 0.230584
C99   C     C_3   0.697180 0.586933 0.822534 -1.001324
H83   H     H_    0.635947 0.583200 0.822427 0.274539
H84   H     H_    0.743587 0.632160 0.878769 0.257182
H85   H     H_    0.714504 0.525458 0.810040 0.269475
O44   O     O_3   0.365831 0.420222 0.363878 -0.650683
C100  C     C_3   0.373845 0.437278 0.309668 0.118162
H86   H     H_    0.409933 0.394882 0.286310 0.184755
H87   H     H_    0.404865 0.502456 0.332223 0.132907
C101  C     C_3   0.288009 0.422377 0.247383 -0.344116
H88   H     H_    0.253842 0.359264 0.226270 0.228395
H89   H     H_    0.253210 0.467665 0.269635 0.229445
C102  C     C_3   0.292930 0.431369 0.183284 -0.994305
H90   H     H_    0.325756 0.494593 0.202865 0.273501
H91   H     H_    0.229666 0.420618 0.139276 0.262837
H92   H     H_    0.325884 0.385306 0.159101 0.265937
O45   O     O_3   0.920644 0.108835 0.059598 -0.643836
C103  C     C_3   0.853477 0.120704 0.005117 0.097273
H93   H     H_    0.815100 0.060953 0.956662 0.167172
H94   H     H_    0.876217 0.159027 0.985467 0.183855
C104  C     C_3   0.799301 0.166667 0.039743 -0.351455
H95   H     H_    0.775852 0.129387 0.059923 0.220780
H96   H     H_    0.836757 0.226679 0.088002 0.226611
C105  C     C_3   0.726210 0.182984 0.983925 -0.982436
H97   H     H_    0.748189 0.221535 0.963992 0.261560
H98   H     H_    0.688406 0.216476 0.010965 0.266104
H99   H     H_    0.686917 0.123734 0.935790 0.268477
O46   O     O_3   0.087116 0.888755 0.936365 -0.621977
C106  C     C_3   0.147066 0.863478 0.984899 0.149689
H100  H     H_    0.119423 0.803153 0.976354 0.153904
H101  H     H_    0.170910 0.907984 0.044615 0.130231
C107  C     C_3   0.219652 0.852172 0.965768 -0.325573
H102  H     H_    0.196432 0.813092 0.905070 0.236735
H103  H     H_    0.252413 0.913565 0.980668 0.226029
C108  C     C_3   0.280004 0.811065 0.007082 -1.006681
H104  H     H_    0.301829 0.847006 0.067798 0.272308
H105  H     H_    0.334020 0.807929 0.995067 0.268571
H106  H     H_    0.249766 0.747246 0.988733 0.261433
O47   O     O_3   0.988526 0.111427 0.945122 -0.598701
C109  C     C_3   0.036115 0.190330 0.000865 -0.266606
H107  H     H_    0.100975 0.194347 0.009398 0.214382
H108  H     H_    0.033895 0.207250 0.054515 0.161677
H109  H     H_    0.011220 0.236977 0.981872 0.163780
O48   O     O_3   0.021043 0.881580 0.052637 -0.610545
C110  C     C_3   0.976159 0.802011 0.995881 -0.289217
H110  H     H_    0.972307 0.789343 0.940769 0.173558
H111  H     H_    0.913115 0.792455 0.990733 0.185756
H112  H     H_    0.007256 0.755501 0.011660 0.166519
O49   O     O_3   0.848035 0.912118 0.947696 -0.642046
C111  C     C_3   0.826576 0.924161 0.005307 0.117893
H113  H     H_    0.811446 0.986183 0.026552 0.167539
H114  H     H_    0.877226 0.918750 0.052443 0.175538
C112  C     C_3   0.750218 0.858975 0.974270 -0.358682
H115  H     H_    0.698223 0.866031 0.929160 0.232077
H116  H     H_    0.763167 0.796225 0.950382 0.222507
C113  C     C_3   0.724897 0.867093 0.034333 -0.976453
H117  H     H_    0.775246 0.858059 0.079097 0.269978
H118  H     H_    0.669053 0.819288 0.009777 0.266129
H119  H     H_    0.710564 0.929063 0.058425 0.265057
O50   O     O_3   0.156507 0.077486 0.035897 -0.620170
C114  C     C_3   0.221670 0.087332 0.103272 0.104145
H120  H     H_    0.275581 0.070386 0.092614 0.160780
H121  H     H_    0.208951 0.046384 0.125551 0.122024
C115  C     C_3   0.244975 0.178085 0.160631 -0.367607
H122  H     H_    0.261262 0.217389 0.138472 0.226460
H123  H     H_    0.191372 0.196794 0.171085 0.219549
C116  C     C_3   0.318024 0.192994 0.233588 -0.943480
H124  H     H_    0.306643 0.148911 0.253407 0.278447
H125  H     H_    0.327113 0.256653 0.276338 0.301518
H126  H     H_    0.375043 0.185766 0.226188 0.245447
O51   O     O_3   0.882887 0.461500 0.535452 -0.591162
C117  C     C_3   0.882533 0.383806 0.535782 -0.210725
H127  H     H_    0.945343 0.370110 0.557642 0.164371
H128  H     H_    0.842901 0.334278 0.479137 0.212726
H129  H     H_    0.855425 0.383332 0.572464 0.161395
O52   O     O_3   0.117310 0.539013 0.461216 -0.599932
C118  C     C_3   0.122295 0.619163 0.465924 -0.236993
H130  H     H_    0.171424 0.663583 0.520852 0.184380
H131  H     H_    0.063253 0.641679 0.455926 0.164147
H132  H     H_    0.140100 0.618505 0.423292 0.163175
O53   O     O_3   0.081368 0.502367 0.635391 -0.600595
C119  C     C_3   0.049328 0.548639 0.684577 -0.263661
H133  H     H_    0.993619 0.510746 0.674463 0.189809
H134  H     H_    0.034952 0.607147 0.681506 0.184773
H135  H     H_    0.096256 0.565667 0.742125 0.171700
O54   O     O_3   0.912286 0.497864 0.361884 -0.586882
C120  C     C_3   0.954914 0.483044 0.318390 -0.278798
H136  H     H_    0.909189 0.451741 0.259030 0.170556
H137  H     H_    0.000067 0.442471 0.327121 0.166342
H138  H     H_    0.986036 0.542559 0.328515 0.177110
O55   O     O_3   0.084469 0.659601 0.600213 -0.589901
C121  C     C_3   0.167221 0.662828 0.646057 -0.221258
H139  H     H_    0.196546 0.617328 0.616103 0.197206
H140  H     H_    0.171596 0.653683 0.693973 0.191795
H141  H     H_    0.203439 0.725348 0.668526 0.155136
O56   O     O_3   0.910816 0.341430 0.400143 -0.597515
C122  C     C_3   0.914347 0.311076 0.331895 -0.194834
H142  H     H_    0.893073 0.242961 0.302872 0.169026
H143  H     H_    0.871567 0.336142 0.295986 0.192933
H144  H     H_    0.978032 0.323725 0.338831 0.149921

loop_
_geom_bond_atom_site_label_1
_geom_bond_atom_site_label_2
_ccdc_geom_bond_type
C121  H140  S    
C63   C65   S    
O1    Zn7   S    
C80   H36   S    
C18   C21   S    
C116  H125  S    
O3    Zn1   S    
C114  H120  S    
C95   H75   S    
O28   C70   S    
C39   C41   S    
O51   C117  S    
C29   O27   S    
C60   O24   A    
C26   O56   S    
C121  H141  S    
C76   H27   S    
C74   H23   S    
O48   C110  S    
C90   H62   S    
C69   H7    S    
C105  H98   S    
C85   C86   S    
C52   C54   S    
C49   C51   S    
C50   C52   S    
O56   C122  S    
O23   Zn5   S    
C84   H47   S    
O22   Zn8   S    
O20   Zn4   S    
O1    Zn3   S    
C41   C43   S    
C42   C44   S    
C103  H94   S    
C81   H40   S    
C50   C53   S    
C48   H6    S    
C74   H22   S    
C75   H25   S    
C31   C37   T    
O54   C120  S    
C64   C66   S    
C120  H138  S    
O41   C95   S    
C98   H81   S    
C81   C82   S    
C70   H12   S    
C42   H4    S    
O52   C118  S    
C40   O34   S    
O16   Zn4   S    
C79   H34   S    
O18   Zn6   S    
C83   H43   S    
O25   Zn1   S    
O1    Zn5   S    
C80   H38   S    
C109  H108  S    
C89   H60   S    
C39   C47   S    
C77   H29   S    
C40   C48   S    
C29   C35   S    
C113  H119  S    
O12   Zn8   S    
C106  H101  S    
O14   Zn2   S    
O33   C75   S    
C17   O53   S    
O32   C74   S    
O24   Zn6   S    
C30   C36   S    
C10   C24   S    
C73   H19   S    
C9    C15   T    
C17   C25   S    
C10   C16   T    
C113  H118  S    
C11   C13   S    
C66   H2    S    
C46   C53   S    
C78   H33   S    
C8    O46   S    
C89   C90   S    
C7    C13   S    
C25   O55   S    
C91   H64   S    
O39   C89   S    
O1    Zn1   S    
O8    Zn4   S    
C83   H45   S    
C43   C47   S    
C44   C48   S    
C27   C29   S    
O17   Zn5   S    
C75   C76   S    
C50   O38   S    
O19   Zn3   S    
C27   C33   S    
C119  H135  S    
C18   O54   S    
C114  H121  S    
C95   H74   S    
C98   C99   S    
C44   C59   S    
C70   H10   S    
C7    O45   S    
C1    C31   S    
C119  H133  S    
C2    C32   S    
C88   H57   S    
O13   Zn1   S    
C11   O50   S    
C28   C35   S    
C119  H134  S    
C41   H3    S    
C40   C42   S    
C82   H42   S    
C100  H86   S    
O15   Zn3   S    
C112  C113  S    
C4    O44   S    
O26   Zn2   S    
O42   C96   S    
C92   H67   S    
O2    Zn2   S    
C7    C12   S    
C117  H128  S    
C110  H112  S    
C111  H113  S    
C4    C68   S    
C9    C23   S    
C104  C105  S    
C105  H99   S    
C65   C67   S    
C49   C55   S    
C50   C56   S    
C51   C53   S    
C96   H76   S    
C78   H32   S    
C102  H92   S    
C108  H105  S    
O55   C121  S    
C71   H13   S    
C72   H17   S    
O31   C73   S    
O7    Zn3   S    
C21   C25   S    
C63   C68   S    
O2    Zn6   S    
C55   O39   S    
C28   O30   S    
C107  H102  S    
O6    Zn8   S    
C87   H55   S    
C118  H132  S    
C13   C15   S    
O46   C106  S    
C21   C58   S    
C101  H88   S    
C33   C35   S    
C121  H139  S    
C34   C36   S    
C90   H61   S    
C6    O48   S    
C69   H8    S    
C94   H72   S    
O40   C92   S    
C80   H37   S    
C97   H79   S    
C100  C101  S    
C112  H115  S    
O34   C78   S    
C45   O3    A    
C58   O18   A    
C60   O20   A    
O2    Zn4   S    
C76   C77   S    
C62   O22   A    
O4    Zn2   S    
C110  H110  S    
C18   C26   S    
C111  C112  S    
C107  C108  S    
O35   C81   S    
C104  H95   S    
C23   O9    A    
C75   H26   S    
C5    C11   S    
C96   H78   S    
C6    C12   S    
C115  H122  S    
C92   C93   S    
C20   C25   S    
C1    O7    A    
C102  H90   S    
O50   C114  S    
C120  H137  S    
C19   C26   S    
C49   O37   S    
C33   O32   S    
C34   O31   S    
C93   H68   S    
C70   H11   S    
O10   Zn6   S    
O49   C111  S    
C45   O15   A    
C79   H35   S    
C52   C55   S    
C58   O6    A    
C86   H52   S    
C83   H44   S    
C89   H59   S    
C28   C34   S    
O2    Zn8   S    
O47   C109  S    
C109  H109  S    
C52   O36   S    
C77   H30   S    
C39   O33   S    
C118  H130  S    
C47   H5    S    
C115  C116  S    
O44   C100  S    
C46   O4    A    
C6    C8    S    
C84   H46   S    
C29   C34   S    
C101  C102  S    
C71   H15   S    
C90   C91   S    
C73   H20   S    
C105  H97   S    
C77   H31   S    
C94   H70   S    
O5    Zn7   S    
C24   O14   A    
C12   O49   S    
C5    C14   S    
C39   C44   S    
O21   Zn7   S    
C79   C80   S    
C62   O26   A    
C20   C22   S    
C72   H16   S    
C2    O8    A    
C73   H21   S    
C103  H93   S    
C5    C7    S    
C81   H39   S    
C30   O28   S    
C20   O52   S    
C57   O17   A    
C110  H111  S    
O29   C71   S    
C61   O21   A    
C46   O16   A    
C3    C63   S    
C27   C36   S    
C4    C64   S    
C5    O47   S    
C17   C22   S    
C36   C38   S    
C122  H142  S    
C98   H82   S    
O27   C69   S    
C4    C65   S    
C93   C94   S    
C65   H1    S    
C99   H83   S    
C87   H54   S    
C51   O35   S    
C88   H56   S    
C86   H50   S    
O9    Zn5   S    
C22   C26   S    
C109  H107  S    
C63   O41   S    
C19   C21   S    
C74   H24   S    
C66   C68   S    
O53   C119  S    
C82   H41   S    
C112  H116  S    
C116  H124  S    
C57   O5    A    
O37   C87   S    
C106  C107  S    
C22   C57   S    
C92   H66   S    
C87   H53   S    
C117  H129  S    
C62   C67   S    
C35   C37   S    
C111  H114  S    
C91   H65   S    
C113  H117  S    
C104  H96   S    
C49   C54   S    
C51   C56   S    
C78   C79   S    
C91   H63   S    
C102  H91   S    
C72   H18   S    
C19   O51   S    
C32   C38   T    
C108  H104  S    
C3    O43   S    
C103  C104  S    
C23   O13   A    
C61   O25   A    
C99   H84   S    
C71   H14   S    
C53   C55   S    
C1    O11   A    
C54   C56   S    
C64   O42   S    
C64   C67   S    
C114  C115  S    
C95   H73   S    
C107  H103  S    
C99   H85   S    
O38   C88   S    
C118  H131  S    
C88   H58   S    
C40   C43   S    
C101  H89   S    
O43   C97   S    
C69   H9    S    
C43   C60   S    
C85   H48   S    
C94   H71   S    
C12   C14   S    
C45   C54   S    
C82   C83   S    
C97   H80   S    
C100  H87   S    
C59   O23   A    
C116  H126  S    
C14   C16   S    
C106  H100  S    
O36   C84   S    
C84   C85   S    
C76   H28   S    
C117  H127  S    
C8    C14   S    
C30   C33   S    
C3    C67   S    
C122  H144  S    
O45   C103  S    
C56   O40   S    
C27   O29   S    
C97   C98   S    
C28   C30   S    
C24   O10   A    
C96   H77   S    
C6    C13   S    
C115  H123  S    
C61   C68   S    
C122  H143  S    
C8    C11   S    
C85   H49   S    
C17   C19   S    
C41   C48   S    
C2    O12   A    
C18   C20   S    
C42   C47   S    
C120  H136  S    
C108  H106  S    
C3    C66   S    
C93   H69   S    
C59   O19   A    
O11   Zn7   S    
O30   C72   S    
C86   H51   S    
