data_mof_unit_44894.cif
_audit_creation_date              2012-12-10T16:57:04-0500
_audit_creation_method            fapswitch 2.2
_symmetry_space_group_name_H-M    P1
_symmetry_Int_Tables_number       1
_space_group_crystal_system       triclinic
_cell_length_a                    7.74534
_cell_length_b                    8.606808
_cell_length_c                    16.782156
_cell_angle_alpha                 91.305314
_cell_angle_beta                  81.871548
_cell_angle_gamma                 92.868158
_cell_volume                      1105.97678598

loop_
_atom_site_label
_atom_site_type_symbol
_atom_type_description
_atom_site_fract_x
_atom_site_fract_y
_atom_site_fract_z
_atom_type_partial_charge
C1    C     C_R   0.544647 0.794237 0.496239 0.960252
C2    C     C_R   0.455352 0.205763 0.503761 0.960231
C3    C     C_2   0.560078 0.954076 0.478579 -0.080038
C4    C     C_2   0.439922 0.045924 0.521423 -0.080032
C5    C     C_R   0.479040 0.497295 0.653998 0.865529
C6    C     C_R   0.520960 0.502701 0.346001 0.865532
C7    C     C_R   0.470341 0.468699 0.739431 -0.080286
C8    C     C_R   0.529656 0.531255 0.260566 -0.080294
C9    C     C_R   0.622795 0.431139 0.769527 -0.234902
C10   C     C_R   0.377204 0.568801 0.230465 -0.234916
C11   C     C_R   0.618924 0.399066 0.850539 0.221974
C12   C     C_R   0.381071 0.600804 0.149445 0.221986
C13   C     C_R   0.459372 0.412134 0.901936 0.156194
C14   C     C_R   0.540617 0.587694 0.098048 0.156198
C15   C     C_R   0.305061 0.438188 0.871164 -0.203023
C16   C     C_R   0.694928 0.561654 0.128823 -0.203041
C17   C     C_R   0.310241 0.466455 0.789930 -0.210375
C18   C     C_R   0.689751 0.533451 0.210063 -0.210356
C19   C     C_2   0.456831 0.436963 0.987421 -0.273048
C20   C     C_2   0.543160 0.562853 0.012563 -0.273010
H1    H     H_    0.746294 0.428467 0.730216 0.168343
H2    H     H_    0.253710 0.571513 0.269779 0.168339
H3    H     H_    0.809560 0.509150 0.232775 0.162971
H4    H     H_    0.190431 0.490763 0.767220 0.162975
H5    H     H_    0.627456 0.637510 0.970640 0.164861
H6    H     H_    0.372533 0.362308 0.029344 0.164860
H7    H     H_    0.183095 0.448091 0.911063 0.138472
H8    H     H_    0.816890 0.551722 0.088922 0.138470
H9    H     H_    0.023465 0.381653 0.439844 0.187758
H10   H     H_    0.976535 0.618347 0.560156 0.187760
N1    N     N_2   0.953500 0.457650 0.478520 -0.176584
N2    N     N_2   0.046500 0.542350 0.521480 -0.176581
O1    O     O_R   0.388470 0.738640 0.505270 -0.631646
O2    O     O_R   0.611530 0.261360 0.494730 -0.631641
O3    O     O_R   0.679650 0.711510 0.491500 -0.620913
O4    O     O_R   0.320350 0.288490 0.508500 -0.620917
O5    O     O_R   0.337210 0.515200 0.623500 -0.630849
O6    O     O_R   0.662790 0.484800 0.376500 -0.630842
O7    O     O_R   0.628380 0.488060 0.609730 -0.626523
O8    O     O_R   0.371620 0.511940 0.390270 -0.626525
Zn1   Zn    Zn3+2 0.305580 0.518120 0.509190 0.921207
Zn2   Zn    Zn3+2 0.694420 0.481880 0.490810 0.921207
C21   C     C_3   0.212504 0.639434 0.119386 -0.448943
C22   C     C_3   0.141277 0.790582 0.157279 -0.877442
H11   H     H_    0.104047 0.779120 0.223307 0.258421
H12   H     H_    0.240632 0.887876 0.145061 0.264990
H13   H     H_    0.023016 0.818626 0.130974 0.252281
H14   H     H_    0.230372 0.653443 0.053148 0.226864
H15   H     H_    0.113858 0.542431 0.134112 0.192764
C23   C     C_3   0.787492 0.360419 0.880594 -0.448926
C24   C     C_3   0.858764 0.209321 0.842656 -0.877456
H16   H     H_    0.759417 0.112006 0.854823 0.264993
H17   H     H_    0.896047 0.220876 0.776636 0.258420
H18   H     H_    0.977000 0.181244 0.868972 0.252281
H19   H     H_    0.886119 0.457452 0.865905 0.192759
H20   H     H_    0.769606 0.346332 0.946828 0.226861
C25   C     C_3   0.685128 0.003691 0.402399 -0.413423
C26   C     C_3   0.688766 0.886696 0.332194 -0.870115
H21   H     H_    0.758550 0.782314 0.344200 0.279979
H22   H     H_    0.553739 0.852902 0.321260 0.260861
H23   H     H_    0.760193 0.940097 0.276656 0.246976
H24   H     H_    0.647563 0.112967 0.377131 0.223679
H25   H     H_    0.819296 0.022525 0.418123 0.223718
C27   C     C_3   0.314863 0.996314 0.597601 -0.413447
C28   C     C_3   0.311284 0.113282 0.667813 -0.870145
H26   H     H_    0.446327 0.147029 0.678743 0.260880
H27   H     H_    0.241540 0.217694 0.655817 0.279975
H28   H     H_    0.239847 0.059884 0.723349 0.246988
H29   H     H_    0.180686 0.977540 0.581880 0.223715
H30   H     H_    0.352375 0.887011 0.622859 0.223709

loop_
_geom_bond_atom_site_label_1
_geom_bond_atom_site_label_2
_ccdc_geom_bond_type
C16   H8    S    
C2    C4    S    
N2    Zn1   S    
C19   H6    S    
O6    Zn2   S    
N1    Zn2   S    
C27   H30   S    
O7    Zn2   S    
C11   C13   A    
C21   H14   S    
C4    C27   S    
C15   H7    S    
C23   H19   S    
O2    Zn2   S    
C22   H13   S    
C21   C22   S    
C24   H18   S    
O1    Zn1   S    
C27   C28   S    
C28   H28   S    
C26   H23   S    
C13   C15   A    
C23   C24   S    
O4    Zn1   S    
C1    O1    A    
C25   H24   S    
H9    N1    S    
C11   C23   S    
C27   H29   S    
C10   H2    S    
H10   N2    S    
C9    C11   A    
C2    O2    A    
C25   C26   S    
C10   C12   A    
C3    C25   S    
C16   C18   A    
O8    Zn1   S    
C12   C14   A    
C25   H25   S    
C12   C21   S    
C6    O8    A    
C5    O7    A    
O5    Zn1   S    
C14   C16   A    
C17   H4    S    
C28   H27   S    
C5    O5    A    
C13   C19   S    
C26   H22   S    
C18   H3    S    
C9    H1    S    
C14   C20   S    
C24   H16   S    
C22   H11   S    
C1    O3    A    
C8    C10   A    
C28   H26   S    
C20   H5    S    
C2    O4    A    
C5    C7    S    
O3    Zn2   S    
C7    C9    A    
C21   H15   S    
C6    C8    S    
C23   H20   S    
C19   C20   D    
C1    C3    S    
C26   H21   S    
C15   C17   A    
C6    O6    A    
C8    C18   A    
C3    C4    D    
N1    N2    D    
C22   H12   S    
C24   H17   S    
C7    C17   A    
