data_mof_unit_61256.cif
_audit_creation_date              2013-03-05T16:52:49-0500
_audit_creation_method            fapswitch 2.2
_symmetry_space_group_name_H-M    P1
_symmetry_Int_Tables_number       1
_space_group_crystal_system       triclinic
_cell_length_a                    22.461509
_cell_length_b                    22.477542
_cell_length_c                    15.093518
_cell_angle_alpha                 89.986068
_cell_angle_beta                  89.997521
_cell_angle_gamma                 89.99812
_cell_volume                      7620.40776464

loop_
_atom_site_label
_atom_site_type_symbol
_atom_site_description
_atom_site_fract_x
_atom_site_fract_y
_atom_site_fract_z
_atom_type_partial_charge
O1    O     O_R   0.061000 0.439020 0.573650 -0.597844
O2    O     O_R   0.939000 0.560980 0.426350 -0.597861
O3    O     O_R   0.939000 0.560980 0.573650 -0.597721
O4    O     O_R   0.061000 0.439020 0.426350 -0.597716
O5    O     O_R   0.939000 0.439020 0.426350 -0.611791
O6    O     O_R   0.061000 0.560980 0.573650 -0.611798
O7    O     O_R   0.061000 0.560980 0.426350 -0.600222
O8    O     O_R   0.939000 0.439020 0.573650 -0.600219
O9    O     O_R   0.561000 0.939020 0.573650 -0.610472
O10   O     O_R   0.439000 0.060980 0.426350 -0.610470
O11   O     O_R   0.439000 0.060980 0.573650 -0.599219
O12   O     O_R   0.561000 0.939020 0.426350 -0.599220
O13   O     O_R   0.439000 0.939020 0.426350 -0.602153
O14   O     O_R   0.561000 0.060980 0.573650 -0.602157
O15   O     O_R   0.561000 0.060980 0.426350 -0.595903
O16   O     O_R   0.439000 0.939020 0.573650 -0.595906
C1    C     C_R   0.080492 0.419548 0.500006 0.899885
C2    C     C_R   0.919508 0.580452 0.499994 0.899884
C3    C     C_R   0.919494 0.419548 0.500010 0.898539
C4    C     C_R   0.080505 0.580452 0.499990 0.898536
C5    C     C_R   0.580480 0.919523 0.500005 0.898951
C6    C     C_R   0.419520 0.080477 0.499995 0.898951
C7    C     C_R   0.419536 0.919517 0.500008 0.899748
C8    C     C_R   0.580464 0.080483 0.499992 0.899748
Zn1   Zn    Zn3+2 0.000000 0.500000 0.598370 1.054461
Zn2   Zn    Zn3+2 1.000000 0.500000 0.401630 1.054455
Zn3   Zn    Zn3+2 0.500000 0.000000 0.598370 1.054437
Zn4   Zn    Zn3+2 0.500000 0.000000 0.401630 1.054441
C9    C     C_R   0.037263 0.460503 0.952809 0.208386
C10   C     C_R   0.962741 0.539486 0.047191 0.208441
C11   C     C_R   0.961435 0.538209 0.952780 0.208396
C12   C     C_R   0.038561 0.461774 0.047222 0.208439
C13   C     C_R   0.478179 0.950308 0.952817 0.207818
C14   C     C_R   0.521819 0.049694 0.047183 0.207822
C15   C     C_R   0.520131 0.050406 0.952774 0.207094
C16   C     C_R   0.479868 0.949596 0.047226 0.207098
C17   C     C_R   0.998610 0.498635 0.905065 -0.269590
C18   C     C_R   0.001391 0.501354 0.094936 -0.269601
C19   C     C_R   0.498199 0.000755 0.905064 -0.269760
C20   C     C_R   0.501800 0.999246 0.094936 -0.269762
C21   C     C_R   0.228398 0.727622 0.581285 -0.055166
C22   C     C_R   0.771674 0.272305 0.418716 -0.055169
C23   C     C_R   0.769782 0.274131 0.581294 -0.056928
C24   C     C_R   0.230147 0.725940 0.418700 -0.056929
C25   C     C_R   0.771238 0.727227 0.418670 -0.065209
C26   C     C_R   0.228769 0.272780 0.581330 -0.065211
C27   C     C_R   0.228332 0.272382 0.418695 -0.065256
C28   C     C_R   0.771659 0.727609 0.581305 -0.065253
C29   C     C_R   0.725763 0.230180 0.581274 -0.063033
C30   C     C_R   0.274166 0.769891 0.418719 -0.063024
C31   C     C_R   0.272413 0.771574 0.581309 -0.064741
C32   C     C_R   0.727659 0.228354 0.418691 -0.064732
C33   C     C_R   0.272330 0.228410 0.418688 -0.055874
C34   C     C_R   0.727661 0.771581 0.581312 -0.055875
C35   C     C_R   0.727237 0.771197 0.418683 -0.057813
C36   C     C_R   0.272771 0.228811 0.581317 -0.057814
C37   C     C_R   0.207563 0.705303 0.499978 0.038540
C38   C     C_R   0.792438 0.294696 0.500020 0.038541
C39   C     C_R   0.793085 0.705884 0.499983 0.039945
C40   C     C_R   0.206914 0.294115 0.500017 0.039945
C41   C     C_R   0.705219 0.207584 0.499976 0.039149
C42   C     C_R   0.294781 0.792416 0.500022 0.039149
C43   C     C_R   0.294100 0.206973 0.499998 0.039258
C44   C     C_R   0.705899 0.793026 0.500002 0.039257
C45   C     C_1   0.999495 0.499504 0.807005 0.329788
C46   C     C_1   0.000506 0.500492 0.192995 0.329723
C47   C     C_1   0.499343 0.000273 0.807005 0.328551
C48   C     C_1   0.500657 0.999727 0.192995 0.328551
N1    N     N_1   1.000000 0.500000 0.270550 -0.071693
N2    N     N_1   1.000000 0.500000 0.729450 -0.071682
N3    N     N_1   0.500000 0.000000 0.270550 -0.071714
N4    N     N_1   0.500000 1.000000 0.729450 -0.071714
C49   C     C_1   0.162539 0.661083 0.499952 -0.021307
C50   C     C_1   0.837461 0.338917 0.500047 -0.021306
C51   C     C_1   0.837877 0.661451 0.499975 -0.020338
C52   C     C_1   0.162122 0.338548 0.500025 -0.020337
C53   C     C_1   0.661017 0.162561 0.499971 -0.020001
C54   C     C_1   0.338983 0.837439 0.500028 -0.020000
C55   C     C_1   0.338535 0.162161 0.499989 -0.021377
C56   C     C_1   0.661464 0.837838 0.500011 -0.021378
C57   C     C_1   0.875124 0.375856 0.500036 -0.135415
C58   C     C_1   0.124876 0.624144 0.499964 -0.135419
C59   C     C_1   0.124665 0.375681 0.500020 -0.124373
C60   C     C_1   0.875335 0.624318 0.499980 -0.124383
C61   C     C_1   0.375888 0.875123 0.500025 -0.126118
C62   C     C_1   0.624112 0.124877 0.499975 -0.126119
C63   C     C_1   0.624341 0.875320 0.500013 -0.133796
C64   C     C_1   0.375658 0.124680 0.499987 -0.133795
N5    N     N_R   0.076270 0.420981 0.094560 0.243527
O17   O     O_R   0.075963 0.364622 0.074873 -0.299959
O18   O     O_R   0.110523 0.439805 0.158183 -0.355140
N6    N     N_R   0.923708 0.578989 0.905447 0.243495
O19   O     O_R   0.923981 0.635345 0.925153 -0.299935
O20   O     O_R   0.889462 0.560153 0.841824 -0.355153
N7    N     N_R   0.922893 0.578206 0.094493 0.243394
O21   O     O_R   0.866515 0.579382 0.074728 -0.296691
O22   O     O_R   0.942591 0.611916 0.158148 -0.357360
N8    N     N_R   0.077122 0.421788 0.905510 0.243385
O23   O     O_R   0.057453 0.388138 0.841765 -0.357440
O24   O     O_R   0.133483 0.420553 0.925376 -0.296624
N9    N     N_R   0.457066 0.898949 0.094557 0.243710
O25   O     O_R   0.405078 0.877124 0.074789 -0.298252
O26   O     O_R   0.487804 0.874833 0.158217 -0.352231
N10   N     N_R   0.542932 0.101053 0.905444 0.243707
O27   O     O_R   0.594917 0.122883 0.925218 -0.298255
O28   O     O_R   0.512197 0.125166 0.841779 -0.352235
N11   N     N_R   0.541910 0.101467 0.094477 0.243648
O29   O     O_R   0.520831 0.153763 0.074849 -0.293896
O30   O     O_R   0.580771 0.096531 0.157994 -0.356849
N12   N     N_R   0.458085 0.898535 0.905523 0.243644
O31   O     O_R   0.479159 0.846238 0.925154 -0.293895
O32   O     O_R   0.419225 0.903474 0.842005 -0.356859
C65   C     C_1   0.791805 0.298049 0.664468 0.218690
N13   N     N_1   0.809376 0.317128 0.730707 -0.132819
C66   C     C_1   0.208050 0.702096 0.335522 0.218690
N14   N     N_1   0.190420 0.683076 0.269281 -0.132831
C67   C     C_1   0.204516 0.705498 0.664445 0.214390
N15   N     N_1   0.185466 0.687847 0.730671 -0.141878
C68   C     C_1   0.795630 0.294356 0.335560 0.214392
N16   N     N_1   0.814739 0.311948 0.269336 -0.141874
C69   C     C_1   0.205103 0.295177 0.335510 0.218790
N17   N     N_1   0.186566 0.313366 0.269280 -0.078895
C70   C     C_1   0.794879 0.704805 0.664490 0.218787
N18   N     N_1   0.813409 0.686608 0.730720 -0.078910
C71   C     C_1   0.794032 0.704035 0.335476 0.218342
N19   N     N_1   0.812222 0.685529 0.269240 -0.079412
C72   C     C_1   0.205984 0.295981 0.664524 0.218343
N20   N     N_1   0.187801 0.314494 0.730759 -0.079407
C73   C     C_1   0.294571 0.795371 0.664493 0.219317
N21   N     N_1   0.312254 0.814350 0.730731 -0.085533
C74   C     C_1   0.705574 0.204484 0.335511 0.219335
N22   N     N_1   0.687950 0.185446 0.269276 -0.085606
C75   C     C_1   0.701730 0.208178 0.664425 0.216991
N23   N     N_1   0.682549 0.190624 0.730628 -0.094668
C76   C     C_1   0.298125 0.791966 0.335565 0.217010
N24   N     N_1   0.317248 0.809579 0.269359 -0.094746
C77   C     C_1   0.704001 0.793959 0.335500 0.219304
N25   N     N_1   0.685461 0.812117 0.269257 -0.125051
C78   C     C_1   0.296016 0.206057 0.664499 0.219301
N26   N     N_1   0.314563 0.187907 0.730742 -0.125044
C79   C     C_1   0.295117 0.205242 0.335494 0.215989
N27   N     N_1   0.313298 0.186763 0.269240 -0.135484
C80   C     C_1   0.704864 0.794739 0.664506 0.215987
N28   N     N_1   0.686676 0.813212 0.730760 -0.135483

loop_
_geom_bond_atom_site_label_1
_geom_bond_atom_site_label_2
_geom_bond_distance
_ccdc_geom_bond_type
C5    C63   1.399198 S    
N9    O25   1.301321 A    
C4    C58   1.399241 S    
O2    C2    1.272384 A    
N11   O30   1.301279 A    
N7    O21   1.301278 A    
C22   C38   1.406095 A    
C28   C70   1.452895 S    
N10   O28   1.301353 A    
C31   C73   1.452787 S    
C70   N18   1.157420 T    
C43   C55   1.417971 S    
O10   C6    1.272500 A    
C28   C34   1.397679 A    
C38   C50   1.418012 S    
C13   C19   1.416740 A    
O7    Zn2   1.973754 S    
C9    N8    1.438279 S    
O12   Zn4   1.973567 S    
C14   C20   1.416739 A    
C14   N11   1.438040 S    
C14   C15   1.425552 A    
C9    C12   1.425623 A    
C32   C41   1.406021 A    
C10   C11   1.425598 A    
C51   C60   1.185105 T    
C27   C69   1.452896 S    
C46   N1    1.170677 T    
C37   C49   1.418010 S    
C45   N2    1.170678 T    
N8    O23   1.301314 A    
C13   C16   1.425550 A    
O13   C7    1.272422 A    
O3    C2    1.272393 A    
C47   N4    1.170680 T    
O14   C8    1.272423 A    
N12   O31   1.301341 A    
C55   C64   1.185339 T    
C23   C38   1.406116 A    
C27   C40   1.406034 A    
C18   C46   1.480321 S    
C24   C66   1.452626 S    
C41   C53   1.417736 S    
C17   C45   1.480326 S    
C2    C60   1.398793 S    
N11   O29   1.301341 A    
O13   Zn4   1.973607 S    
C6    C64   1.399199 S    
O14   Zn3   1.973605 S    
N5    O18   1.301305 A    
C27   C33   1.397675 A    
Zn1   N2    1.978460 S    
O16   Zn3   1.973755 S    
C76   N24   1.157399 T    
C34   C80   1.452640 S    
N9    O26   1.301354 A    
O1    Zn1   1.973671 S    
O8    Zn1   1.973755 S    
C44   C56   1.417972 S    
C31   C42   1.406020 A    
C52   C59   1.185105 T    
N10   O27   1.301322 A    
O8    C3    1.272480 A    
C29   C41   1.406054 A    
C26   C72   1.452886 S    
C16   C20   1.416745 A    
C15   N10   1.438151 S    
C25   C71   1.452888 S    
C36   C78   1.452658 S    
C23   C29   1.397721 A    
O12   C5    1.272479 A    
C40   C52   1.417616 S    
C11   C17   1.416821 A    
C16   N9    1.438147 S    
C1    C59   1.398793 S    
C15   C19   1.416747 A    
C10   N7    1.438224 S    
C12   N5    1.438184 S    
O11   Zn3   1.973565 S    
C24   C37   1.406115 A    
C68   N16   1.157345 T    
C35   C44   1.406127 A    
N6    O20   1.301305 A    
C36   C43   1.406129 A    
O2    Zn2   1.973669 S    
C69   N17   1.157419 T    
O4    C1    1.272392 A    
C54   C61   1.185183 T    
O15   C8    1.272424 A    
C53   C62   1.185183 T    
O7    C4    1.272479 A    
O16   C7    1.272426 A    
N8    O24   1.301277 A    
C20   C48   1.480328 S    
C71   N19   1.157405 T    
C30   C42   1.406052 A    
O10   Zn4   1.973669 S    
Zn4   N3    1.978460 S    
C50   C57   1.185365 T    
C9    C17   1.416840 A    
C72   N20   1.157404 T    
C39   C51   1.417615 S    
C49   C58   1.185365 T    
O9    Zn3   1.973671 S    
C28   C39   1.406034 A    
C66   N14   1.157359 T    
C65   N13   1.157358 T    
C24   C30   1.397721 A    
C29   C75   1.452839 S    
C25   C39   1.406046 A    
C26   C40   1.406047 A    
C32   C74   1.452788 S    
C19   C47   1.480329 S    
C42   C54   1.417738 S    
O4    Zn2   1.973567 S    
C78   N26   1.157369 T    
N7    O22   1.301310 A    
O5    C3    1.272524 A    
C56   C63   1.185341 T    
O6    C4    1.272523 A    
C77   N25   1.157369 T    
O11   C6    1.272480 A    
O1    C1    1.272383 A    
C12   C18   1.416812 A    
C35   C77   1.452657 S    
C30   C76   1.452839 S    
C73   N21   1.157379 T    
C21   C37   1.406097 A    
C3    C57   1.399241 S    
C67   N15   1.157348 T    
C23   C65   1.452625 S    
C33   C43   1.406129 A    
O9    C5    1.272499 A    
O15   Zn4   1.973754 S    
C75   N23   1.157398 T    
C34   C44   1.406128 A    
C48   N3    1.170680 T    
N6    O19   1.301280 A    
C33   C79   1.452640 S    
C74   N22   1.157380 T    
C22   C68   1.452645 S    
N12   O32   1.301280 A    
O5    Zn2   1.973607 S    
O6    Zn1   1.973605 S    
O3    Zn1   1.973565 S    
C25   C35   1.397694 A    
C11   N6    1.438204 S    
C7    C61   1.398927 S    
C26   C36   1.397693 A    
Zn2   N1    1.978460 S    
C13   N12   1.438041 S    
C10   C18   1.416800 A    
C21   C67   1.452644 S    
N5    O17   1.301289 A    
C79   N27   1.157348 T    
C8    C62   1.398927 S    
C21   C31   1.397667 A    
Zn3   N4    1.978460 S    
C80   N28   1.157348 T    
C22   C32   1.397666 A    
