data_mof_unit_58357.cif
_audit_creation_date              2012-12-11T15:54:41-0500
_audit_creation_method            fapswitch 2.2
_symmetry_space_group_name_H-M    P1
_symmetry_Int_Tables_number       1
_space_group_crystal_system       triclinic
_cell_length_a                    6.931616
_cell_length_b                    14.462643
_cell_length_c                    16.167913
_cell_angle_alpha                 90.013615
_cell_angle_beta                  89.949777
_cell_angle_gamma                 90.052159
_cell_volume                      1620.8236544

loop_
_atom_site_label
_atom_site_type_symbol
_atom_type_description
_atom_site_fract_x
_atom_site_fract_y
_atom_site_fract_z
_atom_type_partial_charge
O1    O     O_R   0.638180 0.333920 0.163320 -0.543032
O2    O     O_R   0.361820 0.666080 0.836680 -0.543033
O3    O     O_R   0.308470 0.344960 0.336080 -0.546838
O4    O     O_R   0.691530 0.655040 0.663920 -0.546846
O5    O     O_R   0.138140 0.166110 0.336680 -0.536365
O6    O     O_R   0.861860 0.833890 0.663320 -0.536409
C1    C     C_R   0.477474 0.367136 0.365093 0.687713
C2    C     C_R   0.522526 0.632864 0.634907 0.687705
O7    O     O_R   0.308460 0.344950 0.163930 -0.545389
O8    O     O_R   0.691540 0.655050 0.836070 -0.545386
O9    O     O_R   0.138140 0.166100 0.163310 -0.539844
O10   O     O_R   0.861860 0.833900 0.836690 -0.539868
C3    C     C_R   0.477566 0.367222 0.134999 0.680057
C4    C     C_R   0.522434 0.632778 0.865001 0.680059
O11   O     O_R   0.638180 0.333930 0.336700 -0.543226
O12   O     O_R   0.361820 0.666070 0.663300 -0.543222
O13   O     O_3   0.471670 0.191340 0.250000 -0.363870
O14   O     O_3   0.528330 0.808660 0.750000 -0.363867
V1    V     V_3+5 0.196830 0.260900 0.250000 1.405383
V2    V     V_3+5 0.803170 0.739100 0.750000 1.405335
O15   O     O_R   0.808420 0.155070 0.163920 -0.540085
O16   O     O_R   0.191580 0.844930 0.836080 -0.540045
C5    C     C_R   0.977326 0.133882 0.134131 0.714770
C6    C     C_R   0.022674 0.866118 0.865869 0.714744
O17   O     O_R   0.808420 0.155080 0.336070 -0.530219
O18   O     O_R   0.191580 0.844920 0.663930 -0.530160
C7    C     C_R   0.977532 0.130654 0.362686 0.796748
C8    C     C_R   0.022466 0.869346 0.637313 0.796711
V3    V     V_3+5 0.696830 0.239130 0.250000 1.418780
V4    V     V_3+5 0.303170 0.760870 0.750000 1.418834
O19   O     O_3   0.971850 0.308690 0.250010 -0.378306
O20   O     O_3   0.028150 0.691310 0.749990 -0.378305
H1    H     H_    0.895213 0.801565 0.266427 0.118020
H2    H     H_    0.104512 0.198458 0.733583 0.118018
C9    C     C_R   0.040392 0.192877 0.526942 -0.143325
C10   C     C_R   0.959247 0.807141 0.473073 -0.143364
C11   C     C_R   0.071680 0.228317 0.605397 -0.150828
C12   C     C_R   0.927848 0.771707 0.394623 -0.150860
C13   C     C_R   0.081955 0.169459 0.672560 -0.155838
C14   C     C_R   0.917801 0.830558 0.327449 -0.155826
C15   C     C_R   0.061595 0.073749 0.662599 0.193383
C16   C     C_R   0.938436 0.926256 0.337398 0.193397
C17   C     C_R   0.032404 0.034650 0.582070 0.074845
C18   C     C_R   0.967586 0.965354 0.417929 0.074847
C19   C     C_R   0.020788 0.096436 0.513161 0.006772
C20   C     C_R   0.979091 0.903572 0.486843 0.006783
C21   C     C_R   0.012007 0.937461 0.568183 -0.173217
C22   C     C_R   0.987981 0.062542 0.431814 -0.173210
H3    H     H_    0.031170 0.242812 0.477317 0.102648
H4    H     H_    0.968328 0.757207 0.522702 0.102705
H5    H     H_    0.086612 0.302212 0.614208 0.125118
H6    H     H_    0.912686 0.697823 0.385820 0.125139
C23   C     C_R   0.179344 0.975555 0.966926 -0.162999
C24   C     C_R   0.820657 0.024444 0.033074 -0.163028
H7    H     H_    0.319977 0.957929 0.942393 0.116049
H8    H     H_    0.680024 0.042071 0.057606 0.116042
C25   C     C_R   0.168065 0.039896 0.031509 -0.156500
C26   C     C_R   0.831936 0.960104 0.968491 -0.156507
H9    H     H_    0.300618 0.069845 0.054709 0.118266
H10   H     H_    0.699382 0.930155 0.945291 0.118270
C27   C     C_R   0.988558 0.065260 0.065503 -0.053624
C28   C     C_R   0.011443 0.934739 0.934497 -0.053654
C29   C     C_R   0.320290 0.473330 0.468716 -0.161006
C30   C     C_R   0.679711 0.526671 0.531283 -0.161051
H11   H     H_    0.179354 0.453721 0.445784 0.111967
H12   H     H_    0.820647 0.546281 0.554215 0.111969
C31   C     C_R   0.331494 0.537064 0.533774 -0.152863
C32   C     C_R   0.668507 0.462937 0.466225 -0.152890
H13   H     H_    0.198596 0.564812 0.558732 0.114167
H14   H     H_    0.801405 0.435189 0.441267 0.114167
C33   C     C_R   0.511359 0.564558 0.566054 -0.041060
C34   C     C_R   0.488641 0.435443 0.433945 -0.041058
C35   C     C_R   0.320546 0.474663 0.032485 -0.158370
C36   C     C_R   0.679454 0.525336 0.967515 -0.158370
H15   H     H_    0.179768 0.456184 0.056417 0.115771
H16   H     H_    0.820232 0.543816 0.943583 0.115772
C37   C     C_R   0.331625 0.538210 0.967278 -0.153904
C38   C     C_R   0.668375 0.461790 0.032722 -0.153904
H17   H     H_    0.198842 0.566876 0.943170 0.117410
H18   H     H_    0.801158 0.433124 0.056830 0.117410
C39   C     C_R   0.511236 0.564438 0.933836 -0.045142
C40   C     C_R   0.488764 0.435562 0.066164 -0.045141
N1    N     N_3   0.067935 0.018228 0.735653 -0.683661
H19   H     H_    0.958232 0.040486 0.775377 0.216423
H20   H     H_    0.200213 0.029687 0.765020 0.225296
N2    N     N_3   0.932445 0.981764 0.264329 -0.683741
H21   H     H_    0.042185 0.959422 0.224661 0.216487
H22   H     H_    0.800205 0.970392 0.234906 0.225279

loop_
_geom_bond_atom_site_label_1
_geom_bond_atom_site_label_2
_ccdc_geom_bond_type
C7    C22   S    
C26   C28   A    
V4    O20   S    
C29   H11   S    
C8    C21   S    
O13   V3    S    
O4    C2    A    
V1    O19   S    
C13   C15   A    
O9    V1    S    
C36   H16   S    
C30   C32   A    
C9    C11   A    
O3    C1    A    
C24   C26   A    
C11   H5    S    
C38   H18   S    
C25   H9    S    
C12   H6    S    
C26   H10   S    
C15   N1    S    
C30   C33   A    
O7    C3    A    
O5    C7    A    
O7    V1    S    
O6    C8    A    
O8    V2    S    
C9    H3    S    
O3    V1    S    
C16   N2    S    
C31   C33   A    
C14   C16   A    
C2    O12   A    
V3    O19   S    
C15   C17   A    
C16   C18   A    
C18   C20   A    
O11   V3    S    
C24   H8    S    
C23   H7    S    
O17   V3    S    
C29   C31   A    
H1    C14   S    
N2    H22   S    
H2    C13   S    
O8    C4    A    
C1    C34   S    
C23   C25   A    
N2    H21   S    
C1    O11   A    
O15   V3    S    
C3    C40   S    
C31   H13   S    
C30   H12   S    
C23   C28   A    
C38   C40   A    
N1    H19   S    
C37   C39   A    
C32   C34   A    
O10   V2    S    
O1    V3    S    
C37   H17   S    
C10   C20   A    
C17   C19   A    
O14   V4    S    
N1    H20   S    
O18   V4    S    
O15   C5    A    
O16   C6    A    
O1    C3    A    
C35   H15   S    
C36   C39   A    
C9    C19   A    
C35   C40   A    
C10   H4    S    
V2    O20   S    
C19   C22   A    
C20   C21   A    
C2    C33   S    
C6    C28   S    
O16   V4    S    
C25   C27   A    
O5    V1    S    
C24   C27   A    
O17   C7    A    
O6    V2    S    
O10   C6    A    
O18   C8    A    
O2    V4    S    
C10   C12   A    
C11   C13   A    
C12   C14   A    
C17   C21   A    
O9    C5    A    
O13   V1    S    
O14   V2    S    
O2    C4    A    
O4    V2    S    
C5    C27   S    
C29   C34   A    
C32   H14   S    
C36   C38   A    
C35   C37   A    
C4    C39   S    
O12   V4    S    
C18   C22   A    
