data_mof_unit_63981.cif
_audit_creation_date              2013-03-05T16:26:17-0500
_audit_creation_method            fapswitch 2.2
_symmetry_space_group_name_H-M    P1
_symmetry_Int_Tables_number       1
_space_group_crystal_system       triclinic
_cell_length_a                    19.193408
_cell_length_b                    18.325966
_cell_length_c                    23.468198
_cell_angle_alpha                 90.235479
_cell_angle_beta                  90.034466
_cell_angle_gamma                 90.322455
_cell_volume                      8254.44893325

loop_
_atom_site_label
_atom_site_type_symbol
_atom_site_description
_atom_site_fract_x
_atom_site_fract_y
_atom_site_fract_z
_atom_type_partial_charge
O1    O     O_R   0.398130 0.560830 0.500010 -0.619802
O2    O     O_R   0.601870 0.439170 0.499990 -0.607807
O3    O     O_R   0.601870 0.560830 0.499990 -0.620699
O4    O     O_R   0.398130 0.439170 0.500010 -0.588365
C1    C     C_R   0.365653 0.499818 0.498656 1.023056
C2    C     C_R   0.634536 0.500280 0.500140 1.001772
O5    O     O_R   0.499970 0.560830 0.416150 -0.606103
O6    O     O_R   0.500030 0.439170 0.583850 -0.640917
O7    O     O_R   0.500030 0.560830 0.583850 -0.567785
O8    O     O_R   0.499970 0.439170 0.416150 -0.600403
C3    C     C_R   0.497920 0.499822 0.389179 1.024187
C4    C     C_R   0.500880 0.500193 0.611083 1.025474
Zn1   Zn    Zn3+2 0.500000 0.581210 0.500000 1.063998
Zn2   Zn    Zn3+2 0.500000 0.418790 0.500000 1.038953
C5    C     C_R   0.562769 0.508152 0.882192 0.586883
C6    C     C_R   0.436448 0.476269 0.118696 0.588843
N1    N     N_R   0.503233 0.490660 0.853096 -0.336227
N2    N     N_R   0.496224 0.492869 0.147776 -0.336401
C7    C     C_R   0.442170 0.474273 0.880220 0.588118
C8    C     C_R   0.557010 0.510305 0.120628 0.584499
C9    C     C_R   0.439433 0.474371 0.939669 -0.031620
C10   C     C_R   0.559705 0.510305 0.061188 -0.027992
C11   C     C_R   0.500308 0.491989 0.970514 -0.008064
C12   C     C_R   0.498839 0.492631 0.030353 -0.007259
C13   C     C_R   0.562621 0.509092 0.941665 -0.031766
C14   C     C_R   0.436500 0.475648 0.059210 -0.032736
C15   C     C_R   0.377585 0.457610 0.968809 -0.116328
C16   C     C_R   0.621489 0.527320 0.032052 -0.117743
C17   C     C_R   0.376130 0.458244 0.028109 -0.119027
C18   C     C_R   0.622939 0.526704 0.972760 -0.119671
O9    O     O_2   0.621762 0.524232 0.853464 -0.507320
O10   O     O_2   0.377548 0.459870 0.147440 -0.501767
O11   O     O_2   0.384499 0.458231 0.849591 -0.504375
O12   O     O_2   0.614425 0.527432 0.151234 -0.514051
H1    H     H_    0.330210 0.443957 0.945940 0.205110
H2    H     H_    0.668845 0.541055 0.054918 0.204434
H3    H     H_    0.327680 0.445012 0.049441 0.204842
H4    H     H_    0.671366 0.540034 0.951429 0.204541
C19   C     C_R   0.523534 0.434244 0.239262 0.356202
C20   C     C_R   0.507499 0.426919 0.760517 0.367813
C21   C     C_R   0.523404 0.438314 0.298587 -0.233427
C22   C     C_R   0.506029 0.431645 0.701202 -0.280242
H5    H     H_    0.545847 0.394045 0.322783 0.238454
H6    H     H_    0.508413 0.381729 0.676440 0.214756
C23   C     C_R   0.494705 0.498544 0.327055 -0.205000
C24   C     C_R   0.502779 0.499572 0.673641 -0.178943
C25   C     C_R   0.464242 0.555764 0.295688 0.314413
C26   C     C_R   0.500565 0.564339 0.706545 0.341970
C27   C     C_R   0.465941 0.552550 0.236426 -0.185270
C28   C     C_R   0.500547 0.559567 0.765613 -0.187715
H7    H     H_    0.443304 0.596159 0.211606 0.196799
H8    H     H_    0.498290 0.608930 0.791125 0.189428
C29   C     C_R   0.494951 0.492646 0.208376 0.131097
C30   C     C_R   0.504352 0.491975 0.792510 0.134800
C31   C     C_R   0.253890 0.524432 0.545906 0.259721
C32   C     C_R   0.746928 0.462994 0.457359 0.268059
C33   C     C_R   0.745840 0.546300 0.539533 0.259161
C34   C     C_R   0.255208 0.485935 0.445455 0.269038
C35   C     C_R   0.182251 0.534684 0.542092 -0.182459
C36   C     C_R   0.819174 0.469395 0.455278 -0.183445
C37   C     C_R   0.817874 0.553231 0.535426 -0.183133
C38   C     C_R   0.183438 0.496211 0.443161 -0.178835
C39   C     C_R   0.146793 0.519923 0.491209 -0.045408
C40   C     C_R   0.854684 0.515100 0.493524 -0.044662
C41   C     C_R   0.290457 0.500062 0.497306 -0.268346
C42   C     C_R   0.710038 0.501883 0.499653 -0.283922
N3    N     N_R   0.034998 0.493630 0.445747 -0.148431
N4    N     N_R   0.966373 0.553539 0.533882 -0.149023
N5    N     N_R   0.965916 0.491997 0.446458 -0.147908
N6    N     N_R   0.035460 0.555061 0.533219 -0.147946
C43   C     C_R   0.930435 0.521245 0.490830 0.346243
C44   C     C_R   0.070971 0.524581 0.489370 0.346874
C45   C     C_R   0.454340 0.272962 0.466273 0.058065
C46   C     C_R   0.551681 0.726894 0.527450 0.099674
C47   C     C_R   0.545804 0.274047 0.533744 0.057168
C48   C     C_R   0.448560 0.726180 0.472400 0.077516
C49   C     C_R   0.453475 0.196223 0.465738 -0.224680
C50   C     C_R   0.552657 0.803641 0.528161 -0.207697
C51   C     C_R   0.546875 0.197308 0.534344 -0.213821
C52   C     C_R   0.447751 0.802900 0.471799 -0.212819
H9    H     H_    0.416533 0.168037 0.438463 0.177200
H10   H     H_    0.594398 0.831692 0.550427 0.183083
H11   H     H_    0.583893 0.169969 0.561628 0.174333
H12   H     H_    0.406127 0.830359 0.449487 0.180097
C53   C     C_R   0.500216 0.156894 0.500060 0.070822
C54   C     C_R   0.500222 0.843143 0.500030 0.055187
N7    N     N_R   0.500000 0.310560 0.500000 -0.108631
N8    N     N_R   0.500000 0.689440 0.500000 -0.120913
N9    N     N_R   0.548355 0.036931 0.530458 -0.147142
N10   N     N_R   0.452133 0.963109 0.469727 -0.147903
N11   N     N_R   0.452173 0.036047 0.469692 -0.149135
N12   N     N_R   0.548397 0.963982 0.530406 -0.145352
C55   C     C_R   0.500262 0.925196 0.500059 0.329145
C56   C     C_R   0.500259 0.074838 0.500076 0.323941
N13   N     N_R   0.552844 0.371259 0.211335 0.233443
O13   O     O_R   0.531448 0.350809 0.161105 -0.344713
O14   O     O_R   0.597531 0.330485 0.237940 -0.305484
N14   N     N_R   0.512116 0.356388 0.787271 0.233079
O15   O     O_R   0.539328 0.349328 0.837724 -0.343460
O16   O     O_R   0.493667 0.297764 0.759495 -0.335957
N15   N     N_R   0.428888 0.615383 0.322846 0.221434
O17   O     O_R   0.382050 0.602487 0.361625 -0.368782
O18   O     O_R   0.434044 0.680839 0.301927 -0.361491
N16   N     N_R   0.499081 0.635240 0.681255 0.225240
O19   O     O_R   0.555505 0.661594 0.658373 -0.324995
O20   O     O_R   0.447974 0.679133 0.692953 -0.323049
N17   N     N_R   0.288535 0.538308 0.599347 0.219741
O21   O     O_R   0.338071 0.495650 0.616741 -0.395921
O22   O     O_R   0.264926 0.587931 0.634029 -0.321440
N18   N     N_R   0.711947 0.419654 0.414772 0.225198
O23   O     O_R   0.658806 0.445931 0.387425 -0.402051
O24   O     O_R   0.739869 0.359304 0.396695 -0.330484
N19   N     N_R   0.710124 0.582978 0.585204 0.219379
O25   O     O_R   0.732414 0.646037 0.603533 -0.343472
O26   O     O_R   0.661894 0.549135 0.613889 -0.386638
N20   N     N_R   0.291192 0.463615 0.394460 0.221427
O27   O     O_R   0.340882 0.415793 0.396636 -0.403894
O28   O     O_R   0.268035 0.483441 0.344768 -0.312260
H13   H     H_    0.153963 0.552043 0.579647 0.205992
H14   H     H_    0.847401 0.439698 0.422739 0.205233
H15   H     H_    0.845224 0.587555 0.565850 0.205566
H16   H     H_    0.156095 0.484864 0.403690 0.204885
H17   H     H_    0.418364 0.302519 0.439600 0.179450
H18   H     H_    0.592481 0.697217 0.548907 0.192323
H19   H     H_    0.581748 0.304516 0.560369 0.140064
H20   H     H_    0.407844 0.695993 0.450709 0.182306

loop_
_geom_bond_atom_site_label_1
_geom_bond_atom_site_label_2
_geom_bond_distance
_ccdc_geom_bond_type
C34   C38   1.392431 A    
O5    Zn1   2.001429 S    
C46   H18   1.081275 S    
N15   O17   1.301006 A    
C25   N15   1.436502 S    
C31   C35   1.391698 A    
C15   C17   1.391963 A    
C48   H20   1.080828 S    
N13   O13   1.301047 A    
C51   C53   1.408777 A    
C33   C42   1.413285 A    
C52   H12   1.082522 S    
O3    C2    1.277601 A    
C27   H7    1.083572 S    
N16   O20   1.300773 A    
C25   C27   1.392203 A    
O5    C3    1.282897 A    
C28   C30   1.394823 A    
O1    C1    1.277321 A    
C35   H13   1.083059 S    
C7    C9    1.396185 A    
C12   C14   1.409136 A    
Zn2   N7    1.983417 S    
C20   N14   1.442451 S    
C32   C42   1.412479 A    
C5    C13   1.395774 A    
C26   N16   1.431112 S    
N20   O27   1.299984 A    
C18   H4    1.083151 S    
C37   H15   1.083125 S    
N3    C44   1.355163 A    
C22   C24   1.406865 A    
C40   C43   1.459081 S    
N9    C56   1.361473 A    
N5    C43   1.354921 A    
O7    Zn1   2.004444 S    
N18   O23   1.300538 A    
C45   N7    1.362780 A    
C52   C54   1.408506 A    
N2    C29   1.422436 S    
C45   C49   1.406320 A    
C45   H17   1.080967 S    
C28   H8    1.083841 S    
N17   O21   1.300856 A    
C48   N8    1.363067 A    
O3    Zn1   1.992648 S    
C8    O12   1.349860 S    
C50   C54   1.408566 A    
C26   C28   1.389322 A    
C9    C15   1.403474 A    
C49   C53   1.408655 A    
N15   O18   1.301244 A    
C10   C16   1.403412 A    
C34   N20   1.441075 S    
N17   O22   1.301468 A    
O2    C2    1.280365 A    
C22   H6    1.082927 S    
C32   N18   1.437777 S    
N16   O19   1.300521 A    
C31   C41   1.411798 A    
C23   C25   1.412805 A    
C6    C14   1.396023 A    
C24   C26   1.414194 A    
C16   H2    1.083151 S    
C1    C41   1.443634 S    
C7    O11   1.349822 S    
C33   N19   1.438983 S    
C15   H1    1.083147 S    
C32   C36   1.391838 A    
C20   C30   1.407922 A    
C31   N17   1.440230 S    
N3    N5    1.326199 A    
C37   C40   1.398291 A    
C38   C39   1.398334 A    
C54   C55   1.503710 S    
C53   C56   1.503755 S    
C50   H10   1.082519 S    
C34   C41   1.414186 A    
C49   H9    1.082540 S    
O6    C4    1.285793 A    
C6    N2    1.366752 A    
N9    N12   1.336854 A    
C33   C37   1.391126 A    
C19   N13   1.442186 S    
C4    C24   1.468642 S    
C8    C10   1.395937 A    
N14   O16   1.301617 A    
C9    C11   1.409326 A    
O8    Zn2   2.004446 S    
C10   C12   1.409290 A    
C3    C23   1.459297 S    
O1    Zn1   1.988521 S    
C38   H16   1.083190 S    
N10   C55   1.361351 A    
N19   O25   1.301402 A    
C47   N7    1.363042 A    
C13   C18   1.403497 A    
C5    N1    1.366704 A    
O6    Zn2   2.001426 S    
C21   H5    1.083327 S    
C48   C52   1.406274 A    
O4    C1    1.277849 A    
N13   O14   1.301622 A    
C5    O9    1.349899 S    
C6    O10   1.349861 S    
C35   C39   1.398786 A    
C36   C40   1.399415 A    
C46   N8    1.363080 A    
C16   C18   1.391779 A    
N11   C56   1.361362 A    
C51   H11   1.082535 S    
N10   N11   1.336652 A    
C19   C29   1.408659 A    
N4    C43   1.355180 A    
C27   C29   1.396396 A    
Zn1   N8    1.983417 S    
C20   C22   1.395335 A    
N12   C55   1.361472 A    
N1    C7    1.366554 A    
N20   O28   1.301616 A    
C36   H14   1.083162 S    
N2    C8    1.366571 A    
C11   C13   1.409096 A    
O4    Zn2   1.992649 S    
O2    Zn2   1.988519 S    
O7    C4    1.284365 A    
N18   O24   1.301313 A    
O8    C3    1.282148 A    
C11   C12   1.404611 A    
C2    C42   1.449326 S    
C39   C44   1.458890 S    
C19   C21   1.393938 A    
C14   C17   1.403553 A    
N4    N6    1.326242 A    
N14   O15   1.301053 A    
C46   C50   1.406511 A    
C17   H3    1.083147 S    
C21   C23   1.403320 A    
N6    C44   1.354979 A    
C47   H19   1.081860 S    
C47   C51   1.406707 A    
N1    C30   1.422334 S    
N19   O26   1.300954 A    
