data_mof_unit_61501.cif
_audit_creation_date              2012-12-10T16:42:41-0500
_audit_creation_method            fapswitch 2.2
_symmetry_space_group_name_H-M    P1
_symmetry_Int_Tables_number       1
_space_group_crystal_system       triclinic
_cell_length_a                    19.095543
_cell_length_b                    18.677898
_cell_length_c                    19.134529
_cell_angle_alpha                 108.974093
_cell_angle_beta                  110.19297
_cell_angle_gamma                 109.032464
_cell_volume                      5266.85346241

loop_
_atom_site_label
_atom_site_type_symbol
_atom_type_description
_atom_site_fract_x
_atom_site_fract_y
_atom_site_fract_z
_atom_type_partial_charge
C1    C     C_R   0.384468 0.381739 0.501216 0.872916
C2    C     C_R   0.758169 0.580140 0.752221 0.077193
C3    C     C_R   0.813437 0.500381 0.811661 -0.169036
C4    C     C_R   0.744854 0.420080 0.738765 0.072269
C5    C     C_R   0.676681 0.419729 0.678248 0.066096
C6    C     C_R   0.685185 0.499849 0.683578 -0.172556
C7    C     C_R   0.742222 0.339570 0.724683 -0.089192
C8    C     C_R   0.669797 0.260848 0.657931 -0.135723
C9    C     C_R   0.598744 0.260415 0.604037 -0.136740
C10   C     C_R   0.601707 0.338745 0.613787 -0.135006
C11   C     C_2   0.255909 0.252054 0.573752 0.644548
C12   C     C_R   0.618012 0.499809 0.617673 0.783494
C13   C     C_2   0.180459 0.189905 0.502703 -0.432762
C14   C     C_2   0.316281 0.324205 0.572572 -0.220232
C15   C     C_2   0.323003 0.312253 0.502734 -0.411392
C16   C     C_2   0.173193 0.425080 0.184112 -0.117299
C17   C     C_2   0.183741 0.494610 0.173647 -0.220480
C18   C     C_2   0.247290 0.425631 0.244288 -0.284541
C19   C     C_2   0.308369 0.497402 0.319947 0.462286
C20   C     C_2   0.737733 0.756895 0.429429 -0.186974
C21   C     C_2   0.822873 0.794336 0.482794 -0.053516
C22   C     C_2   0.674509 0.681707 0.424426 -0.160518
C23   C     C_R   0.614098 0.618288 0.497684 0.846186
C24   C     C_2   0.674092 0.688597 0.496022 -0.340085
C25   C     C_R   0.999428 0.381867 0.883234 0.912111
C26   C     C_R   0.879213 0.500294 0.878798 0.815597
C27   C     C_R   0.999420 0.617869 0.116533 0.831437
C28   C     C_R   0.114980 0.497638 0.112671 0.784299
C29   C     C_R   0.003363 0.121325 0.616009 0.890710
C30   C     C_R   0.116939 0.119449 0.501406 0.891450
C31   C     C_R   0.002720 0.884498 0.383230 0.835440
C32   C     C_R   0.883509 0.876755 0.495014 0.805749
C33   C     C_2   0.957036 0.222968 0.670990 -0.222671
C34   C     C_R   0.379624 0.498331 0.382400 0.743753
C35   C     C_2   0.017272 0.199752 0.680826 -0.390217
C36   C     C_2   0.969692 0.297708 0.741485 0.582444
C37   C     C_2   0.000818 0.311759 0.822768 -0.165119
C38   C     C_2   0.072701 0.807826 0.330936 -0.167343
C39   C     C_2   0.007940 0.825377 0.315546 -0.357386
C40   C     C_2   0.078301 0.751490 0.259515 0.117083
C41   C     C_2   0.004358 0.683016 0.188854 -0.358266
C42   C     C_R   0.772389 0.660520 0.754881 -0.184622
C43   C     C_R   0.839075 0.739383 0.827052 -0.147955
C44   C     C_R   0.893746 0.740814 0.899309 0.150834
C45   C     C_R   0.882915 0.661383 0.895207 -0.196562
C46   C     C_R   0.818643 0.580510 0.820203 0.051125
Cu1   Cu    Cu3+1 0.500390 0.438990 0.439360 0.947576
Cu2   Cu    Cu3+1 0.499610 0.561010 0.560640 0.986280
Cu3   Cu    Cu3+1 0.935830 0.439030 0.996840 0.947268
Cu4   Cu    Cu3+1 0.057850 0.561040 0.996790 0.967178
Cu5   Cu    Cu3+1 0.061410 0.000010 0.561410 0.984519
Cu6   Cu    Cu3+1 0.938590 0.999990 0.438590 0.957377
H1    H     H_    0.541502 0.199181 0.553703 0.138056
H2    H     H_    0.161102 0.194719 0.444692 0.115525
H3    H     H_    0.358763 0.386545 0.631296 0.191790
H4    H     H_    0.287190 0.247783 0.446951 0.152762
H5    H     H_    0.111346 0.365777 0.144930 0.152555
H6    H     H_    0.247781 0.549668 0.205750 0.195677
H7    H     H_    0.249069 0.365098 0.228084 0.124998
H8    H     H_    0.713092 0.784505 0.391532 0.163846
H9    H     H_    0.626298 0.623958 0.362691 0.169958
H10   H     H_    0.732913 0.663826 0.701093 0.151115
H11   H     H_    0.717231 0.750446 0.555437 0.156017
H12   H     H_    0.897106 0.186880 0.610440 0.188148
H13   H     H_    0.079686 0.239616 0.738444 0.165100
H14   H     H_    0.123426 0.837826 0.396511 0.168018
H15   H     H_    0.959786 0.800829 0.250115 0.157709
H16   H     H_    0.944045 0.667200 0.188228 0.146059
H17   H     H_    0.846161 0.798645 0.825675 0.124135
H18   H     H_    0.925184 0.664223 0.952133 0.142737
H19   H     H_    0.795925 0.336124 0.764220 0.166285
H20   H     H_    0.668399 0.199973 0.648818 0.137214
H21   H     H_    0.544299 0.334521 0.570600 0.148267
O1    O     O_R   0.411310 0.359450 0.448800 -0.597234
O2    O     O_R   0.048900 0.462510 0.908320 -0.554766
O3    O     O_R   0.855710 0.448510 0.907250 -0.594960
O4    O     O_R   0.958760 0.551540 0.907200 -0.570783
O5    O     O_R   0.944780 0.537560 0.085320 -0.572240
O6    O     O_R   0.047820 0.640590 0.085270 -0.602842
O7    O     O_R   0.034920 0.448530 0.086440 -0.582960
O8    O     O_R   0.137970 0.551560 0.086390 -0.596183
O9    O     O_R   0.051300 0.089020 0.640330 -0.576890
O10   O     O_R   0.947570 0.089010 0.536620 -0.580757
O11   O     O_R   0.140880 0.089030 0.551840 -0.526605
O12   O     O_R   0.410660 0.462490 0.551220 -0.574502
O13   O     O_R   0.037150 0.089020 0.448130 -0.597916
O14   O     O_R   0.052430 0.910990 0.463380 -0.596991
O15   O     O_R   0.948700 0.910980 0.359670 -0.589623
O16   O     O_R   0.962850 0.910980 0.551870 -0.594095
O17   O     O_R   0.859120 0.910970 0.448160 -0.594079
O18   O     O_R   0.589930 0.448490 0.538390 -0.586088
O19   O     O_R   0.589280 0.551530 0.640800 -0.588939
O20   O     O_R   0.589340 0.537510 0.448780 -0.574481
O21   O     O_R   0.588690 0.640550 0.551200 -0.590681
O22   O     O_R   0.410720 0.448470 0.359200 -0.621228
O23   O     O_R   0.410070 0.551510 0.461610 -0.531859
O24   O     O_R   0.945860 0.359480 0.908360 -0.619149
F1    F     F_    0.299020 0.569034 0.346708 -0.659195
C47   C     C_3   0.861862 0.749444 0.525290 -0.374533
C48   C     C_3   0.904463 0.711685 0.480371 -0.346240
C49   C     C_3   0.944153 0.667438 0.522576 -0.816430
H22   H     H_    0.994064 0.715031 0.590699 0.255539
H23   H     H_    0.894029 0.612846 0.519030 0.258139
H24   H     H_    0.974508 0.641040 0.488862 0.249023
H25   H     H_    0.855575 0.663031 0.412103 0.222802
H26   H     H_    0.955664 0.763811 0.482422 0.236360
H27   H     H_    0.909797 0.797210 0.593994 0.200007
H28   H     H_    0.814523 0.695277 0.524319 0.220023
F2    F     F_    0.938790 0.348265 0.720030 -0.668288
C50   C     C_3   0.025023 0.250530 0.850128 -0.513967
C51   C     C_3   0.027438 0.256862 0.933248 -0.308003
C52   C     C_3   0.057291 0.197382 0.957157 -0.857845
H29   H     H_    0.013115 0.128505 0.905426 0.255909
H30   H     H_    0.123250 0.216462 0.968097 0.260848
H31   H     H_    0.057839 0.203004 0.016957 0.235598
H32   H     H_    0.072559 0.324777 0.986724 0.209403
H33   H     H_    0.962305 0.237101 0.924932 0.239903
H34   H     H_    0.978536 0.181871 0.798587 0.226132
H35   H     H_    0.090292 0.266240 0.860664 0.221423
C53   C     C_3   0.164995 0.767213 0.267541 -0.339916
C54   C     C_3   0.243508 0.841310 0.354562 -0.386107
C55   C     C_3   0.326839 0.854454 0.354870 -0.806209
H36   H     H_    0.331157 0.794040 0.341919 0.271362
H37   H     H_    0.330041 0.872127 0.305514 0.246638
H38   H     H_    0.382420 0.907947 0.418537 0.243258
H39   H     H_    0.241648 0.903097 0.368807 0.223689
H40   H     H_    0.243361 0.825445 0.405704 0.230282
H41   H     H_    0.168182 0.706258 0.255656 0.206612
H42   H     H_    0.169272 0.782854 0.217356 0.212110
C56   C     C_3   0.965294 0.824156 0.981746 -0.413496
C57   C     C_3   0.974059 0.909041 0.982024 -0.358544
C58   C     C_3   0.047092 0.988536 0.067880 -0.831468
H43   H     H_    0.034803 0.987429 0.120295 0.254285
H44   H     H_    0.109002 0.989748 0.081166 0.253831
H45   H     H_    0.052000 0.048768 0.066127 0.240994
H46   H     H_    0.987661 0.913060 0.931004 0.218418
H47   H     H_    0.913435 0.910528 0.970164 0.221005
H48   H     H_    0.954168 0.822643 0.034734 0.198237
H49   H     H_    0.026954 0.824597 0.994958 0.201979
F3    F     F_    0.275409 0.253507 0.649814 -0.644711

loop_
_geom_bond_atom_site_label_1
_geom_bond_atom_site_label_2
_ccdc_geom_bond_type
C38   C40   S    
C49   H22   S    
C12   O18   A    
Cu6   O17   S    
C51   C52   S    
C11   F3    S    
C27   O5    A    
Cu4   O6    S    
C50   H34   S    
C52   H30   S    
C7    C8    A    
C45   C46   A    
C2    C46   A    
C47   H28   S    
C48   H25   S    
Cu2   O21   S    
C1    O1    A    
C36   C37   D    
C34   O23   A    
C29   O10   A    
C27   O6    A    
C58   H45   S    
C6    C12   S    
C5    C6    A    
C21   C47   S    
C11   C14   S    
C35   H13   S    
C44   C56   S    
C33   C36   S    
Cu5   Cu6   S    
Cu3   O5    S    
C18   C19   D    
C50   C51   S    
C25   C37   S    
C32   O17   A    
Cu1   Cu2   S    
C8    C9    A    
C26   O3    A    
C23   C24   S    
C51   H32   S    
C1    C15   S    
C20   H8    S    
Cu2   O23   S    
C9    C10   A    
C42   H10   S    
C17   H6    S    
C14   H3    S    
C28   O8    A    
C49   H23   S    
C2    C6    A    
Cu1   O18   S    
C4    C7    A    
C56   H49   S    
C52   H29   S    
C19   F1    S    
C41   H16   S    
C1    O12   A    
C21   C32   S    
C8    H20   S    
C26   O4    A    
C31   O14   A    
C53   H42   S    
C38   H14   S    
C13   C30   S    
Cu6   O15   S    
C34   O22   A    
C57   H46   S    
Cu5   O14   S    
C16   C17   D    
C23   O20   A    
C54   H39   S    
C25   O2    A    
Cu6   O10   S    
C43   C44   A    
C57   H47   S    
C27   C41   S    
C47   C48   S    
C37   C50   S    
Cu3   O3    S    
C16   C18   S    
Cu5   O9    S    
C54   C55   S    
C25   O24   A    
C40   C41   D    
C40   C53   S    
C20   C22   S    
C24   H11   S    
C32   O16   A    
C22   C24   D    
C30   O13   A    
C42   C43   A    
C55   H37   S    
C57   C58   S    
C56   H48   S    
Cu4   O4    S    
C53   C54   S    
C13   H2    S    
C31   O15   A    
Cu1   O20   S    
C45   H18   S    
C14   C15   D    
C17   C28   S    
C39   H15   S    
C12   O19   A    
C3    C26   S    
C44   C45   A    
Cu1   O1    S    
C4    C5    A    
C19   C34   S    
C50   H35   S    
C53   H41   S    
C54   H40   S    
C49   H24   S    
C47   H27   S    
C29   C35   S    
C3    C46   A    
C48   H26   S    
Cu3   O7    S    
C51   H33   S    
C15   H4    S    
C55   H38   S    
Cu6   O13   S    
C56   C57   S    
C5    C10   A    
Cu4   O2    S    
Cu5   O16   S    
C22   H9    S    
C7    H19   S    
C11   C13   D    
C33   C35   D    
C38   C39   D    
C2    C42   A    
C33   H12   S    
C48   C49   S    
C10   H21   S    
C31   C39   S    
C58   H43   S    
C16   H5    S    
C30   O11   A    
C28   O7    A    
Cu3   O24   S    
C23   O21   A    
C18   H7    S    
C29   O9    A    
C9    H1    S    
C20   C21   D    
C58   H44   S    
Cu3   Cu4   S    
Cu2   O19   S    
C36   F2    S    
Cu1   O22   S    
Cu2   O12   S    
C55   H36   S    
C43   H17   S    
Cu5   O11   S    
C52   H31   S    
C3    C4    A    
Cu4   O8    S    
