data_mof_unit_15064.cif
_audit_creation_date              2012-12-10T17:24:13-0500
_audit_creation_method            fapswitch 2.2
_symmetry_space_group_name_H-M    P1
_symmetry_Int_Tables_number       1
_space_group_crystal_system       triclinic
_cell_length_a                    19.378888
_cell_length_b                    10.936992
_cell_length_c                    9.605723
_cell_angle_alpha                 90.525049
_cell_angle_beta                  89.749025
_cell_angle_gamma                 94.1039
_cell_volume                      2030.58205555

loop_
_atom_site_label
_atom_site_type_symbol
_atom_type_description
_atom_site_fract_x
_atom_site_fract_y
_atom_site_fract_z
_atom_type_partial_charge
C1    C     C_R   0.491633 0.262726 0.500075 0.809587
C2    C     C_R   0.292179 0.509814 0.503370 -0.220746
C3    C     C_R   0.931318 0.506890 0.494193 0.426011
C4    C     C_R   0.070494 0.500036 0.508667 0.415955
C5    C     C_R   0.820299 0.507658 0.616923 -0.175998
C6    C     C_R   0.748470 0.495251 0.621945 0.355774
C7    C     C_R   0.709651 0.492014 0.496671 -0.263970
C8    C     C_R   0.745541 0.489201 0.367085 0.357044
C9    C     C_R   0.818719 0.499848 0.363869 0.334623
C10   C     C_R   0.855772 0.507967 0.490339 -0.172501
C11   C     C_R   0.460916 0.114093 0.756605 -0.278961
C12   C     C_R   0.367851 0.503877 0.500666 0.805598
C13   C     C_R   0.483901 0.065933 0.881605 0.370946
C14   C     C_R   0.526494 0.967468 0.874717 0.472575
C15   C     C_R   0.532974 0.905298 0.748302 -0.205140
C16   C     C_R   0.502988 0.944716 0.625791 -0.038243
C17   C     C_R   0.479626 0.063071 0.627600 0.057679
C18   C     C_R   0.480327 0.128234 0.501641 -0.169751
C19   C     C_R   0.481253 0.063424 0.376028 -0.193388
C20   C     C_R   0.488111 0.937825 0.374018 0.397786
C21   C     C_R   0.500680 0.875434 0.499701 -0.186524
C22   C     C_R   0.599521 0.651146 0.145627 -0.134904
C23   C     C_R   0.502110 0.739084 0.500188 0.775159
C24   C     C_R   0.652483 0.716722 0.075278 -0.244984
C25   C     C_R   0.654693 0.713480 0.930771 0.492368
C26   C     C_R   0.602719 0.645179 0.859033 -0.111636
C27   C     C_R   0.550435 0.571307 0.926467 0.122168
C28   C     C_R   0.549655 0.572847 0.075565 0.240618
C29   C     C_R   0.451632 0.432620 0.073594 -0.019436
C30   C     C_R   0.451238 0.433658 0.925756 -0.015396
C31   C     C_R   0.632732 0.496283 0.499429 0.845673
C32   C     C_R   0.257894 0.560596 0.618849 0.399943
C33   C     C_R   0.185661 0.547642 0.627814 0.423047
C34   C     C_R   0.146533 0.498141 0.513475 -0.136372
C35   C     C_R   0.181157 0.452838 0.397402 -0.177602
C36   C     C_R   0.253030 0.457313 0.393120 -0.216371
Cu1   Cu    Cu3+1 0.500000 0.499990 0.640660 0.954275
Cu2   Cu    Cu3+1 0.500000 0.500010 0.359340 0.988589
H1    H     H_    0.598954 0.667912 0.254703 0.192726
N1    N     N_R   0.032360 0.417088 0.429554 -0.220854
N2    N     N_R   0.963966 0.420227 0.422729 -0.195798
N3    N     N_R   0.969219 0.590109 0.572867 -0.209032
N4    N     N_R   0.037627 0.587368 0.578862 -0.195759
N5    N     N_R   0.500660 0.501210 0.147910 -0.188620
N6    N     N_R   0.500680 0.501290 0.852040 -0.190163
O1    O     O_R   0.499990 0.319640 0.618810 -0.583847
O2    O     O_R   0.500000 0.319660 0.381240 -0.574686
O3    O     O_R   0.400140 0.499970 0.618820 -0.572627
O4    O     O_R   0.400150 0.500000 0.381250 -0.571379
O5    O     O_R   0.500000 0.680340 0.618760 -0.599279
O6    O     O_R   0.500010 0.680360 0.381190 -0.576503
O7    O     O_R   0.599850 0.500000 0.618750 -0.601229
O8    O     O_R   0.599860 0.500030 0.381180 -0.535534
O9    O     O_3   0.293015 0.622523 0.725810 -0.658047
H2    H     H_    0.334483 0.667876 0.686059 0.331381
H3    H     H_    0.429367 0.191547 0.760373 0.156023
O10   O     O_3   0.467947 0.115731 0.009112 -0.742203
H4    H     H_    0.433511 0.177148 0.995316 0.310432
O11   O     O_3   0.562738 0.930213 0.987769 -0.735426
H5    H     H_    0.563941 0.995719 0.059811 0.365117
H6    H     H_    0.567744 0.835074 0.742249 0.174632
O12   O     O_3   0.484858 0.880189 0.246625 -0.664294
H7    H     H_    0.530272 0.845763 0.233509 0.337094
H8    H     H_    0.412028 0.377215 0.128490 0.124985
H9    H     H_    0.690358 0.773594 0.133805 0.151205
O13   O     O_3   0.704674 0.781167 0.855882 -0.707433
H10   H     H_    0.737191 0.825141 0.921792 0.336522
H11   H     H_    0.603366 0.659110 0.750319 0.196358
O14   O     O_3   0.155444 0.585276 0.749726 -0.653290
H12   H     H_    0.113594 0.530146 0.767392 0.329022
H13   H     H_    0.410853 0.380240 0.870597 0.121518
H14   H     H_    0.152562 0.414524 0.308682 0.190803
H15   H     H_    0.278059 0.418486 0.303609 0.180130
H16   H     H_    0.848857 0.510324 0.713880 0.203939
O15   O     O_3   0.718433 0.483148 0.751516 -0.689051
H17   H     H_    0.685332 0.409823 0.747368 0.340033
O16   O     O_3   0.707912 0.475761 0.244999 -0.697631
H18   H     H_    0.738922 0.472253 0.163225 0.384548
O17   O     O_3   0.851901 0.504085 0.235957 -0.718335
H19   H     H_    0.899081 0.543937 0.246336 0.346408
H20   H     H_    0.478389 0.110784 0.278095 0.224650

loop_
_geom_bond_atom_site_label_1
_geom_bond_atom_site_label_2
_ccdc_geom_bond_type
C8    C9    A    
C3    N3    A    
C16   C21   A    
C30   N6    A    
C35   C36   A    
C31   O7    A    
C12   O3    A    
C2    C12   S    
C30   H13   S    
C7    C8    A    
Cu2   O4    S    
O16   H18   S    
C14   O11   S    
C1    C18   S    
C29   C30   A    
C34   C35   A    
C5    C6    A    
C1    O1    A    
C13   O10   S    
C15   C16   A    
C2    C32   A    
C18   C19   A    
C9    O17   S    
C5    H16   S    
C11   C17   A    
C4    N1    A    
C16   C17   A    
C9    C10   A    
C33   O14   S    
C27   N6    A    
O13   H10   S    
C29   H8    S    
O11   H5    S    
C22   C28   A    
C13   C14   A    
C32   O9    S    
C12   O4    A    
C4    C34   S    
C7    C31   S    
C6    O15   S    
C24   C25   A    
Cu1   O7    S    
C1    O2    A    
C23   O5    A    
Cu2   O6    S    
C25   C26   A    
C28   N5    A    
O15   H17   S    
Cu2   N5    S    
Cu1   Cu2   S    
C23   O6    A    
O12   H7    S    
C17   C18   A    
C15   H6    S    
C31   O8    A    
Cu1   O3    S    
Cu2   O2    S    
C24   H9    S    
N1    N2    A    
C35   H14   S    
C21   C23   S    
C29   N5    A    
C26   C27   A    
C8    O16   S    
C22   C24   A    
N3    N4    A    
Cu1   N6    S    
C2    C36   A    
O9    H2    S    
C3    N2    A    
C25   O13   S    
C6    C7    A    
C4    N4    A    
C26   H11   S    
C32   C33   A    
C19   C20   A    
C5    C10   A    
C3    C10   S    
Cu1   O5    S    
C11   C13   A    
O10   H4    S    
Cu2   O8    S    
C22   H1    S    
C33   C34   A    
C20   O12   S    
O14   H12   S    
C36   H15   S    
O17   H19   S    
C20   C21   A    
C27   C28   A    
C14   C15   A    
Cu1   O1    S    
C19   H20   S    
C11   H3    S    
