data_mof_unit_19792.cif
_audit_creation_date              2013-03-05T15:43:29-0500
_audit_creation_method            fapswitch 2.2
_symmetry_space_group_name_H-M    P1
_symmetry_Int_Tables_number       1
_space_group_crystal_system       triclinic
_cell_length_a                    14.191489
_cell_length_b                    16.850043
_cell_length_c                    7.19838
_cell_angle_alpha                 89.997714
_cell_angle_beta                  81.259901
_cell_angle_gamma                 89.999549
_cell_volume                      1701.34001291

loop_
_atom_site_label
_atom_site_type_symbol
_atom_site_description
_atom_site_fract_x
_atom_site_fract_y
_atom_site_fract_z
_atom_type_partial_charge
O1    O     O_R   0.337460 0.413110 0.524760 -0.528264
O2    O     O_R   0.662540 0.913110 0.475240 -0.528210
O3    O     O_R   0.348690 0.587910 0.191230 -0.531790
O4    O     O_R   0.651310 0.087910 0.808770 -0.531684
O5    O     O_R   0.166530 0.586890 0.082470 -0.483194
O6    O     O_R   0.833470 0.086890 0.917530 -0.483212
C1    C     C_R   0.370611 0.615419 0.355557 0.823631
C2    C     C_R   0.629381 0.115416 0.644437 0.823472
O7    O     O_R   0.348700 0.413830 0.191250 -0.569043
O8    O     O_R   0.651300 0.913830 0.808750 -0.568846
O9    O     O_R   0.166530 0.411570 0.082490 -0.537723
O10   O     O_R   0.833470 0.911570 0.917510 -0.537809
C3    C     C_R   0.370917 0.386636 0.354843 0.800250
C4    C     C_R   0.629078 0.886633 0.645153 0.800104
O11   O     O_R   0.337460 0.588430 0.524740 -0.535907
O12   O     O_R   0.662540 0.088430 0.475260 -0.535940
O13   O     O_3   0.192230 0.499460 0.407330 -0.211724
O14   O     O_3   0.807770 0.999460 0.592670 -0.211726
V1    V     V_3+5 0.263080 0.500100 0.108540 1.374425
V2    V     V_3+5 0.736920 0.000100 0.891460 1.374687
O15   O     O_R   0.155290 0.412090 0.756570 -0.493898
O16   O     O_R   0.844710 0.912090 0.243430 -0.493840
C5    C     C_R   0.130932 0.385753 0.931241 0.956849
C6    C     C_R   0.869074 0.885758 0.068759 0.957307
O17   O     O_R   0.155290 0.586170 0.756550 -0.537988
O18   O     O_R   0.844710 0.086170 0.243450 -0.538072
C7    C     C_R   0.129933 0.613269 0.933361 1.007784
C8    C     C_R   0.870050 0.113281 0.066650 1.007717
V3    V     V_3+5 0.240910 0.499900 0.616030 1.403911
V4    V     V_3+5 0.759090 0.999900 0.383970 1.404020
O19   O     O_3   0.311760 0.500540 0.867100 -0.275971
O20   O     O_3   0.688240 0.000540 0.132900 -0.275762
C9    C     C_3   0.081722 0.737866 0.142450 0.481682
C10   C     C_3   0.918352 0.237819 0.857416 0.481669
C11   C     C_3   0.002017 0.804845 0.202397 0.470901
C12   C     C_3   0.998067 0.304794 0.797456 0.470811
H1    H     H_    0.837217 0.730485 0.183863 0.173596
H2    H     H_    0.162701 0.230431 0.816286 0.173330
C13   C     C_3   0.941181 0.656034 0.001139 0.371764
C14   C     C_3   0.058787 0.156043 0.999191 0.371732
C15   C     C_3   0.065014 0.742763 0.800035 0.562192
C16   C     C_3   0.934879 0.242825 0.199920 0.562207
C17   C     C_3   0.054387 0.683613 0.971948 -0.357491
C18   C     C_3   0.945595 0.183626 0.028093 -0.357552
C19   C     C_3   0.938080 0.813660 0.042635 -0.410811
C20   C     C_3   0.061917 0.313663 0.957363 -0.410759
C21   C     C_3   0.876735 0.734917 0.041774 0.033475
C22   C     C_3   0.123238 0.234910 0.958400 0.033581
C23   C     C_3   0.006405 0.819362 0.851198 0.199287
C24   C     C_3   0.993490 0.319419 0.148710 0.199610
H3    H     H_    0.955122 0.823244 0.756514 0.193832
H4    H     H_    0.044705 0.323358 0.243531 0.193806
C25   C     C_2   0.443009 0.681349 0.352875 0.165692
C26   C     C_2   0.557041 0.181395 0.647087 0.165702
C27   C     C_2   0.448641 0.729610 0.506095 0.280125
C28   C     C_2   0.551318 0.229545 0.493704 0.280271
C29   C     C_2   0.561031 0.817811 0.649446 0.285809
C30   C     C_2   0.438901 0.317780 0.350511 0.285925
C31   C     C_2   0.518761 0.797611 0.496157 0.394566
C32   C     C_2   0.481336 0.297650 0.503630 0.394191
N1    N     N_R   0.099513 0.690048 0.304600 0.091847
O21   O     O_R   0.050290 0.626345 0.350263 -0.255046
O22   O     O_R   0.181333 0.695488 0.364766 -0.385046
N2    N     N_R   0.900622 0.189935 0.695345 0.091816
O23   O     O_R   0.949929 0.126265 0.649733 -0.254828
O24   O     O_R   0.818803 0.195306 0.635137 -0.385136
N3    N     N_R   0.914833 0.609634 0.839989 0.167186
O25   O     O_R   0.971304 0.552925 0.768694 -0.270779
O26   O     O_R   0.825062 0.598253 0.829502 -0.162062
N4    N     N_R   0.084999 0.109715 0.160600 0.167018
O27   O     O_R   0.028571 0.052928 0.231629 -0.270634
O28   O     O_R   0.174722 0.098553 0.171935 -0.161643
N5    N     N_R   0.797238 0.742202 0.932890 0.123222
O29   O     O_R   0.710122 0.733862 0.018152 -0.272477
O30   O     O_R   0.810702 0.755105 0.753469 -0.241660
N6    N     N_R   0.202810 0.242175 0.067082 0.123169
O31   O     O_R   0.289849 0.232914 0.981986 -0.271768
O32   O     O_R   0.189469 0.255673 0.246282 -0.242315
O33   O     O_3   0.533665 0.844658 0.336703 -0.691155
H5    H     H_    0.481808 0.834620 0.261791 0.341358
O34   O     O_3   0.466702 0.344840 0.662861 -0.691478
H6    H     H_    0.518610 0.334769 0.737628 0.341538
N7    N     N_R   0.384172 0.721486 0.679877 0.102634
O35   O     O_R   0.343060 0.785297 0.754770 -0.259918
O36   O     O_R   0.395838 0.662612 0.791188 -0.285086
N8    N     N_R   0.615475 0.221102 0.319600 0.102567
O37   O     O_R   0.656725 0.284735 0.243982 -0.259804
O38   O     O_R   0.603389 0.162118 0.208881 -0.285502
O39   O     O_3   0.541463 0.772027 0.810087 -0.645703
H7    H     H_    0.567044 0.798590 0.914115 0.376312
O40   O     O_3   0.458194 0.271871 0.190028 -0.645470
H8    H     H_    0.432474 0.298370 0.086067 0.376450
O41   O     O_3   0.509547 0.692481 0.193541 -0.658449
H9    H     H_    0.502381 0.649973 0.101764 0.373181
O42   O     O_3   0.490681 0.192717 0.806603 -0.658582
H10   H     H_    0.497816 0.150226 0.898445 0.373571
O43   O     O_3   0.169613 0.775231 0.072222 -0.595667
H11   H     H_    0.194227 0.806081 0.171791 0.360649
O44   O     O_3   0.830444 0.275205 0.927432 -0.595720
H12   H     H_    0.805862 0.306002 0.827736 0.360590
O45   O     O_3   0.045798 0.878805 0.220811 -0.598171
H13   H     H_    0.081035 0.875252 0.329009 0.360776
O46   O     O_3   0.954287 0.378741 0.778879 -0.598138
H14   H     H_    0.919090 0.375154 0.670635 0.360801
N9    N     N_R   0.941785 0.788181 0.384364 0.082681
O47   O     O_R   0.908598 0.717945 0.430754 -0.246063
O48   O     O_R   0.908758 0.847334 0.489909 -0.283075
N10   N     N_R   0.058366 0.288120 0.615545 0.082768
O49   O     O_R   0.091532 0.217880 0.569088 -0.245848
O50   O     O_R   0.091372 0.347279 0.509988 -0.282964
N11   N     N_R   0.921064 0.600671 0.157404 0.154550
O51   O     O_R   0.975227 0.538547 0.146491 -0.259118
O52   O     O_R   0.834721 0.593342 0.247832 -0.194103
N12   N     N_R   0.078978 0.100613 0.843089 0.154445
O53   O     O_R   0.024809 0.038494 0.854035 -0.259118
O54   O     O_R   0.165347 0.093261 0.752804 -0.194086
O55   O     O_3   0.026103 0.710308 0.654748 -0.655031
H15   H     H_    0.056720 0.659451 0.634073 0.404823
O56   O     O_3   0.973727 0.210435 0.345369 -0.655403
H16   H     H_    0.943133 0.159565 0.366053 0.404801
O57   O     O_3   0.161851 0.758851 0.734253 -0.575944
H17   H     H_    0.165787 0.791175 0.618154 0.372551
O58   O     O_3   0.838016 0.258914 0.265507 -0.576205
H18   H     H_    0.834003 0.291157 0.381741 0.372417
N13   N     N_R   0.065018 0.890841 0.810901 0.144163
O59   O     O_R   0.067911 0.922249 0.644957 -0.262576
O60   O     O_R   0.135291 0.906848 0.901460 -0.165114
N14   N     N_R   0.934830 0.390885 0.188814 0.144303
O61   O     O_R   0.931664 0.422198 0.354915 -0.262889
O62   O     O_R   0.864697 0.406916 0.097900 -0.165106

loop_
_geom_bond_atom_site_label_1
_geom_bond_atom_site_label_2
_geom_bond_distance
_ccdc_geom_bond_type
O41   H9    0.990094 S    
C27   C31   1.512159 S    
C12   N10   1.478311 S    
O13   V3    1.746322 S    
N5    O29   1.301648 A    
C22   N6    1.473339 S    
O42   H10   0.990079 S    
O4    C2    1.350122 A    
V1    O19   1.770025 S    
N14   O61   1.301431 A    
O43   H11   0.990981 S    
O58   H18   0.991981 S    
N9    O48   1.296998 A    
O9    V1    2.053286 S    
O45   H13   0.989258 S    
C14   N4    1.492990 S    
C12   O46   1.407708 S    
C6    C19   1.553792 S    
N6    O32   1.295125 A    
O3    C1    1.350090 A    
C9    C11   1.609688 S    
N8    O38   1.301548 A    
C16   O56   1.368725 S    
C29   C31   1.376391 D    
O12   V4    2.064201 S    
N10   O49   1.298596 A    
C19   C21   1.587467 S    
C15   O57   1.410161 S    
N1    O22   1.302717 A    
O7    C3    1.344962 A    
C1    O11   1.318007 A    
O5    C7    1.337438 A    
O7    V1    2.040525 S    
C14   N12   1.455796 S    
N7    O35   1.300615 A    
O8    V2    2.040574 S    
C23   H3    1.072024 S    
C24   H4    1.072072 S    
O3    V1    2.058996 S    
N4    O27   1.301468 A    
O14   V4    1.746321 S    
H1    C21   1.091744 S    
C30   O40   1.382691 S    
C15   C17   1.578188 S    
H2    C22   1.091674 S    
C13   N11   1.455809 S    
C2    O12   1.318000 A    
C5    C20   1.553774 S    
N5    O30   1.294929 A    
C16   C18   1.578274 S    
C15   C23   1.549286 S    
C16   O58   1.410236 S    
O11   V3    2.064177 S    
C30   C32   1.376326 D    
C20   C22   1.587518 S    
C25   C27   1.382394 D    
O17   V3    2.058945 S    
C26   C28   1.382419 D    
C25   O41   1.383178 S    
N3    O25   1.301447 A    
C9    C17   1.623975 S    
C10   C18   1.623907 S    
N6    O31   1.302075 A    
C21   N5    1.473404 S    
O8    C4    1.345063 A    
C31   O33   1.384488 S    
O40   H8    0.987738 S    
N8    O37   1.300666 A    
C13   C17   1.654849 S    
C3    C30   1.506245 S    
O15   V3    2.077359 S    
C8    C18   1.594035 S    
O34   H6    0.990755 S    
C28   C32   1.512206 S    
N3    O26   1.301822 A    
N2    O24   1.302768 A    
C11   N9    1.478161 S    
C32   O34   1.384533 S    
C28   N8    1.439838 S    
O44   H12   0.990987 S    
C19   C23   1.562790 S    
O10   V2    2.053258 S    
C10   N2    1.471280 S    
C10   O44   1.419911 S    
C26   O42   1.383170 S    
N11   O52   1.303072 A    
C12   C20   1.576504 S    
O57   H17   0.991966 S    
C29   O39   1.382671 S    
C16   C24   1.549258 S    
N7    O36   1.301461 A    
O18   V4    2.058900 S    
O15   C5    1.328618 A    
N13   O59   1.301423 A    
O16   C6    1.328636 A    
O1    C3    1.320611 A    
C1    C25   1.511332 S    
C2    C26   1.511397 S    
C11   C19   1.576404 S    
O6    V2    2.032114 S    
C13   C21   1.614767 S    
V2    O20   1.770026 S    
C14   C22   1.614671 S    
C4    C29   1.506405 S    
O10   C6    1.340517 A    
O16   V4    2.077404 S    
N11   O51   1.293995 A    
C13   N3    1.492864 S    
C11   O45   1.407737 S    
N14   O62   1.299926 A    
N12   O54   1.303068 A    
O56   H16   0.962162 S    
N12   O53   1.293972 A    
O5    V1    2.032088 S    
O17   C7    1.348614 A    
C23   N13   1.467422 S    
N9    O47   1.298513 A    
C20   C24   1.563050 S    
O18   C8    1.348546 A    
O2    V4    2.043060 S    
N2    O23   1.295613 A    
V3    O19   2.197646 S    
O55   H15   0.962104 S    
V4    O20   2.197647 S    
O1    V3    2.043082 S    
O9    C5    1.340534 A    
O13   V1    2.231553 S    
C10   C12   1.609735 S    
N10   O50   1.297006 A    
O14   V2    2.231552 S    
N1    O21   1.295525 A    
O2    C4    1.320591 A    
O33   H5    0.990754 S    
O4    V2    2.058948 S    
C7    C17   1.594065 S    
O6    C8    1.337484 A    
C14   C18   1.654729 S    
C24   N14   1.467460 S    
C9    N1    1.471343 S    
O46   H14   0.989232 S    
N13   O60   1.299941 A    
N4    O28   1.301879 A    
C9    O43   1.419895 S    
C15   O55   1.368690 S    
O39   H7    0.987687 S    
C27   N7    1.439739 S    
