data_mof_unit_21506.cif
_audit_creation_date              2013-03-05T15:55:32-0500
_audit_creation_method            fapswitch 2.2
_symmetry_space_group_name_H-M    P1
_symmetry_Int_Tables_number       1
_space_group_crystal_system       triclinic
_cell_length_a                    20.149645
_cell_length_b                    7.256233
_cell_length_c                    13.556119
_cell_angle_alpha                 89.984956
_cell_angle_beta                  102.968919
_cell_angle_gamma                 90.015173
_cell_volume                      1931.48892515

loop_
_atom_site_label
_atom_site_type_symbol
_atom_site_description
_atom_site_fract_x
_atom_site_fract_y
_atom_site_fract_z
_atom_type_partial_charge
O1    O     O_R   0.449560 0.506810 0.599700 -0.582539
O2    O     O_R   0.550440 0.006810 0.400300 -0.582531
O3    O     O_R   0.587960 0.180060 0.595760 -0.601155
O4    O     O_R   0.412040 0.680060 0.404240 -0.601189
C1    C     C_R   0.614921 0.344202 0.617529 0.914228
C2    C     C_R   0.385078 0.844193 0.382473 0.914208
O5    O     O_R   0.452380 0.177430 0.611700 -0.588412
O6    O     O_R   0.547620 0.677430 0.388300 -0.588453
O7    O     O_R   0.413900 0.001890 0.416350 -0.595619
O8    O     O_R   0.586100 0.501890 0.583650 -0.595622
C3    C     C_R   0.436361 0.345789 0.637666 0.907478
C4    C     C_R   0.563635 0.845858 0.362333 0.907529
O9    O     O_3   0.487530 0.337490 0.435890 -0.289327
O10   O     O_3   0.512470 0.837490 0.564110 -0.289276
V1    V     V_3+5 0.502310 0.064660 0.511890 1.159494
V2    V     V_3+5 0.497690 0.564660 0.488110 1.159409
C5    C     C_R   0.611129 0.908554 0.112248 -0.170908
C6    C     C_R   0.388964 0.404111 0.888105 -0.170862
H1    H     H_    0.517228 0.904493 0.161846 0.107107
H2    H     H_    0.482878 0.399890 0.838540 0.106985
H3    H     H_    0.695294 0.943039 0.988692 0.131980
H4    H     H_    0.304862 0.436464 0.011882 0.131881
H5    H     H_    0.585614 0.935764 0.034340 0.118804
H6    H     H_    0.414540 0.429148 0.966219 0.118818
C7    C     C_R   0.603747 0.855716 0.285172 -0.079125
C8    C     C_R   0.396234 0.355315 0.714813 -0.078876
C9    C     C_R   0.933051 0.822523 0.319224 0.341749
C10   C     C_R   0.066835 0.325583 0.680451 0.340718
C11   C     C_R   0.895499 0.797189 0.393097 -0.106667
C12   C     C_R   0.104361 0.301557 0.606440 -0.105561
C13   C     C_R   0.824825 0.808717 0.369259 -0.223940
C14   C     C_R   0.175058 0.311967 0.630379 -0.224386
C15   C     C_R   0.788333 0.846043 0.269421 0.094343
C16   C     C_R   0.211621 0.346750 0.730471 0.094256
C17   C     C_R   0.826016 0.870372 0.193075 0.072105
C18   C     C_R   0.173983 0.369560 0.806977 0.072088
C19   C     C_R   0.715656 0.858741 0.242756 0.100698
C20   C     C_R   0.284323 0.358402 0.757222 0.100745
C21   C     C_R   0.682388 0.894059 0.140392 0.183699
C22   C     C_R   0.317667 0.390988 0.859839 0.183637
C23   C     C_R   0.720329 0.916023 0.066858 -0.244609
C24   C     C_R   0.279769 0.411507 0.933522 -0.244554
C25   C     C_R   0.790835 0.904753 0.092531 -0.182858
C26   C     C_R   0.209237 0.401381 0.907760 -0.182610
C27   C     C_R   0.674587 0.839333 0.314210 -0.231248
C28   C     C_R   0.325351 0.340455 0.685629 -0.231177
C29   C     C_R   0.572080 0.890383 0.184398 -0.176042
C30   C     C_R   0.427983 0.387139 0.815849 -0.176243
C31   C     C_R   0.898234 0.858075 0.218315 -0.343851
C32   C     C_R   0.101731 0.358507 0.781628 -0.344211
H7    H     H_    0.695765 0.814745 0.393385 0.107736
H8    H     H_    0.304121 0.317917 0.606279 0.107631
H9    H     H_    0.800481 0.787035 0.431312 0.147818
H10   H     H_    0.199360 0.291489 0.568186 0.147865
H11   H     H_    0.921307 0.769667 0.470782 0.192324
H12   H     H_    0.078518 0.276046 0.528552 0.192942
H13   H     H_    0.817492 0.923728 0.032266 0.114461
H14   H     H_    0.182621 0.419159 0.968158 0.114112
C33   C     C_R   0.216983 0.022972 0.224622 -0.098305
C34   C     C_R   0.783073 0.522951 0.775257 -0.097603
H15   H     H_    0.192734 0.155722 0.206680 0.126881
H16   H     H_    0.807368 0.655686 0.793093 0.126997
C35   C     C_R   0.282175 0.018547 0.288038 -0.152393
C36   C     C_R   0.717880 0.518537 0.711844 -0.152566
H17   H     H_    0.305830 0.147496 0.317013 0.125398
H18   H     H_    0.694269 0.647474 0.682767 0.125435
C37   C     C_R   0.316105 0.850151 0.313808 -0.115904
C38   C     C_R   0.683893 0.350161 0.686199 -0.115940
C39   C     C_R   0.282994 0.686278 0.274158 -0.138878
C40   C     C_R   0.716947 0.186298 0.725972 -0.138709
H19   H     H_    0.307333 0.553636 0.292110 0.123979
H20   H     H_    0.692561 0.053670 0.708123 0.124056
C41   C     C_R   0.217809 0.690672 0.210716 -0.125546
C42   C     C_R   0.782132 0.190681 0.789413 -0.126495
H21   H     H_    0.194258 0.561639 0.181683 0.122296
H22   H     H_    0.805638 0.061661 0.818549 0.122311
C43   C     C_R   0.183774 0.859062 0.185127 -0.091245
C44   C     C_R   0.816225 0.359050 0.814876 -0.091378
O11   O     O_R   0.913920 0.203370 0.916260 -0.602256
O12   O     O_R   0.086080 0.703370 0.083740 -0.601971
O13   O     O_R   0.047620 0.535540 0.888290 -0.573943
O14   O     O_R   0.952380 0.035540 0.111710 -0.574212
C45   C     C_R   0.063252 0.368109 0.861638 1.021840
C46   C     C_R   0.936723 0.868041 0.138327 1.021318
O15   O     O_R   0.912040 0.532780 0.904220 -0.593433
O16   O     O_R   0.087960 0.032780 0.095780 -0.593772
O17   O     O_R   0.949550 0.708160 0.099720 -0.596007
O18   O     O_R   0.050450 0.208160 0.900280 -0.596129
C47   C     C_R   0.885375 0.364920 0.883177 0.959726
C48   C     C_R   0.114623 0.864929 0.116826 0.959707
O19   O     O_3   0.012480 0.375300 0.064060 -0.289170
O20   O     O_3   0.987520 0.875300 0.935940 -0.289223
V3    V     V_3+5 0.997690 0.648180 0.988110 1.208132
V4    V     V_3+5 0.002310 0.148180 0.011890 1.207712
N1    N     N_R   0.006247 0.810441 0.348006 0.229918
O21   O     O_R   0.035377 0.706952 0.423847 -0.389357
O22   O     O_R   0.044115 0.918512 0.307179 -0.428542
N2    N     N_R   0.993600 0.314884 0.651495 0.229779
O23   O     O_R   0.964241 0.214425 0.574464 -0.388531
O24   O     O_R   0.955957 0.421609 0.693434 -0.428971

loop_
_geom_bond_atom_site_label_1
_geom_bond_atom_site_label_2
_geom_bond_distance
_ccdc_geom_bond_type
C20   C22   1.422339 A    
C35   H17   1.083008 S    
O14   V4    2.030108 S    
C9    C11   1.396115 A    
C41   H21   1.082989 S    
C9    N1    1.441167 S    
N1    O21   1.301698 A    
O1    C3    1.327309 A    
C46   O17   1.322045 A    
O2    C4    1.327215 A    
C33   C43   1.410008 A    
C2    O7    1.318244 A    
C18   C32   1.421061 A    
C21   C23   1.394796 A    
O5    C3    1.331144 A    
C34   C44   1.410029 A    
C5    H5    1.083945 S    
C42   H22   1.082991 S    
C6    H6    1.083979 S    
C36   C38   1.405519 A    
C31   C46   1.469640 S    
H1    C29   1.083470 S    
C27   H7    1.077161 S    
C28   H8    1.077197 S    
C34   H16   1.082838 S    
C5    C21   1.404452 A    
C39   H19   1.082902 S    
C6    C22   1.404495 A    
O16   V4    2.022930 S    
O15   V3    2.022802 S    
C26   H14   1.082507 S    
C40   C42   1.399570 A    
C13   C15   1.413858 A    
C39   C41   1.399572 A    
C17   C25   1.410214 A    
C7    C29   1.394750 A    
C8    C30   1.394754 A    
C22   C24   1.394806 A    
C45   O18   1.322180 A    
O6    V2    2.030382 S    
C23   C25   1.387178 A    
C24   C26   1.387216 A    
C1    C38   1.489689 S    
C14   H10   1.076146 S    
O13   C45   1.325624 A    
C32   C45   1.469687 S    
O18   V4    2.019321 S    
C44   C47   1.490462 S    
C19   C21   1.422318 A    
C35   C37   1.405546 A    
C43   C48   1.490471 S    
C33   H15   1.082842 S    
C20   C28   1.415099 A    
O11   V4    1.994192 S    
O4    C2    1.314864 A    
O16   C48   1.335980 A    
O15   C47   1.335922 A    
C11   H11   1.083277 S    
C3    C8    1.460097 S    
C12   H12   1.083300 S    
C15   C19   1.430432 A    
C37   C39   1.409584 A    
C14   C16   1.413834 A    
O4    V2    2.022832 S    
C17   C31   1.420961 A    
O13   V3    2.030608 S    
O6    C4    1.331260 A    
O1    V2    2.015688 S    
C13   H9    1.076129 S    
O2    V1    2.015960 S    
H2    C30   1.083475 S    
H3    C23   1.084312 S    
C2    C37   1.489700 S    
O14   C46   1.325751 A    
C18   C26   1.410312 A    
C19   C27   1.415110 A    
C7    C27   1.398000 A    
O3    V1    2.022700 S    
C10   N2    1.441398 S    
C16   C20   1.430453 A    
C33   C35   1.399554 A    
C5    C29   1.392268 A    
O3    C1    1.314801 A    
C6    C30   1.392312 A    
N1    O22   1.300954 A    
N2    O24   1.300909 A    
C4    C7    1.460093 S    
C34   C36   1.399549 A    
C10   C12   1.396214 A    
O7    V1    2.005660 S    
C1    O8    1.318252 A    
C11   C13   1.390276 A    
O8    V2    2.005715 S    
O19   V4    1.787055 S    
C12   C14   1.390237 A    
H4    C24   1.084349 S    
O17   V3    2.019605 S    
O5    V1    2.030883 S    
O20   V3    1.786812 S    
C15   C17   1.425268 A    
C16   C18   1.425247 A    
O12   C48   1.338059 A    
C10   C32   1.414174 A    
O11   C47   1.338060 A    
C25   H13   1.082478 S    
C38   C40   1.409607 A    
N2    O23   1.301794 A    
C42   C44   1.406059 A    
O9    V2    1.787636 S    
C41   C43   1.406085 A    
O10   V1    1.787393 S    
C40   H20   1.082901 S    
O12   V3    1.994136 S    
C8    C28   1.397998 A    
C9    C31   1.413896 A    
C36   H18   1.083011 S    
