data_mof_unit_52275.cif
_audit_creation_date              2012-12-10T20:27:09-0500
_audit_creation_method            fapswitch 2.2
_symmetry_space_group_name_H-M    P1
_symmetry_Int_Tables_number       1
_space_group_crystal_system       triclinic
_cell_length_a                    10.746694
_cell_length_b                    10.705311
_cell_length_c                    9.875824
_cell_angle_alpha                 89.466215
_cell_angle_beta                  103.883107
_cell_angle_gamma                 90.572052
_cell_volume                      1102.90702147

loop_
_atom_site_label
_atom_site_type_symbol
_atom_type_description
_atom_site_fract_x
_atom_site_fract_y
_atom_site_fract_z
_atom_type_partial_charge
C1    C     C_R   0.500470 0.259854 0.500443 0.895572
C2    C     C_R   0.513026 0.127890 0.501125 -0.061720
C3    C     C_R   0.485874 0.064634 0.373539 -0.168266
C4    C     C_R   0.490766 0.936144 0.372959 -0.166845
C5    C     C_R   0.523858 0.871145 0.500132 -0.117242
C6    C     C_R   0.576046 0.935507 0.622906 -0.020215
C7    C     C_3   0.554013 0.922512 0.767090 0.346702
C8    C     C_3   0.535026 0.064263 0.764298 -0.287198
C9    C     C_R   0.393447 0.462409 0.044020 0.268325
C10   C     C_R   0.600382 0.548123 0.097526 -0.097522
C11   C     C_R   0.600439 0.547850 0.953800 -0.069415
C12   C     C_R   0.258860 0.504605 0.441884 0.970994
C13   C     C_R   0.393600 0.462134 0.901240 0.089335
C14   C     C_3   0.332875 0.335561 0.881161 -0.295937
C15   C     C_3   0.331357 0.336109 0.035833 -0.332514
C16   C     C_R   0.505409 0.739773 0.500486 0.851830
C17   C     C_R   0.741231 0.504480 0.558003 0.930701
C18   C     C_2   0.122146 0.522103 0.408945 -0.312390
C19   C     C_2   0.068601 0.557496 0.510584 -0.167645
C20   C     C_2   0.878089 0.523023 0.590354 -0.361164
C21   C     C_2   0.932017 0.555103 0.486819 -0.130656
C22   C     C_R   0.566207 0.063347 0.624145 -0.087040
H1    H     H_    0.876006 0.567715 0.380240 0.180073
H2    H     H_    0.682411 0.585383 0.172349 0.144704
H3    H     H_    0.682530 0.584132 0.920826 0.151951
H4    H     H_    0.399262 0.265698 0.857239 0.197530
H5    H     H_    0.396236 0.265567 0.098247 0.165588
H6    H     H_    0.125063 0.576274 0.615571 0.172001
H7    H     H_    0.934206 0.510180 0.696670 0.153310
H8    H     H_    0.065095 0.503718 0.304220 0.190916
H9    H     H_    0.452354 0.112956 0.275051 0.163156
H10   H     H_    0.458727 0.888391 0.274275 0.177321
H11   H     H_    0.463575 0.871227 0.767320 0.115600
H12   H     H_    0.433394 0.089270 0.755690 0.151954
N1    N     N_R   0.499160 0.499140 0.142600 -0.122099
N2    N     N_R   0.499160 0.499180 0.856960 -0.116778
O1    O     O_R   0.500020 0.316790 0.614700 -0.618807
O2    O     O_R   0.500000 0.316760 0.385350 -0.623262
O3    O     O_R   0.317820 0.500020 0.571850 -0.612243
O4    O     O_R   0.317800 0.499980 0.342510 -0.583696
O5    O     O_R   0.500000 0.683240 0.614650 -0.623258
O6    O     O_R   0.499980 0.683210 0.385300 -0.619784
O7    O     O_R   0.682200 0.500020 0.657490 -0.631189
O8    O     O_R   0.682180 0.499980 0.428150 -0.614193
Zn1   Zn    Zn3+2 0.500010 0.500020 0.653140 0.953905
Zn2   Zn    Zn3+2 0.499990 0.499980 0.346860 0.975794
C23   C     C_2   0.628363 0.138921 0.871986 0.469947
H13   H     H_    0.699659 0.198570 0.841913 0.063581
O9    O     O_2   0.623187 0.134177 0.994027 -0.570385
C24   C     C_2   0.204815 0.336808 0.777746 0.476023
H14   H     H_    0.133138 0.404742 0.786524 0.072555
O10   O     O_2   0.180970 0.261368 0.682956 -0.581865
C25   C     C_2   0.200439 0.335505 0.067006 0.409149
H15   H     H_    0.154537 0.246809 0.079170 0.066919
O11   O     O_2   0.144090 0.432533 0.075670 -0.593975
O12   O     O_3   0.657987 0.875151 0.873810 -0.612788
C26   C     C_3   0.783358 0.903187 0.857694 0.143249
H16   H     H_    0.844130 0.925438 0.962640 0.166197
H17   H     H_    0.789177 0.986533 0.791682 0.119973
C27   C     C_3   0.840632 0.790087 0.801756 -0.360556
H18   H     H_    0.847507 0.710930 0.876488 0.223067
H19   H     H_    0.777984 0.761418 0.700126 0.226701
C28   C     C_3   0.974416 0.820142 0.782149 -0.929298
H20   H     H_    0.969563 0.895463 0.702959 0.274618
H21   H     H_    0.015791 0.735849 0.746023 0.266816
H22   H     H_    0.038649 0.850302 0.882374 0.263885

loop_
_geom_bond_atom_site_label_1
_geom_bond_atom_site_label_2
_ccdc_geom_bond_type
C2    C22   A    
C8    C22   S    
C17   O7    A    
C12   O4    A    
C10   N1    A    
C18   H8    S    
C7    H11   S    
C25   O11   D    
C24   O10   D    
C23   H13   S    
C1    O1    A    
O3    Zn1   S    
C12   O3    A    
C28   H21   S    
C24   H14   S    
C9    C15   S    
C8    C23   S    
N2    Zn1   S    
C23   O9    D    
C4    H10   S    
C13   C14   S    
C14   H4    S    
C3    H9    S    
C19   H6    S    
O7    Zn1   S    
C26   H16   S    
C14   C24   S    
C1    O2    A    
C27   C28   S    
C4    C5    A    
C15   C25   S    
C11   N2    A    
C19   C21   S    
O8    Zn2   S    
C2    C3    A    
C6    C7    S    
C7    O12   S    
C20   H7    S    
C21   H1    S    
C5    C6    A    
C9    N1    A    
C28   H22   S    
C26   H17   S    
O2    Zn2   S    
C10   C11   A    
O4    Zn2   S    
O1    Zn1   S    
C3    C4    A    
C6    C22   A    
C11   H3    S    
C16   O6    A    
C7    C8    S    
C17   C20   S    
C20   C21   D    
C13   N2    A    
C27   H19   S    
C1    C2    S    
O6    Zn2   S    
C12   C18   S    
O12   C26   S    
O5    Zn1   S    
C14   C15   S    
C18   C19   D    
C26   C27   S    
C9    C13   A    
C10   H2    S    
C8    H12   S    
N1    Zn2   S    
C15   H5    S    
C16   O5    A    
C17   O8    A    
C28   H20   S    
C25   H15   S    
C27   H18   S    
C5    C16   S    
