data_mof_unit_55773.cif
_audit_creation_date              2012-10-26T21:09:14-0400
_audit_creation_method            fapswitch 2.2
_symmetry_space_group_name_H-M    P1
_symmetry_Int_Tables_number       1
_space_group_crystal_system       triclinic
_cell_length_a                    14.49615
_cell_length_b                    16.378783
_cell_length_c                    9.911688
_cell_angle_alpha                 91.386767
_cell_angle_beta                  91.213689
_cell_angle_gamma                 89.863275
_cell_volume                      2352.10387748

loop_
_atom_site_label
_atom_site_type_symbol
_atom_type_description
_atom_site_fract_x
_atom_site_fract_y
_atom_site_fract_z
_atom_type_partial_charge
C1    C     C_R   0.379806 0.885698 0.497236 0.602451
C2    C     C_2   0.750292 0.192163 0.406055 0.268585
C3    C     C_2   0.252175 0.312597 0.418035 0.255902
C4    C     C_2   0.250295 0.692160 0.406052 0.268588
C5    C     C_2   0.677154 0.813054 0.495909 0.247038
C6    C     C_2   0.706760 0.162082 0.513071 0.235489
C7    C     C_2   0.177155 0.313055 0.495912 0.247008
C8    C     C_2   0.206764 0.662078 0.513069 0.235445
C9    C     C_2   0.305694 0.237954 0.400863 0.242656
C10   C     C_2   0.323439 0.752352 0.428679 0.232170
C11   C     C_2   0.805698 0.737958 0.400866 0.242651
C12   C     C_R   0.390850 0.122506 0.500858 0.601648
C13   C     C_2   0.823437 0.252354 0.428684 0.232170
C14   C     C_2   0.351817 0.205251 0.506949 0.214451
C15   C     C_2   0.305240 0.826492 0.485283 0.242280
C16   C     C_2   0.851815 0.705251 0.506954 0.214434
C17   C     C_2   0.805236 0.326495 0.485283 0.242266
C18   C     C_2   0.423440 0.999407 0.921693 0.319995
C19   C     C_2   0.923439 0.499408 0.921693 0.320008
C20   C     C_2   0.421802 0.999633 0.079247 0.317127
C21   C     C_2   0.921802 0.499634 0.079247 0.317123
C22   C     C_R   0.879804 0.385700 0.497237 0.602456
C23   C     C_R   0.890850 0.622507 0.500859 0.601649
C24   C     C_R   0.623498 0.111449 0.502294 0.574843
C25   C     C_R   0.616897 0.883195 0.499546 0.584336
C26   C     C_R   0.123499 0.611448 0.502293 0.574813
C27   C     C_R   0.116897 0.383195 0.499546 0.584320
C28   C     C_2   0.752178 0.812600 0.418042 0.255903
Cl1   Cl    Cl    0.788112 0.898989 0.329163 -0.377548
Cl2   Cl    Cl    0.435231 0.723067 0.378373 -0.385007
Cl3   Cl    Cl    0.795161 0.692039 0.238543 -0.343589
Cl4   Cl    Cl    0.935231 0.223065 0.378395 -0.385010
Cl5   Cl    Cl    0.720005 0.170389 0.235721 -0.313496
Cl6   Cl    Cl    0.288103 0.398980 0.329138 -0.377545
Cl7   Cl    Cl    0.220005 0.670386 0.235717 -0.313464
Cl8   Cl    Cl    0.637944 0.725107 0.577645 -0.370549
Cl9   Cl    Cl    0.755455 0.177122 0.678092 -0.379280
Cl10  Cl    Cl    0.137955 0.225114 0.577674 -0.370541
Cl11  Cl    Cl    0.255465 0.677113 0.678087 -0.379173
Cl12  Cl    Cl    0.295143 0.192027 0.238548 -0.343576
Cu1   Cu    Cu3+1 0.500020 1.000000 0.638630 1.298180
Cu2   Cu    Cu3+1 0.000020 0.500000 0.638630 1.298153
Cu3   Cu    Cu3+1 0.499980 0.000000 0.361370 1.231586
Cu4   Cu    Cu3+1 0.999980 0.500000 0.361370 1.231581
H1    H     H_    0.541463 0.953214 0.127354 0.271394
H2    H     H_    0.249200 0.495982 0.822750 0.401144
H3    H     H_    0.162770 0.004827 0.123724 0.399212
H4    H     H_    0.662772 0.504852 0.123718 0.399205
H5    H     H_    0.041463 0.453214 0.127353 0.271399
H6    H     H_    0.484808 0.263042 0.812746 0.396503
H7    H     H_    0.095140 0.865536 0.675425 0.396393
H8    H     H_    0.984741 0.762983 0.812839 0.396502
H9    H     H_    0.595215 0.365702 0.675513 0.396301
H10   H     H_    0.176455 0.951673 0.867161 0.391545
H11   H     H_    0.676448 0.451693 0.867177 0.391456
H12   H     H_    0.749208 0.996158 0.822824 0.401197
N1    N     N_2   0.498660 1.000000 0.846910 -0.123553
N2    N     N_2   0.998660 0.500000 0.846910 -0.123554
N3    N     N_2   0.498630 0.000000 0.153040 -0.323369
N4    N     N_2   0.998630 0.500000 0.153040 -0.323381
O1    O     O_R   0.410990 0.910970 0.617040 -0.464017
O2    O     O_R   0.589050 0.910970 0.617100 -0.442008
O3    O     O_R   0.089050 0.589030 0.617100 -0.420204
O4    O     O_R   0.089050 0.410970 0.617100 -0.442060
O5    O     O_R   0.589010 0.089030 0.382960 -0.470766
O6    O     O_R   0.589010 0.910970 0.382960 -0.495611
O7    O     O_R   0.089010 0.589030 0.382960 -0.470766
O8    O     O_R   0.089010 0.410970 0.382960 -0.495595
O9    O     O_2   0.385628 0.353986 0.625695 -0.248604
O10   O     O_2   0.304276 0.253701 0.758562 -0.156756
O11   O     O_3   0.479443 0.233857 0.724241 -0.475454
O12   O     O_R   0.410990 0.089030 0.617040 -0.435510
O13   O     O_2   0.184111 0.953231 0.496216 -0.166512
O14   O     O_2   0.123955 0.823650 0.408231 -0.232286
O15   O     O_3   0.156104 0.838886 0.665599 -0.443195
O16   O     O_2   0.885639 0.853979 0.625713 -0.248562
O17   O     O_2   0.804241 0.753709 0.758550 -0.156720
O18   O     O_3   0.979411 0.733834 0.724298 -0.475594
O19   O     O_2   0.684113 0.453237 0.496215 -0.166625
O20   O     O_2   0.623957 0.323664 0.408192 -0.232142
O21   O     O_3   0.656077 0.338878 0.665569 -0.443144
O22   O     O_2   0.272514 0.091600 0.881686 -0.146018
O23   O     O_R   0.910990 0.410970 0.617040 -0.464011
O24   O     O_2   0.296366 0.003273 0.692577 -0.212002
O25   O     O_3   0.239817 0.933922 0.892170 -0.419558
O26   O     O_2   0.772521 0.591608 0.881676 -0.146029
O27   O     O_2   0.796366 0.503272 0.692577 -0.212041
O28   O     O_3   0.739809 0.433933 0.892174 -0.419618
O29   O     O_2   0.633176 0.057036 0.012919 -0.192599
O30   O     O_2   0.630978 0.908571 0.957810 -0.234215
O31   O     O_3   0.687554 0.006615 0.781701 -0.419277
O32   O     O_2   0.133181 0.557027 0.012921 -0.192496
O33   O     O_2   0.130972 0.408564 0.957803 -0.234319
O34   O     O_R   0.910990 0.589030 0.617040 -0.435494
O35   O     O_3   0.187553 0.506614 0.781700 -0.419220
O36   O     O_2   0.290121 0.890667 0.137590 -0.199974
O37   O     O_2   0.296145 0.000591 0.301872 -0.201518
O38   O     O_3   0.218572 0.032305 0.090916 -0.390488
O39   O     O_2   0.790108 0.390677 0.137577 -0.199968
O40   O     O_2   0.796145 0.500592 0.301874 -0.201512
O41   O     O_3   0.718580 0.532327 0.090920 -0.390484
O42   O     O_R   0.410950 0.910970 0.382900 -0.467081
O43   O     O_R   0.410950 0.089030 0.382900 -0.453131
O44   O     O_R   0.910950 0.410970 0.382900 -0.467079
O45   O     O_R   0.910950 0.589030 0.382900 -0.453126
O46   O     O_R   0.589050 0.089030 0.617100 -0.420214
S1    S     S_3+6 0.378216 0.264887 0.656778 0.074399
S2    S     S_3+6 0.808377 0.480625 0.156522 0.165793
S3    S     S_3+6 0.189671 0.862299 0.510165 0.111113
S4    S     S_3+6 0.878201 0.764881 0.656794 0.074375
S5    S     S_3+6 0.689665 0.362303 0.510148 0.111134
S6    S     S_3+6 0.309165 0.008845 0.841247 0.154599
S7    S     S_3+6 0.809165 0.508849 0.841246 0.154556
S8    S     S_3+6 0.612669 0.992782 0.905877 0.172454
S9    S     S_3+6 0.112669 0.492777 0.905876 0.172464
S10   S     S_3+6 0.308378 0.980617 0.156522 0.165792

loop_
_geom_bond_atom_site_label_1
_geom_bond_atom_site_label_2
_ccdc_geom_bond_type
O11   S1    S    
C8    C26   S    
C15   S3    S    
C13   Cl4   S    
C26   O3    A    
Cu1   O1    S    
C4    C8    D    
O25   S6    S    
Cu2   N2    S    
O14   S3    D    
Cu4   O44   S    
C16   S4    S    
Cu4   O45   S    
O39   S2    D    
O24   S6    D    
H3    O38   S    
O26   S7    D    
C26   O7    A    
C28   Cl1   S    
C19   C21   S    
C18   S6    S    
C3    C7    D    
O10   S1    D    
C19   S7    S    
C23   O45   A    
C5    Cl8   S    
H11   O28   S    
C7    C27   S    
H9    O21   S    
O33   S9    D    
O28   S7    S    
C2    C13   S    
C27   O8    A    
H12   O31   S    
H2    O35   S    
O21   S5    S    
O35   S9    S    
C1    C15   S    
C8    Cl11  S    
Cu3   N3    S    
O41   S2    S    
C12   O12   A    
C4    Cl7   S    
C11   Cl3   S    
Cu1   Cu3   S    
C2    C6    D    
Cu2   Cu4   S    
Cu1   O2    S    
H8    O18   S    
C17   S5    S    
C19   N2    D    
O9    S1    D    
O15   S3    S    
O40   S2    D    
Cu1   O46   S    
Cu2   O23   S    
C21   N4    D    
C20   S10   S    
C3    Cl6   S    
C9    Cl12  S    
C20   N3    D    
O22   S6    D    
C9    C14   D    
C3    C9    S    
C5    C28   D    
C11   C16   D    
C10   Cl2   S    
C18   N1    D    
O38   S10   S    
Cu3   O5    S    
C6    C24   S    
C6    Cl9   S    
O18   S4    S    
H6    O11   S    
O37   S10   D    
H5    N4    S    
C24   O5    A    
C12   O43   A    
Cu1   O12   S    
C5    C25   S    
C2    Cl5   S    
C14   S1    S    
C12   C14   S    
C16   C23   S    
N2    S9    S    
Cu4   O8    S    
C24   O46   A    
C4    C10   S    
Cu2   O4    S    
O29   S8    D    
H1    N3    S    
Cu2   O34   S    
C25   O6    A    
H7    O15   S    
C1    O1    A    
H10   O25   S    
C23   O34   A    
O13   S3    D    
N1    S8    S    
O19   S5    D    
C17   C22   S    
O31   S8    S    
C13   C17   D    
C10   C15   D    
O27   S7    D    
C22   O23   A    
C22   O44   A    
Cu1   N1    S    
C11   C28   S    
Cu4   N4    S    
Cu3   O6    S    
H4    O41   S    
Cu2   O3    S    
O20   S5    D    
C7    Cl10  S    
C18   C20   S    
C25   O2    A    
O30   S8    D    
O17   S4    D    
O32   S9    D    
Cu3   O43   S    
Cu3   O42   S    
C21   S2    S    
C27   O4    A    
O16   S4    D    
O36   S10   D    
Cu4   O7    S    
C1    O42   A    
