data_mof_unit_49455.cif
_audit_creation_date              2012-12-10T17:10:15-0500
_audit_creation_method            fapswitch 2.2
_symmetry_space_group_name_H-M    P1
_symmetry_Int_Tables_number       1
_space_group_crystal_system       triclinic
_cell_length_a                    15.705708
_cell_length_b                    10.848358
_cell_length_c                    10.028515
_cell_angle_alpha                 90.609656
_cell_angle_beta                  91.621529
_cell_angle_gamma                 90.631465
_cell_volume                      1707.77935915

loop_
_atom_site_label
_atom_site_type_symbol
_atom_type_description
_atom_site_fract_x
_atom_site_fract_y
_atom_site_fract_z
_atom_type_partial_charge
C1    C     C_R   0.496536 0.264170 0.499014 0.892906
C2    C     C_2   0.490752 0.870001 0.504173 0.324680
C3    C     C_2   0.507767 0.068221 0.399090 -0.162429
C4    C     C_R   0.337925 0.501482 0.498244 0.865127
C5    C     C_2   0.476584 0.137779 0.494729 -0.261998
C6    C     C_2   0.555816 0.563869 0.925613 0.537489
C7    C     C_2   0.544863 0.576912 0.077091 -0.124044
C8    C     C_R   0.496296 0.737299 0.500311 0.802567
C9    C     C_R   0.662071 0.499855 0.501882 0.912539
C10   C     C_3   0.976325 0.410385 0.579373 -0.182982
C11   C     C_3   0.027320 0.399715 0.449602 -0.190279
C12   C     C_3   0.082803 0.509943 0.497658 0.081225
C13   C     C_1   0.248978 0.506543 0.494494 -0.187963
C14   C     C_1   0.751083 0.499781 0.506651 -0.171878
C15   C     C_3   0.033720 0.520112 0.628588 -0.300899
C16   C     C_3   0.669495 0.710403 0.930639 0.061215
C17   C     C_3   0.619804 0.831622 0.935984 -0.385725
C18   C     C_3   0.665038 0.926961 0.026431 -0.951636
C19   C     C_3   0.404287 0.351789 0.112118 0.190880
C20   C     C_3   0.386193 0.231627 0.034859 -0.395318
C21   C     C_3   0.297044 0.181540 0.060536 -0.977793
C22   C     C_3   0.983502 0.772020 0.304089 0.067195
C23   C     C_3   0.973736 0.610758 0.556920 0.440505
C24   C     C_3   0.961591 0.747843 0.156574 -0.340207
C25   C     C_3   0.887824 0.828477 0.109162 -0.981360
C26   C     C_3   0.999094 0.808424 0.644058 0.062494
C27   C     C_3   0.027652 0.802555 0.791299 -0.356866
C28   C     C_3   0.054231 0.929453 0.846657 -0.954875
C29   C     C_3   0.466518 0.890931 0.249589 -0.442344
C30   C     C_3   0.373446 0.846713 0.235396 -0.292274
C31   C     C_3   0.352222 0.802489 0.093307 -0.902779
C32   C     C_3   0.430352 0.898591 0.715434 0.066958
C33   C     C_3   0.340867 0.882367 0.647527 -0.414743
C34   C     C_3   0.917365 0.502301 0.508531 0.082189
C35   C     C_3   0.273353 0.855119 0.749551 -0.947448
C36   C     C_3   0.022503 0.600054 0.427357 0.439294
C37   C     C_3   0.966327 0.490891 0.378115 -0.301078
C38   C     C_1   0.173650 0.509912 0.493930 -0.007500
C39   C     C_1   0.826465 0.500285 0.509627 0.002845
C40   C     C_2   0.487847 0.938024 0.390386 0.003310
H1    H     H_    0.051921 0.313112 0.405924 0.150751
H2    H     H_    0.692431 0.678307 0.030030 0.129125
H3    H     H_    0.613357 0.869226 0.833643 0.270881
H4    H     H_    0.554708 0.815660 0.972896 0.194043
H5    H     H_    0.671270 0.891819 0.129855 0.258632
H6    H     H_    0.627365 0.012970 0.028156 0.272074
H7    H     H_    0.729236 0.948664 0.988746 0.279027
H8    H     H_    0.359074 0.423412 0.076009 0.098141
H9    H     H_    0.393126 0.335140 0.218584 0.197809
H10   H     H_    0.392324 0.247877 0.926262 0.226871
H11   H     H_    0.433735 0.161589 0.065726 0.229908
H12   H     H_    0.431558 0.105372 0.566024 0.171231
H13   H     H_    0.290386 0.161610 0.168203 0.263806
H14   H     H_    0.286043 0.094679 0.002848 0.267992
H15   H     H_    0.248191 0.249303 0.028810 0.268582
H16   H     H_    0.004273 0.869779 0.316768 0.155248
H17   H     H_    0.924674 0.761222 0.362670 0.158435
H18   H     H_    0.018446 0.767400 0.096680 0.233403
H19   H     H_    0.943187 0.649679 0.140704 0.215310
H20   H     H_    0.831160 0.812090 0.170678 0.266628
H21   H     H_    0.869891 0.805622 0.004004 0.264185
H22   H     H_    0.906479 0.927448 0.116046 0.272205
H23   H     H_    0.443826 0.479129 0.893524 0.144539
H24   H     H_    0.968722 0.898687 0.624255 0.174614
H25   H     H_    0.055842 0.804968 0.580052 0.136821
H26   H     H_    0.974986 0.765653 0.850983 0.251310
H27   H     H_    0.082268 0.739005 0.802230 0.197930
H28   H     H_    0.101547 0.973755 0.781833 0.264089
H29   H     H_    0.083184 0.920094 0.948246 0.267139
H30   H     H_    0.997695 0.989661 0.852807 0.269753
H31   H     H_    0.364376 0.877479 0.021556 0.255211
H32   H     H_    0.391476 0.721647 0.067614 0.248816
H33   H     H_    0.283948 0.775103 0.084540 0.259519
H34   H     H_    0.574097 0.653800 0.130545 0.100004
H35   H     H_    0.360423 0.770453 0.305097 0.228049
H36   H     H_    0.330739 0.924253 0.260187 0.215628
H37   H     H_    0.474783 0.966681 0.176971 0.201421
H38   H     H_    0.511915 0.820546 0.217504 0.223356
H39   H     H_    0.426647 0.975784 0.788685 0.161040
H40   H     H_    0.446234 0.816651 0.776123 0.176060
H41   H     H_    0.322970 0.966951 0.592697 0.212098
H42   H     H_    0.339745 0.803915 0.575540 0.202039
H43   H     H_    0.289617 0.770525 0.805799 0.270483
H44   H     H_    0.211139 0.839431 0.696650 0.270340
H45   H     H_    0.954618 0.332231 0.640887 0.154285
H46   H     H_    0.267702 0.934007 0.820002 0.263201
H47   H     H_    0.936209 0.476467 0.277716 0.151369
H48   H     H_    0.063478 0.530466 0.729778 0.148643
H49   H     H_    0.547842 0.107827 0.323352 0.164581
H50   H     H_    0.728650 0.728939 0.875718 0.184614
N1    N     N_2   0.500900 0.501330 0.852150 -0.200124
N2    N     N_2   0.500930 0.501360 0.147810 0.049865
O1    O     O_R   0.499990 0.319060 0.613040 -0.608564
O2    O     O_3   0.489300 0.388539 0.091902 -0.578013
O3    O     O_3   0.052025 0.696966 0.347127 -0.659761
O4    O     O_3   0.936826 0.716492 0.613505 -0.659396
O5    O     O_3   0.498640 0.927745 0.629111 -0.656412
O6    O     O_R   0.500010 0.319100 0.386900 -0.612611
O7    O     O_R   0.376760 0.499970 0.613050 -0.626731
O8    O     O_R   0.376790 0.500010 0.386910 -0.645241
O9    O     O_R   0.499990 0.680900 0.613100 -0.584178
O10   O     O_R   0.500010 0.680940 0.386960 -0.653434
O11   O     O_R   0.623210 0.499990 0.613090 -0.546370
O12   O     O_R   0.623240 0.500030 0.386950 -0.608323
O13   O     O_3   0.623118 0.618211 0.858103 -0.602706
Zn1   Zn    Zn3+2 0.499980 0.499970 0.650990 0.989444
Zn2   Zn    Zn3+2 0.500020 0.500030 0.349010 0.962320

loop_
_geom_bond_atom_site_label_1
_geom_bond_atom_site_label_2
_ccdc_geom_bond_type
C10   H45   S    
C16   H50   S    
C34   C37   S    
C22   O3    S    
C28   H29   S    
C18   H7    S    
C22   H17   S    
C32   O5    S    
C26   C27   S    
C1    C5    S    
C36   C37   S    
C28   H28   S    
C20   H11   S    
C10   C15   S    
C24   H19   S    
C30   C31   S    
C35   H46   S    
C31   H33   S    
C6    N1    D    
C23   O4    S    
C4    C13   S    
C11   C37   S    
C26   H24   S    
C20   H10   S    
C14   C39   T    
C29   H38   S    
C19   C20   S    
C2    O5    S    
C16   C17   S    
C5    H12   S    
C25   H20   S    
C12   C36   S    
C33   H42   S    
C15   C23   S    
N1    Zn1   S    
C18   H6    S    
C7    H34   S    
C26   O4    S    
C2    C8    S    
C34   C39   S    
C24   C25   S    
C21   H15   S    
C35   H43   S    
C19   H8    S    
C22   H16   S    
O6    Zn2   S    
C9    C14   S    
C17   H3    S    
C29   C30   S    
C35   H44   S    
O1    Zn1   S    
C32   H40   S    
C30   H36   S    
C19   H9    S    
N2    Zn2   S    
C12   C15   S    
C9    O11   A    
C23   C34   S    
N2    O2    S    
C17   C18   S    
O10   Zn2   S    
C10   C34   S    
C25   H21   S    
C13   C38   T    
C19   O2    S    
C16   O13   S    
C24   H18   S    
C31   H32   S    
C3    C40   S    
C4    O8    A    
C22   C24   S    
C18   H5    S    
C16   H2    S    
C8    O9    A    
O9    Zn1   S    
O7    Zn1   S    
O8    Zn2   S    
C26   H25   S    
C37   H47   S    
C28   H30   S    
C3    C5    D    
C1    O6    A    
C11   C12   S    
C6    C7    S    
C3    H49   S    
C32   C33   S    
C17   H4    S    
C27   H26   S    
C32   H39   S    
C21   H13   S    
C30   H35   S    
C36   O3    S    
C21   H14   S    
C33   H41   S    
C9    O12   A    
C7    N2    D    
C29   C40   S    
C31   H31   S    
C33   C35   S    
C6    O13   S    
C11   H1    S    
O11   Zn1   S    
C25   H22   S    
C12   C38   S    
C27   H27   S    
C10   C11   S    
C2    C40   D    
C29   H37   S    
C20   C21   S    
C1    O1    A    
C23   C36   S    
C4    O7    A    
H23   N1    S    
C27   C28   S    
C8    O10   A    
O12   Zn2   S    
C15   H48   S    
