data_mof_unit_21097.cif
_audit_creation_date              2012-12-10T19:00:44-0500
_audit_creation_method            fapswitch 2.2
_symmetry_space_group_name_H-M    P1
_symmetry_Int_Tables_number       1
_space_group_crystal_system       triclinic
_cell_length_a                    15.024316
_cell_length_b                    10.824796
_cell_length_c                    9.560012
_cell_angle_alpha                 89.883811
_cell_angle_beta                  89.829842
_cell_angle_gamma                 89.795908
_cell_volume                      1554.77415648

loop_
_atom_site_label
_atom_site_type_symbol
_atom_type_description
_atom_site_fract_x
_atom_site_fract_y
_atom_site_fract_z
_atom_type_partial_charge
C1    C     C_R   0.500283 0.262325 0.500045 0.797917
C2    C     C_R   0.905776 0.612553 0.529820 0.128397
C3    C     C_R   0.950569 0.283286 0.443163 -0.249649
C4    C     C_R   0.043191 0.278453 0.443250 0.217999
C5    C     C_R   0.093177 0.387951 0.468919 0.063253
C6    C     C_R   0.046621 0.499491 0.501111 -0.043976
C7    C     C_R   0.093362 0.609646 0.532972 0.079515
C8    C     C_R   0.045475 0.718408 0.562573 -0.155763
C9    C     C_R   0.953265 0.719963 0.560390 -0.179013
C10   C     C_R   0.187101 0.391341 0.462939 0.085612
C11   C     C_R   0.232434 0.500202 0.499814 -0.152308
C12   C     C_R   0.329071 0.500259 0.500028 0.851241
C13   C     C_R   0.186670 0.608973 0.534343 0.071803
C14   C     C_R   0.519259 0.062634 0.622893 0.025603
C15   C     C_R   0.507225 0.129026 0.499012 -0.055223
C16   C     C_R   0.509437 0.064430 0.371447 -0.192954
C17   C     C_R   0.511490 0.935660 0.371199 -0.189239
C18   C     C_R   0.512531 0.870285 0.498541 -0.084231
C19   C     C_R   0.525153 0.935950 0.622398 0.075574
C20   C     C_3   0.483006 0.925345 0.763920 -0.038844
C21   C     C_3   0.474200 0.066186 0.763031 -0.074668
C22   C     C_R   0.554975 0.577287 0.072884 0.229354
C23   C     C_R   0.502987 0.737447 0.499805 0.819196
C24   C     C_R   0.440783 0.431261 0.074830 -0.065543
C25   C     C_R   0.440809 0.431306 0.926102 -0.060247
C26   C     C_R   0.553687 0.579221 0.925666 0.272854
C27   C     C_3   0.652530 0.587960 0.915315 -0.542373
C28   C     C_3   0.654869 0.580501 0.074048 -0.088962
C29   C     C_R   0.670740 0.500687 0.499744 0.799737
C30   C     C_R   0.812295 0.613669 0.527939 0.078437
C31   C     C_R   0.766743 0.503563 0.499113 -0.083656
C32   C     C_R   0.812630 0.394759 0.469525 -0.249494
C33   C     C_R   0.905272 0.393031 0.470325 0.068951
C34   C     C_R   0.952645 0.501624 0.500644 0.034538
Cu1   Cu    Cu3+1 0.500000 0.499980 0.640670 0.969060
Cu2   Cu    Cu3+1 0.500000 0.500020 0.359330 0.962712
H1    H     H_    0.507612 0.888013 0.271887 0.160999
H2    H     H_    0.419295 0.873579 0.763806 0.220796
H3    H     H_    0.515008 0.113946 0.843160 0.141187
H4    H     H_    0.394079 0.373476 0.130823 0.146646
H5    H     H_    0.393860 0.374261 0.870835 0.177056
H6    H     H_    0.683907 0.507497 0.862431 0.221813
H7    H     H_    0.674107 0.679365 0.875000 0.194210
H8    H     H_    0.775751 0.311094 0.447037 0.142392
H9    H     H_    0.682113 0.664108 0.125789 0.162954
H10   H     H_    0.913313 0.199626 0.422956 0.168409
H11   H     H_    0.078071 0.804208 0.587501 0.204356
H12   H     H_    0.919473 0.806124 0.583488 0.189013
H13   H     H_    0.505173 0.112482 0.272185 0.163554
N1    N     N_R   0.500570 0.500930 0.147930 -0.185134
N2    N     N_R   0.500570 0.500890 0.852020 -0.191423
O1    O     O_R   0.500000 0.319640 0.618810 -0.574006
O2    O     O_R   0.500010 0.319680 0.381230 -0.594512
O3    O     O_R   0.370250 0.499950 0.618800 -0.558369
O4    O     O_R   0.370260 0.499990 0.381220 -0.583409
O5    O     O_R   0.499990 0.680320 0.618770 -0.558866
O6    O     O_R   0.500000 0.680360 0.381190 -0.588493
O7    O     O_R   0.629740 0.500010 0.618780 -0.598081
O8    O     O_R   0.629750 0.500050 0.381200 -0.544117
N3    N     N_3   0.764347 0.726828 0.551960 -0.613302
H14   H     H_    0.724926 0.745366 0.464382 0.212368
H15   H     H_    0.722398 0.714897 0.638167 0.226050
N4    N     N_3   0.545757 0.878979 0.868665 -0.603287
H16   H     H_    0.516995 0.891978 0.967280 0.220791
H17   H     H_    0.604662 0.930305 0.866061 0.217675
I1    I     I_    0.337005 0.122159 0.756446 -0.362884
N5    N     N_3   0.695258 0.465153 0.124102 -0.518474
H18   H     H_    0.763321 0.468095 0.101202 0.228796
H19   H     H_    0.668585 0.389309 0.071087 0.224546
I2    I     I_    0.093689 0.095413 0.413120 -0.306415
N6    N     N_3   0.237051 0.286584 0.414627 -0.524712
H20   H     H_    0.270686 0.310767 0.322783 0.230197
H21   H     H_    0.283769 0.261770 0.490390 0.245015
I3    I     I_    0.261181 0.773280 0.579457 -0.318951

loop_
_geom_bond_atom_site_label_1
_geom_bond_atom_site_label_2
_ccdc_geom_bond_type
C24   C25   A    
N4    H17   S    
C21   I1    S    
C19   C20   S    
Cu2   O8    S    
C4    I2    S    
C7    C8    A    
C26   C27   S    
Cu1   O7    S    
C14   C21   S    
C5    C6    A    
C3    C33   A    
C15   C16   A    
N3    H15   S    
C18   C19   A    
C1    O2    A    
Cu2   O2    S    
C31   C32   A    
C16   C17   A    
C30   N3    S    
C1    C15   S    
C22   N1    A    
C10   N6    S    
C2    C34   A    
C22   C28   S    
Cu1   O3    S    
C33   C34   A    
C24   N1    A    
C28   H9    S    
N5    H18   S    
C29   O8    A    
C23   O5    A    
C28   N5    S    
C16   H13   S    
Cu2   O6    S    
C25   H5    S    
N6    H21   S    
C8    C9    A    
C6    C34   A    
N3    H14   S    
N5    H19   S    
Cu1   Cu2   S    
C25   N2    A    
C20   H2    S    
C18   C23   S    
C21   H3    S    
C17   C18   A    
C32   H8    S    
C17   H1    S    
C29   O7    A    
Cu1   N2    S    
C3    C4    A    
Cu1   O1    S    
Cu2   N1    S    
C23   O6    A    
Cu1   O5    S    
C14   C19   A    
C4    C5    A    
C11   C12   S    
C6    C7    A    
C3    H10   S    
C2    C30   A    
C32   C33   A    
C20   N4    S    
C8    H11   S    
C5    C10   A    
C29   C31   S    
Cu2   O4    S    
C26   N2    A    
C11   C13   A    
C27   H6    S    
C30   C31   A    
C24   H4    S    
C1    O1    A    
C12   O4    A    
C10   C11   A    
N4    H16   S    
C27   H7    S    
C7    C13   A    
N6    H20   S    
C20   C21   S    
C9    H12   S    
C22   C26   A    
C27   C28   S    
C14   C15   A    
C2    C9    A    
C12   O3    A    
C13   I3    S    
