data_mof_unit_35254.cif
_audit_creation_date              2013-03-05T16:04:07-0500
_audit_creation_method            fapswitch 2.2
_symmetry_space_group_name_H-M    P1
_symmetry_Int_Tables_number       1
_space_group_crystal_system       triclinic
_cell_length_a                    10.899582
_cell_length_b                    9.49691
_cell_length_c                    10.86663
_cell_angle_alpha                 93.085186
_cell_angle_beta                  92.30415
_cell_angle_gamma                 88.619504
_cell_volume                      1122.02089334

loop_
_atom_site_label
_atom_site_type_symbol
_atom_site_description
_atom_site_fract_x
_atom_site_fract_y
_atom_site_fract_z
_atom_type_partial_charge
O1    O     O_R   0.319640 0.618740 0.499990 -0.602790
O2    O     O_R   0.680360 0.618740 0.500010 -0.598971
O3    O     O_R   0.319620 0.381170 0.499990 -0.534536
O4    O     O_R   0.680380 0.381170 0.500010 -0.548256
C1    C     C_R   0.262157 0.500968 0.501341 0.896502
C2    C     C_R   0.738121 0.498178 0.504158 0.861989
O5    O     O_R   0.500000 0.618810 0.319650 -0.583397
O6    O     O_R   0.500000 0.618810 0.680350 -0.589553
O7    O     O_R   0.499970 0.381240 0.319640 -0.579751
O8    O     O_R   0.500030 0.381240 0.680360 -0.593366
C3    C     C_R   0.495582 0.496768 0.261794 0.928375
C4    C     C_R   0.508872 0.504343 0.738705 0.746676
Cu1   Cu    Cu3+1 0.500000 0.640660 0.500000 0.966982
Cu2   Cu    Cu3+1 0.500000 0.359340 0.500000 0.993052
C5    C     C_R   0.328900 0.684781 0.111878 0.033197
C6    C     C_R   0.450132 0.765980 0.907004 0.013814
C7    C     C_R   0.294900 0.810109 0.056407 -0.234000
C8    C     C_R   0.358630 0.853349 0.958117 -0.229264
H1    H     H_    0.222065 0.877887 0.092744 0.142243
H2    H     H_    0.341500 0.958791 0.926902 0.153026
C9    C     C_R   0.467030 0.625869 0.945553 0.069572
C10   C     C_R   0.426192 0.597307 0.062489 0.048756
C11   C     C_R   0.490793 0.489977 0.126692 -0.156858
C12   C     C_R   0.524575 0.514326 0.874811 -0.153676
C13   C     C_R   0.570247 0.393095 0.063154 -0.081039
C14   C     C_R   0.581453 0.400291 0.935083 -0.055017
C15   C     C_R   0.064511 0.385559 0.448742 0.373481
C16   C     C_R   0.937840 0.378870 0.459339 0.381519
C17   C     C_R   0.872707 0.494175 0.514111 -0.296822
C18   C     C_R   0.128225 0.501414 0.505005 -0.271438
C19   C     C_R   0.936310 0.604272 0.580235 -0.112203
C20   C     C_R   0.064755 0.611355 0.570890 -0.106003
C21   C     C_R   0.417576 0.072322 0.426902 0.003217
C22   C     C_R   0.582023 0.076632 0.573032 -0.004957
H3    H     H_    0.352173 0.126667 0.367870 0.145773
H4    H     H_    0.646935 0.134445 0.632357 0.145057
C23   C     C_R   0.416651 0.923486 0.428022 0.023643
C24   C     C_R   0.584250 0.927695 0.570255 -0.060950
H5    H     H_    0.349855 0.865861 0.370664 0.106849
H6    H     H_    0.653298 0.873239 0.624657 0.172279
N1    N     N_R   0.500000 0.852070 0.500000 -0.175818
N2    N     N_R   0.500000 0.147940 0.500000 -0.173560
C25   C     C_2   0.649343 0.291922 0.131281 0.460170
H7    H     H_    0.634901 0.179404 0.118275 0.106327
O9    O     O_2   0.732397 0.334711 0.201016 -0.518635
C26   C     C_2   0.665304 0.301025 0.865623 0.377429
H8    H     H_    0.713851 0.337463 0.788424 0.048498
O10   O     O_2   0.678677 0.177865 0.891160 -0.570332
C27   C     C_2   0.249895 0.644154 0.210328 0.329342
H9    H     H_    0.195296 0.723180 0.260833 0.076332
O11   O     O_2   0.238863 0.521012 0.231156 -0.630571
C28   C     C_2   0.547559 0.838824 0.847339 0.430275
H10   H     H_    0.527694 0.940046 0.808488 0.080038
O12   O     O_2   0.652956 0.792783 0.850490 -0.544448
O13   O     O_3   0.127416 0.269806 0.395933 -0.589048
C29   C     C_3   0.114041 0.264627 0.265420 0.180637
H11   H     H_    0.207059 0.271400 0.228631 0.185643
H12   H     H_    0.054944 0.350857 0.227171 0.182045
C30   C     C_3   0.064307 0.123214 0.216315 -0.813693
H13   H     H_    0.963263 0.122639 0.223408 0.296233
H14   H     H_    0.084581 0.106133 0.117204 0.208211
H15   H     H_    0.107821 0.035909 0.267760 0.235769
O14   O     O_3   0.877652 0.259895 0.412091 -0.531732
C31   C     C_3   0.894172 0.151918 0.496564 0.133082
H16   H     H_    0.843046 0.179963 0.581116 0.125593
H17   H     H_    0.992336 0.133580 0.524825 0.198120
C32   C     C_3   0.846458 0.013799 0.437313 -0.699006
H18   H     H_    0.911189 0.968334 0.369061 0.234373
H19   H     H_    0.838082 0.936160 0.508808 0.234231
H20   H     H_    0.755450 0.031087 0.390279 0.248218
C33   C     C_2   0.869158 0.693774 0.673962 0.407694
H21   H     H_    0.786118 0.654320 0.709775 0.102309
O15   O     O_2   0.904670 0.809005 0.713598 -0.496227
C34   C     C_2   0.134683 0.725964 0.637775 0.534692
H22   H     H_    0.205243 0.700454 0.706931 0.035996
O16   O     O_2   0.118443 0.848385 0.610865 -0.521344

loop_
_geom_bond_atom_site_label_1
_geom_bond_atom_site_label_2
_geom_bond_distance
_ccdc_geom_bond_type
C18   C20   1.416287 A    
O13   C29   1.418196 S    
C6    C9    1.421943 A    
C22   N2    1.363569 A    
C25   H7    1.084745 S    
C13   C25   1.483178 S    
Cu1   N1    2.007742 S    
C11   C13   1.419351 A    
O5    C3    1.289464 A    
O6    Cu1   1.981827 S    
C34   O16   1.221084 D    
O1    C1    1.296156 A    
C21   N2    1.366039 A    
C16   C17   1.408441 A    
C12   C14   1.413332 A    
C20   C34   1.484636 S    
C15   O13   1.391151 S    
C29   H11   1.109214 S    
O2    Cu1   1.971843 S    
C7    H1    1.083364 S    
C5    C10   1.434582 A    
C27   O11   1.212762 D    
C22   H4    1.077757 S    
Cu2   N2    2.007647 S    
C19   C33   1.494099 S    
C30   H13   1.107280 S    
C22   C24   1.412785 A    
Cu1   Cu2   2.671671 S    
C15   C18   1.413120 A    
C23   N1    1.366512 A    
O2    C2    1.295329 A    
C28   O12   1.219134 D    
C26   O10   1.220565 D    
C30   H14   1.110711 S    
C34   H22   1.085845 S    
C32   H18   1.107794 S    
C31   C32   1.523364 S    
C24   N1    1.363193 A    
O4    C2    1.288003 A    
O8    Cu2   1.959734 S    
C33   O15   1.220326 D    
C13   C14   1.407383 A    
C21   C23   1.414479 A    
C32   H19   1.107336 S    
C31   H17   1.113452 S    
O7    Cu2   1.981996 S    
O7    C3    1.292467 A    
C19   C20   1.411215 A    
O6    C4    1.287403 A    
C7    C8    1.382951 A    
C25   O9    1.219942 D    
O3    Cu2   1.971990 S    
O8    C4    1.303373 A    
O1    Cu1   1.981816 S    
C28   H10   1.084218 S    
C1    C18   1.461844 S    
C5    C7    1.398332 A    
C26   H8    1.085927 S    
C30   H15   1.111097 S    
C17   C19   1.415676 A    
C6    C28   1.471614 S    
O3    C1    1.285101 A    
C4    C12   1.480238 S    
C29   C30   1.522133 S    
C32   H20   1.110209 S    
C31   H16   1.110547 S    
C33   H21   1.082309 S    
C23   H5    1.078902 S    
C24   H6    1.077826 S    
C3    C11   1.464930 S    
C21   H3    1.080366 S    
C29   H12   1.117132 S    
C8    H2    1.084039 S    
C5    C27   1.472894 S    
O4    Cu2   1.981922 S    
C14   C26   1.493686 S    
O14   C31   1.416232 S    
C16   O14   1.384495 S    
O5    Cu1   1.959615 S    
C2    C17   1.466294 S    
C6    C8    1.395247 A    
C27   H9    1.085838 S    
C9    C12   1.423229 A    
C15   C16   1.393307 A    
C10   C11   1.422662 A    
C9    C10   1.405271 A    
