data_mof_unit_36814.cif
_audit_creation_date              2012-10-26T21:13:38-0400
_audit_creation_method            fapswitch 2.2
_symmetry_space_group_name_H-M    P1
_symmetry_Int_Tables_number       1
_space_group_crystal_system       triclinic
_cell_length_a                    9.072844
_cell_length_b                    10.82915
_cell_length_c                    9.570303
_cell_angle_alpha                 90.132267
_cell_angle_beta                  90.250447
_cell_angle_gamma                 90.645972
_cell_volume                      940.222288808

loop_
_atom_site_label
_atom_site_type_symbol
_atom_type_description
_atom_site_fract_x
_atom_site_fract_y
_atom_site_fract_z
_atom_type_partial_charge
Br1   Br    Br    0.269100 0.313343 0.156991 -0.475859
C1    C     C_R   0.498587 0.262332 0.499933 0.557571
C2    C     C_R   0.582761 0.584562 0.927068 0.141335
C3    C     C_3   0.745965 0.601391 0.921875 -0.268185
C4    C     C_R   0.220753 0.499920 0.499800 0.573653
C5    C     C_3   0.746143 0.601193 0.080457 -0.269682
C6    C     C_R   0.498290 0.737533 0.500016 0.542669
C7    C     C_R   0.779235 0.500112 0.500207 0.547427
C8    C     C_1   0.065561 0.499980 0.499727 -0.032947
C9    C     C_1   0.934414 0.500054 0.500264 -0.051735
C10   C     C_R   0.487936 0.063604 0.625636 0.071669
C11   C     C_R   0.486823 0.128917 0.499865 -0.010708
C12   C     C_R   0.465927 0.934931 0.373961 -0.152606
C13   C     C_R   0.467004 0.063561 0.373935 -0.136866
C14   C     C_2   0.530847 0.125754 0.875327 0.239062
C15   C     C_R   0.485936 0.870507 0.499825 -0.006499
C16   C     C_R   0.488335 0.936241 0.625284 0.031046
C17   C     C_3   0.594971 0.929552 0.744409 -0.243750
C18   C     C_3   0.595284 0.070226 0.745069 -0.106345
C19   C     C_R   0.582852 0.584550 0.074200 0.128115
C20   C     C_R   0.406202 0.425363 0.071837 0.255600
C21   C     C_R   0.406928 0.425869 0.923746 0.023188
Cu1   Cu    Cu3+1 0.499990 0.499980 0.640670 0.953921
Cu2   Cu    Cu3+1 0.500010 0.500020 0.359330 1.005831
H1    H     H_    0.459040 0.111047 0.274885 0.195503
H2    H     H_    0.803102 0.520374 0.876731 0.164390
H3    H     H_    0.595287 0.192486 0.935092 0.109224
H4    H     H_    0.778403 0.692073 0.876584 0.127456
H5    H     H_    0.803344 0.520009 0.125188 0.170711
H6    H     H_    0.778838 0.691736 0.126703 0.135877
H7    H     H_    0.456383 0.886652 0.275023 0.156490
H8    H     H_    0.544755 0.885646 0.838067 0.170923
H9    H     H_    0.702523 0.890098 0.712907 0.111964
H10   H     H_    0.703143 0.112137 0.715252 0.094343
H11   H     H_    0.333991 0.364210 0.866356 0.172099
N1    N     N_R   0.500920 0.500930 0.147930 -0.228796
N2    N     N_R   0.500930 0.500890 0.852020 -0.264033
O1    O     O_R   0.500000 0.319640 0.618810 -0.508789
O2    O     O_R   0.500020 0.319680 0.381230 -0.469071
O3    O     O_R   0.288380 0.499980 0.618770 -0.504345
O4    O     O_R   0.288400 0.500020 0.381190 -0.450759
O5    O     O_R   0.499980 0.680320 0.618770 -0.496335
O6    O     O_R   0.500000 0.680360 0.381190 -0.510168
O7    O     O_R   0.711600 0.499980 0.618810 -0.508048
O8    O     O_R   0.711620 0.500020 0.381230 -0.502255
O9    O     O_2   0.407851 0.096137 0.915580 -0.482284

loop_
_geom_bond_atom_site_label_1
_geom_bond_atom_site_label_2
_ccdc_geom_bond_type
C3    H2    S    
C10   C11   A    
Br1   C20   S    
C21   H11   S    
C6    O6    A    
Cu1   O1    S    
C5    C19   S    
C8    C9    T    
C1    O1    A    
C14   H3    S    
C4    O3    A    
Cu1   Cu2   S    
C1    C11   S    
C5    H5    S    
C16   C17   S    
C2    C19   A    
C20   N1    A    
C12   C13   A    
C14   C18   S    
Cu2   O4    S    
C10   C18   S    
C4    C8    S    
Cu2   N1    S    
Cu1   O5    S    
Cu2   O8    S    
C20   C21   A    
C6    C15   S    
C5    H6    S    
C11   C13   A    
C13   H1    S    
C17   H9    S    
C6    O5    A    
C17   H8    S    
Cu1   O3    S    
C19   N1    A    
C7    O7    A    
Cu2   O2    S    
C2    N2    A    
C3    C5    S    
C17   C18   S    
C12   C15   A    
Cu2   O6    S    
C4    O4    A    
C7    O8    A    
C10   C16   A    
C14   O9    D    
C3    H4    S    
Cu1   N2    S    
C21   N2    A    
C1    O2    A    
C12   H7    S    
C7    C9    S    
Cu1   O7    S    
C2    C3    S    
C15   C16   A    
C18   H10   S    
