data_mof_unit_14988.cif
_audit_creation_date              2012-12-11T16:57:18-0500
_audit_creation_method            fapswitch 2.2
_symmetry_space_group_name_H-M    P1
_symmetry_Int_Tables_number       1
_space_group_crystal_system       triclinic
_cell_length_a                    14.561032
_cell_length_b                    16.132294
_cell_length_c                    6.936248
_cell_angle_alpha                 90.0
_cell_angle_beta                  98.80855
_cell_angle_gamma                 90.000031
_cell_volume                      1610.12718185

loop_
_atom_site_label
_atom_site_type_symbol
_atom_type_description
_atom_site_fract_x
_atom_site_fract_y
_atom_site_fract_z
_atom_type_partial_charge
O1    O     O_R   0.584990 0.413650 0.534420 -0.539399
O2    O     O_R   0.584990 0.586350 0.534420 -0.539392
O3    O     O_R   0.596190 0.585230 0.208380 -0.540360
O4    O     O_R   0.596190 0.414770 0.208380 -0.540355
O5    O     O_R   0.415010 0.586420 0.976930 -0.536517
O6    O     O_R   0.415010 0.413580 0.976930 -0.536520
C1    C     C_R   0.618536 0.614555 0.384217 0.698266
C2    C     C_R   0.618538 0.385446 0.384218 0.698288
O7    O     O_3   0.440560 0.500000 0.319140 -0.368074
V1    V     V_3+5 0.511030 0.500000 0.068070 1.391775
O8    O     O_R   0.403810 0.414840 0.643540 -0.543976
O9    O     O_R   0.403810 0.585160 0.643540 -0.543976
C3    C     C_R   0.381016 0.386409 0.805747 0.748719
C4    C     C_R   0.381018 0.613592 0.805747 0.748750
V2    V     V_3+5 0.488970 0.500000 0.560620 1.390123
O10   O     O_3   0.559440 0.500000 0.859420 -0.373519
H1    H     H_    0.188591 0.806199 0.805761 0.154359
H2    H     H_    0.188590 0.193802 0.805761 0.154359
H3    H     H_    0.318831 0.693401 0.102097 0.155001
H4    H     H_    0.318830 0.306600 0.102097 0.155002
C5    C     C_2   0.312122 0.681619 0.796157 -0.344113
C6    C     C_2   0.312120 0.318382 0.796157 -0.344098
C7    C     C_2   0.287888 0.715762 0.958987 -0.125339
C8    C     C_2   0.287887 0.284239 0.958986 -0.125341
H5    H     H_    0.225487 0.795520 0.254392 0.125411
H6    H     H_    0.225487 0.204480 0.254392 0.125410
C9    C     C_2   0.194715 0.818168 0.111446 -0.346118
C10   C     C_2   0.194715 0.181832 0.111446 -0.346118
C11   C     C_2   0.219407 0.783966 0.949076 -0.128732
C12   C     C_2   0.219406 0.216035 0.949076 -0.128733
H7    H     H_    0.281248 0.704565 0.653553 0.125510
H8    H     H_    0.281246 0.295436 0.653553 0.125511
C13   C     C_R   0.682424 0.743987 0.562416 0.108430
C14   C     C_R   0.682423 0.256010 0.562403 0.108401
C15   C     C_R   0.684860 0.685533 0.413329 -0.143145
C16   C     C_R   0.684864 0.314471 0.413332 -0.143113
C17   C     C_R   0.749820 0.699757 0.285256 -0.178473
C18   C     C_R   0.749830 0.300252 0.285264 -0.178454
H9    H     H_    0.753766 0.657501 0.165870 0.128046
H10   H     H_    0.753781 0.342512 0.165882 0.128019
C19   C     C_R   0.814470 0.765671 0.317139 -0.172682
C20   C     C_R   0.814478 0.234335 0.317146 -0.172693
H11   H     H_    0.865932 0.772107 0.221020 0.121254
H12   H     H_    0.865947 0.227905 0.221035 0.121241
C21   C     C_R   0.816976 0.818914 0.479405 -0.108472
C22   C     C_R   0.816976 0.181085 0.479403 -0.108461
C23   C     C_R   0.747337 0.808015 0.595606 0.061389
C24   C     C_R   0.747333 0.191981 0.595590 0.061375
C25   C     C_3   0.754156 0.801366 0.811570 -0.397468
C26   C     C_3   0.754123 0.198601 0.811545 -0.397487
C27   C     C_3   0.682147 0.732095 0.775945 -0.033708
C28   C     C_3   0.682119 0.267876 0.775926 -0.033729
H13   H     H_    0.729825 0.858629 0.877412 0.180113
H14   H     H_    0.729779 0.141330 0.877321 0.180113
H15   H     H_    0.823741 0.779087 0.879966 0.147148
H16   H     H_    0.823701 0.220869 0.879994 0.147172
H17   H     H_    0.708954 0.670198 0.827709 0.141137
H18   H     H_    0.708922 0.329766 0.827751 0.141144
O11   O     O_R   0.921430 0.915960 0.371040 -0.536347
O12   O     O_R   0.921430 0.084040 0.371040 -0.536346
O13   O     O_R   0.910450 0.087500 0.697310 -0.543162
O14   O     O_R   0.910450 0.912500 0.697310 -0.543160
O15   O     O_R   0.091710 0.087460 0.928430 -0.540635
O16   O     O_R   0.091710 0.912540 0.928430 -0.540635
C29   C     C_R   0.888172 0.114477 0.519319 0.699125
C30   C     C_R   0.888173 0.885522 0.519319 0.699120
O17   O     O_3   0.065970 0.000000 0.586140 -0.370713
V3    V     V_3+5 0.995640 0.000000 0.837400 1.402106
O18   O     O_R   0.103020 0.915700 0.261710 -0.542794
O19   O     O_R   0.103020 0.084300 0.261710 -0.542794
C31   C     C_R   0.125370 0.885942 0.100277 0.755404
C32   C     C_R   0.125370 0.114058 0.100277 0.755405
V4    V     V_3+5 0.017940 0.000000 0.344880 1.391858
O20   O     O_3   0.947330 1.000000 0.046180 -0.371300
C33   C     C_3   0.588639 0.754526 0.836848 -0.716679
H19   H     H_    0.595320 0.755856 0.998287 0.213248
H20   H     H_    0.563765 0.816059 0.778507 0.201205
H21   H     H_    0.536390 0.707210 0.780350 0.208177
C34   C     C_3   0.588602 0.245438 0.836758 -0.716574
H22   H     H_    0.595299 0.243989 0.998218 0.213224
H23   H     H_    0.536382 0.292831 0.780460 0.208176
H24   H     H_    0.563676 0.183945 0.778144 0.201188

loop_
_geom_bond_atom_site_label_1
_geom_bond_atom_site_label_2
_ccdc_geom_bond_type
C9    C11   D    
O1    C2    A    
H1    C11   S    
V4    O20   S    
O2    C1    A    
O4    C2    A    
C23   C25   S    
C5    H7    S    
C26   H14   S    
C6    H8    S    
C7    C11   S    
C4    C5    S    
C15   C17   A    
C27   C33   S    
C18   C20   A    
O3    C1    A    
O11   C30   A    
C20   C22   A    
V3    O20   S    
V2    O10   S    
O12   V4    S    
C2    C16   S    
O16   C31   A    
O18   C31   A    
O8    V2    S    
H4    C8    S    
C25   C27   S    
C26   C28   S    
O18   V4    S    
O1    V2    S    
C28   C34   S    
O7    V1    S    
O11   V4    S    
C24   C26   S    
C19   H11   S    
C10   C32   S    
C20   H12   S    
H6    C10   S    
C21   C23   A    
C22   C24   A    
O14   C30   A    
O17   V3    S    
C22   C29   S    
C34   H23   S    
C25   H15   S    
C26   H16   S    
H3    C7    S    
C33   H19   S    
O9    V2    S    
O19   V4    S    
O2    V2    S    
C33   H20   S    
O5    C4    A    
C28   H18   S    
C27   H17   S    
O17   V4    S    
O9    C4    A    
O12   C29   A    
C5    C7    D    
H2    C12   S    
C13   C23   A    
C6    C8    D    
C14   C24   A    
O4    V1    S    
O16   V3    S    
C9    C31   S    
O15   V3    S    
C1    C15   S    
O6    V1    S    
C34   H24   S    
C13   C27   S    
C14   C28   S    
O14   V3    S    
C16   C18   A    
O7    V2    S    
O5    V1    S    
C17   H9    S    
O3    V1    S    
V1    O10   S    
O6    C3    A    
C18   H10   S    
O8    C3    A    
O13   V3    S    
C25   H13   S    
C10   C12   D    
C13   C15   A    
C3    C6    S    
C14   C16   A    
C17   C19   A    
C33   H21   S    
C8    C12   S    
C34   H22   S    
O13   C29   A    
O15   C32   A    
C21   C30   S    
C19   C21   A    
O19   C32   A    
H5    C9    S    
