data_mof_unit_39161.cif
_audit_creation_date              2012-12-11T14:03:27-0500
_audit_creation_method            fapswitch 2.2
_symmetry_space_group_name_H-M    P1
_symmetry_Int_Tables_number       1
_space_group_crystal_system       triclinic
_cell_length_a                    6.936923
_cell_length_b                    11.397644
_cell_length_c                    18.673331
_cell_angle_alpha                 89.999922
_cell_angle_beta                  92.951983
_cell_angle_gamma                 90.000201
_cell_volume                      1474.43993457

loop_
_atom_site_label
_atom_site_type_symbol
_atom_type_description
_atom_site_fract_x
_atom_site_fract_y
_atom_site_fract_z
_atom_type_partial_charge
O1    O     O_R   0.330540 0.606360 0.598870 -0.537411
O2    O     O_R   0.669460 0.106360 0.401130 -0.537411
O3    O     O_R   0.026770 0.620470 0.750430 -0.540075
O4    O     O_R   0.973230 0.120470 0.249570 -0.540076
O5    O     O_R   0.856460 0.393640 0.750930 -0.541261
O6    O     O_R   0.143540 0.893640 0.249070 -0.541266
C1    C     C_R   0.198856 0.648535 0.774483 0.707889
C2    C     C_R   0.801144 0.148535 0.225517 0.707891
O7    O     O_R   0.000920 0.620350 0.599420 -0.548879
O8    O     O_R   0.999080 0.120350 0.400580 -0.548879
O9    O     O_R   0.830430 0.393520 0.598850 -0.537847
O10   O     O_R   0.169570 0.893520 0.401150 -0.537846
C3    C     C_R   0.166597 0.647867 0.574510 0.765633
C4    C     C_R   0.833403 0.147867 0.425490 0.765630
O11   O     O_R   0.356570 0.606480 0.750960 -0.536616
O12   O     O_R   0.643430 0.106480 0.249040 -0.536616
O13   O     O_3   0.176990 0.425580 0.674890 -0.377829
O14   O     O_3   0.823010 0.925580 0.325110 -0.377829
V1    V     V_3+5 0.902170 0.513810 0.674910 1.410204
V2    V     V_3+5 0.097830 0.013810 0.325090 1.410199
O15   O     O_R   0.500800 0.379530 0.599380 -0.549453
O16   O     O_R   0.499200 0.879530 0.400620 -0.549454
C5    C     C_R   0.666498 0.351978 0.574501 0.764187
C6    C     C_R   0.333502 0.851978 0.425499 0.764189
O17   O     O_R   0.526650 0.379650 0.750390 -0.542716
O18   O     O_R   0.473350 0.879650 0.249610 -0.542706
C7    C     C_R   0.698691 0.351517 0.774383 0.697867
C8    C     C_R   0.301309 0.851518 0.225616 0.697871
V3    V     V_3+5 0.402160 0.486190 0.674900 1.405938
V4    V     V_3+5 0.597840 0.986190 0.325100 1.405945
O19   O     O_3   0.677210 0.574420 0.674910 -0.371038
O20   O     O_3   0.322790 0.074420 0.325090 -0.371039
C9    C     C_R   0.724380 0.070757 0.879261 -0.060261
C10   C     C_R   0.275728 0.570759 0.120739 -0.060271
H1    H     H_    0.692947 0.115026 0.767670 0.092847
H2    H     H_    0.307187 0.615034 0.232328 0.092854
H3    H     H_    0.720847 0.977521 0.867968 0.171659
H4    H     H_    0.279315 0.477526 0.132031 0.171662
C11   C     C_R   0.715223 0.269193 0.834359 -0.045172
C12   C     C_R   0.284784 0.769191 0.165642 -0.045183
C13   C     C_R   0.780702 0.351442 0.181236 -0.204266
C14   C     C_R   0.219324 0.851441 0.818766 -0.204271
C15   C     C_R   0.767636 0.435337 0.126170 0.335236
C16   C     C_R   0.232420 0.935336 0.873833 0.335238
C17   C     C_R   0.756855 0.396990 0.054750 -0.101463
C18   C     C_R   0.243191 0.896987 0.945253 -0.101456
C19   C     C_R   0.758859 0.276195 0.036611 0.080021
C20   C     C_R   0.241156 0.776190 0.963390 0.080027
C21   C     C_R   0.772341 0.192782 0.093381 -0.027764
C22   C     C_R   0.227671 0.692779 0.906620 -0.027768
C23   C     C_R   0.745581 0.235471 0.964010 0.039311
C24   C     C_R   0.254431 0.735466 0.035991 0.039305
C25   C     C_R   0.742687 0.112541 0.950122 -0.008635
C26   C     C_R   0.257377 0.612539 0.049879 -0.008638
C27   C     C_R   0.757308 0.032565 0.006965 0.560491
C28   C     C_R   0.242764 0.532564 0.993035 0.560497
C29   C     C_R   0.772737 0.072088 0.077308 -0.267575
C30   C     C_R   0.227296 0.572086 0.922693 -0.267573
C31   C     C_R   0.734176 0.312395 0.904414 -0.121881
C32   C     C_R   0.265780 0.812386 0.095587 -0.121900
C33   C     C_R   0.708727 0.148697 0.821904 -0.186118
C34   C     C_R   0.291364 0.648701 0.178096 -0.186105
C35   C     C_R   0.784258 0.231652 0.165451 -0.094524
C36   C     C_R   0.215746 0.731650 0.834550 -0.094522
H5    H     H_    0.738717 0.406390 0.910125 0.097609
H6    H     H_    0.261139 0.906373 0.089875 0.097621
H7    H     H_    0.788771 0.377960 0.236945 0.103835
H8    H     H_    0.211256 0.877960 0.763058 0.103834
H9    H     H_    0.743977 0.464640 0.014601 0.104046
H10   H     H_    0.256107 0.964636 0.985402 0.104046
H11   H     H_    0.783465 0.006550 0.119295 0.149549
H12   H     H_    0.216570 0.506548 0.880705 0.149548
C37   C     C_2   0.832049 0.233707 0.484753 -0.352997
C38   C     C_2   0.167951 0.733707 0.515247 -0.352998
H13   H     H_    0.969685 0.270587 0.503882 0.149854
H14   H     H_    0.030316 0.770588 0.496118 0.149854
C39   C     C_2   0.667876 0.266101 0.515262 -0.352769
C40   C     C_2   0.332123 0.766101 0.484738 -0.352770
H15   H     H_    0.530243 0.229214 0.496136 0.150027
H16   H     H_    0.469757 0.729215 0.503864 0.150027
F1    F     F_    0.756174 0.915069 0.994592 -0.705972
F2    F     F_    0.243940 0.415069 0.005408 -0.705975
N1    N     N_2   0.760003 0.558771 0.140234 -0.515027
H17   H     H_    0.805917 0.612906 0.100230 0.271731
C41   C     C_3   0.794741 0.602721 0.212493 -0.509354
H18   H     H_    0.788091 0.700103 0.212148 0.212964
H19   H     H_    0.939530 0.575203 0.234300 0.180800
H20   H     H_    0.681727 0.570283 0.247526 0.185201
N2    N     N_2   0.240103 0.058771 0.859770 -0.515027
H21   H     H_    0.194206 0.112913 0.899774 0.271730
C42   C     C_3   0.205376 0.102725 0.787513 -0.509352
H22   H     H_    0.212062 0.200108 0.787860 0.212967
H23   H     H_    0.060574 0.075225 0.765706 0.180798
H24   H     H_    0.318375 0.070271 0.752478 0.185206

loop_
_geom_bond_atom_site_label_1
_geom_bond_atom_site_label_2
_ccdc_geom_bond_type
C21   C35   A    
C15   N1    S    
O4    C2    A    
V1    O19   S    
C21   C29   A    
C19   C21   A    
C41   H18   S    
O9    V1    S    
C38   H14   S    
C12   C32   A    
C22   C36   A    
O3    C1    A    
C40   H16   S    
C8    C12   S    
O12   V4    S    
C10   C34   A    
C12   C34   A    
C29   H11   S    
O17   V3    S    
C17   C19   A    
O7    C3    A    
C24   C32   A    
O5    C7    A    
O7    V1    S    
O6    C8    A    
C7    C11   S    
O3    V1    S    
O14   V4    S    
N2    C42   S    
C24   C26   A    
C39   H15   S    
C32   H6    S    
C2    O12   A    
C14   H8    S    
C13   C15   A    
C14   C16   A    
H2    C34   S    
C16   C18   A    
O11   V3    S    
C18   C20   A    
C25   C27   A    
C9    C25   A    
C11   C33   A    
C26   C28   A    
C41   H19   S    
C17   H9    S    
C22   C30   A    
C4    C37   S    
C13   H7    S    
O8    C4    A    
O8    V2    S    
C42   H22   S    
C19   C23   A    
C1    O11   A    
O15   V3    S    
C9    H3    S    
C23   C25   A    
O1    C3    A    
C42   H23   S    
N1    H17   S    
C11   C31   A    
O10   V2    S    
O1    V3    S    
H1    C33   S    
C5    C39   S    
C20   C22   A    
C15   C17   A    
C6    C40   S    
N1    C41   S    
C10   C26   A    
O15   C5    A    
O16   C6    A    
C27   F1    S    
C37   H13   S    
C14   C36   A    
V2    O20   S    
C41   H20   S    
C37   C39   D    
O16   V4    S    
C10   H4    S    
C28   F2    S    
O5    V1    S    
O17   C7    A    
O6    V2    S    
O10   C6    A    
O18   C8    A    
O2    V4    S    
C27   C29   A    
V3    O19   S    
O13   V3    S    
C31   H5    S    
C42   H24   S    
V4    O20   S    
C30   H12   S    
O9    C5    A    
O13   V1    S    
C28   C30   A    
O14   V2    S    
O2    C4    A    
C1    C36   S    
C18   H10   S    
C2    C35   S    
O4    V2    S    
C20   C24   A    
C23   C31   A    
C3    C38   S    
C9    C33   A    
C38   C40   D    
C13   C35   A    
N2    H21   S    
C16   N2    S    
O18   V4    S    
