data_mof_unit_17848.cif
_audit_creation_date              2012-12-10T17:37:48-0500
_audit_creation_method            fapswitch 2.2
_symmetry_space_group_name_H-M    P1
_symmetry_Int_Tables_number       1
_space_group_crystal_system       triclinic
_cell_length_a                    12.31315
_cell_length_b                    13.221465
_cell_length_c                    17.335308
_cell_angle_alpha                 105.226609
_cell_angle_beta                  74.703752
_cell_angle_gamma                 117.064526
_cell_volume                      2390.44126981

loop_
_atom_site_label
_atom_site_type_symbol
_atom_type_description
_atom_site_fract_x
_atom_site_fract_y
_atom_site_fract_z
_atom_type_partial_charge
C1    C     C_R   0.145033 0.713589 0.506557 0.781909
C2    C     C_R   0.885603 0.521547 0.796489 -0.188849
C3    C     C_R   0.965047 0.556646 0.162482 -0.187046
C4    C     C_R   0.951003 0.544941 0.242043 -0.182143
C5    C     C_R   0.118782 0.483625 0.204454 -0.219612
C6    C     C_R   0.132957 0.494729 0.124265 0.281754
C7    C     C_R   0.054266 0.529650 0.102741 0.120677
C8    C     C_2   0.961901 0.501874 0.985970 -0.231637
C9    C     C_2   0.063356 0.535748 0.017990 -0.170522
C10   C     C_R   0.027143 0.507638 0.263535 -0.086425
C11   C     C_R   0.738148 0.977613 0.384155 -0.136503
C12   C     C_R   0.987181 0.502864 0.652088 0.784204
C13   C     C_R   0.774900 0.163624 0.468623 -0.058065
C14   C     C_R   0.182614 0.918234 0.552128 -0.188110
C15   C     C_R   0.257460 0.034986 0.555622 -0.228405
C16   C     C_R   0.381516 0.073067 0.518660 0.019858
C17   C     C_R   0.434112 0.991272 0.483067 0.068297
C18   C     C_R   0.352609 0.874074 0.466413 0.052631
C19   C     C_R   0.563531 0.020910 0.462673 0.072600
C20   C     C_R   0.609144 0.941025 0.409695 0.118150
C21   C     C_R   0.524143 0.828993 0.382041 -0.027188
C22   C     C_R   0.397839 0.798472 0.409152 -0.267739
C23   C     C_R   0.855568 0.285965 0.487922 0.810784
C24   C     C_R   0.648576 0.126355 0.497476 -0.152096
C25   C     C_R   0.819792 0.088410 0.412377 -0.218410
C26   C     C_R   0.227645 0.836541 0.506551 -0.090188
C27   C     C_R   0.639691 0.670447 0.632704 -0.290243
C28   C     C_R   0.253289 0.357286 0.386438 0.060818
C29   C     C_R   0.357786 0.334228 0.357426 -0.241712
C30   C     C_R   0.458981 0.392341 0.397894 -0.123289
C31   C     C_R   0.455561 0.472285 0.469569 -0.009777
C32   C     C_R   0.348381 0.496479 0.495106 0.279697
C33   C     C_R   0.554390 0.529903 0.516288 -0.025053
C34   C     C_R   0.014080 0.498947 0.348077 0.809286
C35   C     C_R   0.545802 0.613496 0.585282 0.177387
C36   C     C_R   0.443465 0.639749 0.606818 -0.276316
C37   C     C_R   0.347062 0.582511 0.562871 -0.185207
C38   C     C_R   0.661011 0.507087 0.498880 0.051110
C39   C     C_R   0.741348 0.643462 0.612629 0.069486
C40   C     C_R   0.980142 0.502371 0.737453 -0.032044
C41   C     C_R   0.067814 0.480878 0.760317 -0.207658
C42   C     C_R   0.061937 0.479672 0.841010 -0.137823
C43   C     C_R   0.969058 0.501331 0.900268 0.179516
C44   C     C_R   0.879816 0.520328 0.877518 -0.154366
Cu1   Cu    Cu3+1 0.900140 0.524980 0.518800 0.955489
Cu2   Cu    Cu3+1 0.099860 0.475020 0.481200 0.925115
H1    H     H_    0.140841 0.464383 0.715925 0.161223
H2    H     H_    0.917647 0.116331 0.388209 0.156037
H3    H     H_    0.777655 0.923983 0.339620 0.191645
H4    H     H_    0.617456 0.182278 0.546317 0.146163
H5    H     H_    0.087703 0.891900 0.583243 0.161888
H6    H     H_    0.216916 0.095950 0.585062 0.140583
H7    H     H_    0.335202 0.714314 0.383804 0.171209
H8    H     H_    0.813966 0.686809 0.649139 0.123877
H9    H     H_    0.881086 0.566137 0.286737 0.180060
H10   H     H_    0.437078 0.704728 0.658913 0.154975
H11   H     H_    0.634021 0.734867 0.685324 0.141821
H12   H     H_    0.674995 0.444699 0.447833 0.159352
H13   H     H_    0.175783 0.312952 0.354074 0.132715
H14   H     H_    0.539052 0.374060 0.371382 0.176298
H15   H     H_    0.360925 0.272077 0.302899 0.160381
H16   H     H_    0.273487 0.609413 0.584256 0.207421
H17   H     H_    0.179138 0.455745 0.220277 0.179108
H18   H     H_    0.154425 0.564673 0.980817 0.183957
H19   H     H_    0.806740 0.535716 0.922616 0.139419
H20   H     H_    0.906266 0.587418 0.147860 0.155940
H21   H     H_    0.816322 0.537432 0.780191 0.156700
H22   H     H_    0.870849 0.474209 0.023466 0.157726
H23   H     H_    0.129055 0.460023 0.856474 0.151114
N1    N     N_R   0.749710 0.562810 0.547300 -0.189173
N2    N     N_R   0.249640 0.437820 0.453210 -0.210230
O1    O     O_R   0.025490 0.682370 0.523640 -0.578565
O2    O     O_R   0.194150 0.640180 0.491890 -0.603615
O3    O     O_R   0.905900 0.523560 0.631310 -0.589802
O4    O     O_R   0.074570 0.481370 0.599560 -0.605165
O5    O     O_R   0.805850 0.359820 0.508110 -0.563638
O6    O     O_R   0.974510 0.317630 0.476360 -0.587715
O7    O     O_R   0.925430 0.518630 0.400440 -0.584696
O8    O     O_R   0.094100 0.476440 0.368690 -0.601072
Br1   Br    Br    0.257147 0.456210 0.046057 -0.563958
C45   C     C_2   0.560204 0.737300 0.328639 0.345427
H24   H     H_    0.501252 0.674273 0.285914 0.085334
O9    O     O_2   0.649740 0.725570 0.335592 -0.558380
C46   C     C_2   0.443828 0.194749 0.506454 0.309681
H25   H     H_    0.415481 0.258894 0.548231 0.071214
O10   O     O_2   0.522553 0.223146 0.446981 -0.567603

loop_
_geom_bond_atom_site_label_1
_geom_bond_atom_site_label_2
_ccdc_geom_bond_type
C38   N1    A    
C12   O3    A    
C9    H18   S    
C41   C42   A    
C35   C36   A    
C18   C26   A    
C8    C43   S    
C23   O5    A    
C45   H24   S    
Cu1   Cu2   S    
C5    H17   S    
Cu1   O5    S    
C36   H10   S    
C5    C6    A    
C36   C37   A    
C46   O10   D    
C3    C7    A    
C30   C31   A    
C39   H8    S    
C11   C25   A    
C15   C16   A    
C16   C46   S    
C13   C23   S    
C17   C19   A    
C38   H12   S    
C31   C32   A    
C2    C44   A    
C8    C9    D    
C30   H14   S    
C31   C33   A    
Cu1   O7    S    
C22   H7    S    
C21   C22   A    
Cu1   O1    S    
C13   C25   A    
C44   H19   S    
Cu2   O4    S    
C45   O9    D    
C37   H16   S    
C32   N2    A    
C24   H4    S    
C29   H15   S    
C11   C20   A    
C1    O1    A    
C46   H25   S    
C2    H21   S    
C27   H11   S    
C27   C39   A    
C16   C17   A    
C27   C35   A    
C32   C37   A    
C42   H23   S    
C14   C26   A    
C13   C24   A    
Cu1   O3    S    
C12   C40   S    
C43   C44   A    
C29   C30   A    
C11   H3    S    
C34   O8    A    
C6    Br1   S    
C14   H5    S    
C17   C18   A    
C41   H1    S    
C10   C34   S    
C15   H6    S    
C23   O6    A    
C25   H2    S    
Cu2   N2    S    
C40   C41   A    
C21   C45   S    
C8    H22   S    
C4    H9    S    
C1    C26   S    
C28   N2    A    
C42   C43   A    
C4    C10   A    
C3    C4    A    
C28   H13   S    
C7    C9    S    
C28   C29   A    
Cu1   N1    S    
C18   C22   A    
Cu2   O6    S    
C6    C7    A    
C33   C38   A    
C1    O2    A    
C19   C20   A    
C19   C24   A    
C5    C10   A    
C34   O7    A    
Cu2   O8    S    
C33   C35   A    
C39   N1    A    
C3    H20   S    
C2    C40   A    
C20   C21   A    
C12   O4    A    
C14   C15   A    
Cu2   O2    S    
