data_mof_unit_25733.cif
_audit_creation_date              2012-12-10T20:44:48-0500
_audit_creation_method            fapswitch 2.2
_symmetry_space_group_name_H-M    P1
_symmetry_Int_Tables_number       1
_space_group_crystal_system       triclinic
_cell_length_a                    9.865857
_cell_length_b                    10.70038
_cell_length_c                    16.645601
_cell_angle_alpha                 88.748328
_cell_angle_beta                  95.115369
_cell_angle_gamma                 89.286653
_cell_volume                      1749.65043893

loop_
_atom_site_label
_atom_site_type_symbol
_atom_type_description
_atom_site_fract_x
_atom_site_fract_y
_atom_site_fract_z
_atom_type_partial_charge
C1    C     C_R   0.499896 0.259826 0.497106 0.868632
C2    C     C_R   0.496990 0.128816 0.482779 -0.103478
C3    C     C_R   0.372033 0.067029 0.471566 -0.222901
C4    C     C_R   0.518864 0.502628 0.653365 0.872606
C5    C     C_R   0.371281 0.937614 0.471037 -0.236695
C6    C     C_R   0.495481 0.871604 0.481574 -0.098402
C7    C     C_R   0.617021 0.934660 0.476296 0.133192
C8    C     C_3   0.747556 0.922652 0.528861 -0.478055
C9    C     C_3   0.746824 0.063571 0.531027 -0.509489
C10   C     C_R   0.075752 0.394973 0.523041 0.145492
C11   C     C_R   0.066533 0.601786 0.474010 -0.107262
C12   C     C_R   0.644113 0.472108 0.786880 -0.253575
C13   C     C_R   0.922575 0.600892 0.472415 -0.129636
C14   C     C_R   0.933295 0.395496 0.523302 0.146442
C15   C     C_3   0.939802 0.332239 0.603925 -0.596593
C16   C     C_R   0.498679 0.740084 0.496440 0.863951
C17   C     C_3   0.093548 0.324407 0.602347 0.293073
C18   C     C_R   0.481802 0.500760 0.345595 0.952319
C19   C     C_R   0.535138 0.527200 0.738499 -0.022820
C20   C     C_R   0.448172 0.613651 0.770599 -0.204815
C21   C     C_R   0.464438 0.638108 0.852349 -0.235673
C22   C     C_R   0.567213 0.575924 0.901538 0.326680
C23   C     C_R   0.600718 0.472656 0.139986 0.458072
C24   C     C_R   0.659592 0.496039 0.868680 -0.152889
C25   C     C_3   0.168356 0.314464 0.736792 0.111975
C26   C     C_3   0.226919 0.386607 0.809178 -0.818494
C27   C     C_3   0.763895 0.330500 0.115090 0.081068
C28   C     C_3   0.899454 0.312591 0.079638 -0.776985
C29   C     C_3   0.148149 0.617545 0.210939 0.186812
C30   C     C_3   0.083298 0.682636 0.278110 -0.886175
C31   C     C_3   0.215837 0.585026 0.013019 0.086583
C32   C     C_3   0.066023 0.616731 0.990992 -0.857755
C33   C     C_R   0.597397 0.479935 0.222389 -0.422793
C34   C     C_R   0.479701 0.487454 0.089699 0.039879
C35   C     C_R   0.474158 0.495643 0.257045 -0.266847
C36   C     C_R   0.350212 0.505164 0.207328 0.388871
C37   C     C_R   0.352444 0.498644 0.122369 0.282965
C38   C     C_R   0.617687 0.062405 0.477329 0.141021
H1    H     H_    0.693616 0.472324 0.259109 0.217078
H2    H     H_    0.893912 0.239319 0.603598 0.160796
H3    H     H_    0.134738 0.228262 0.594522 0.050732
H4    H     H_    0.738435 0.447599 0.907205 0.148152
H5    H     H_    0.713874 0.407624 0.761906 0.146738
H6    H     H_    0.392867 0.699644 0.878222 0.129473
H7    H     H_    0.275641 0.117162 0.469374 0.164706
H8    H     H_    0.234237 0.230575 0.730492 0.128776
H9    H     H_    0.065234 0.283153 0.750110 0.131399
H10   H     H_    0.181104 0.482026 0.808454 0.262060
H11   H     H_    0.205192 0.336950 0.865806 0.212437
H12   H     H_    0.274645 0.890263 0.468718 0.161393
H13   H     H_    0.338729 0.392076 0.808631 0.259809
H14   H     H_    0.687191 0.270845 0.081643 0.142669
H15   H     H_    0.777256 0.298997 0.179584 0.140327
H16   H     H_    0.977796 0.372191 0.111094 0.291190
H17   H     H_    0.933046 0.213265 0.087097 0.202187
H18   H     H_    0.888847 0.337902 0.014365 0.236752
H19   H     H_    0.064743 0.581715 0.169004 0.202690
H20   H     H_    0.206300 0.689362 0.179144 0.108878
H21   H     H_    0.164029 0.719244 0.321711 0.251992
H22   H     H_    0.018333 0.762002 0.252718 0.209605
H23   H     H_    0.735458 0.877184 0.588491 0.210881
H24   H     H_    0.018760 0.615822 0.308769 0.265990
H25   H     H_    0.254856 0.548835 0.957504 0.187818
H26   H     H_    0.269337 0.672821 0.030742 0.122034
H27   H     H_    0.021586 0.664012 0.041293 0.245179
H28   H     H_    0.055607 0.680902 0.937387 0.211632
H29   H     H_    0.008618 0.530496 0.976145 0.271503
H30   H     H_    0.366401 0.659718 0.732891 0.167291
H31   H     H_    0.831853 0.884716 0.496279 0.193583
H32   H     H_    0.730581 0.098788 0.591828 0.199288
H33   H     H_    0.831205 0.105813 0.500215 0.202626
H34   H     H_    0.116450 0.685273 0.455171 0.134568
H35   H     H_    0.864147 0.682281 0.450017 0.143722
H36   H     H_    0.904607 0.394940 0.650570 0.230337
N1    N     N_2   0.562298 0.575663 0.984968 -0.155255
N2    N     N_2   0.486589 0.490962 0.005976 -0.166681
N3    N     N_R   0.142860 0.499130 0.500540 -0.080988
N4    N     N_R   0.857210 0.499170 0.500530 -0.087388
O1    O     O_R   0.614690 0.316790 0.499990 -0.611979
O2    O     O_3   0.724224 0.457788 0.107602 -0.585779
O3    O     O_3   0.228799 0.514915 0.243369 -0.579916
O4    O     O_3   0.229306 0.490981 0.074655 -0.606183
O5    O     O_R   0.385350 0.316760 0.500000 -0.629080
O6    O     O_R   0.627460 0.498860 0.616130 -0.619403
O7    O     O_R   0.398120 0.498820 0.616130 -0.555118
O8    O     O_R   0.614650 0.683240 0.500000 -0.622699
O9    O     O_R   0.385310 0.683210 0.500010 -0.637502
O10   O     O_R   0.601880 0.501180 0.383870 -0.631793
O11   O     O_R   0.372540 0.501140 0.383870 -0.561176
O12   O     O_3   0.162037 0.390968 0.665850 -0.550044
Zn1   Zn    Zn3+2 0.653130 0.500020 0.499990 0.943585
Zn2   Zn    Zn3+2 0.346870 0.499980 0.500010 0.992812

loop_
_geom_bond_atom_site_label_1
_geom_bond_atom_site_label_2
_ccdc_geom_bond_type
N3    Zn2   S    
C34   C37   A    
C24   H4    S    
C19   C20   A    
C28   H18   S    
C7    C8    S    
O5    Zn2   S    
C8    H31   S    
C33   H1    S    
C31   O4    S    
C36   C37   A    
C28   H17   S    
C12   H5    S    
O8    Zn1   S    
C5    C6    A    
C10   C17   S    
C1    C2    S    
C11   N3    A    
C4    C19   S    
C10   N3    A    
C35   C36   A    
C8    C9    S    
C23   C33   A    
C30   H22   S    
C16   O9    A    
O6    Zn1   S    
C23   O2    S    
C18   C35   S    
C25   H9    S    
O1    Zn1   S    
C26   H10   S    
C8    H23   S    
C21   C22   A    
C16   O8    A    
C22   N1    S    
O7    Zn2   S    
C31   H25   S    
C9    H32   S    
C27   O2    S    
C10   C14   A    
C26   H11   S    
C28   H16   S    
C11   H34   S    
C4    O7    A    
C25   C26   S    
C3    H7    S    
C18   O10   A    
N1    N2    D    
C29   O3    S    
C29   C30   S    
C21   H6    S    
C2    C38   A    
C31   C32   S    
C4    O6    A    
O10   Zn1   S    
C36   O3    S    
C23   C34   A    
C30   H21   S    
C25   O12   S    
C29   H20   S    
O11   Zn2   S    
C32   H29   S    
C13   H35   S    
C30   H24   S    
C1    O1    A    
C22   C24   A    
C5    H12   S    
C27   H14   S    
C32   H28   S    
C15   C17   S    
C13   N4    A    
C18   O11   A    
C31   H26   S    
C20   H30   S    
C17   O12   S    
C9    H33   S    
C29   H19   S    
C3    C5    A    
C27   H15   S    
C6    C7    A    
N4    Zn1   S    
C1    O5    A    
C12   C24   A    
C2    C3    A    
C26   H13   S    
C11   C13   A    
C12   C19   A    
C9    C38   S    
C33   C35   A    
C7    C38   A    
C14   N4    A    
C37   O4    S    
C17   H3    S    
C15   H2    S    
C6    C16   S    
C15   H36   S    
C20   C21   A    
C27   C28   S    
C14   C15   S    
O9    Zn2   S    
C25   H8    S    
C34   N2    S    
C32   H27   S    
